data_image0
_cell_length_a       55.983
_cell_length_b       55.983
_cell_length_c       55.983
_cell_angle_alpha    90
_cell_angle_beta     90
_cell_angle_gamma    90

_symmetry_space_group_name_H-M    "P 1"
_symmetry_int_tables_number       1

loop_
  _symmetry_equiv_pos_as_xyz
  'x, y, z'

loop_
  _atom_site_label
  _atom_site_occupancy
  _atom_site_fract_x
  _atom_site_fract_y
  _atom_site_fract_z
  _atom_site_thermal_displace_type
  _atom_site_B_iso_or_equiv
  _atom_site_type_symbol
  Cu1      1.0000 0.50000  0.00000  0.18746  Biso   1.000  Cu
  Cu2      1.0000 0.50000  0.00000  0.81254  Biso   1.000  Cu
  Cu3      1.0000 0.18746  0.50000  0.00000  Biso   1.000  Cu
  Cu4      1.0000 0.81254  0.50000  0.00000  Biso   1.000  Cu
  Cu5      1.0000 0.00000  0.18746  0.50000  Biso   1.000  Cu
  Cu6      1.0000 0.00000  0.81254  0.50000  Biso   1.000  Cu
  Cu7      1.0000 0.50000  0.00000  0.68746  Biso   1.000  Cu
  Cu8      1.0000 0.50000  0.00000  0.31254  Biso   1.000  Cu
  Cu9      1.0000 0.00000  0.68746  0.50000  Biso   1.000  Cu
  Cu10     1.0000 0.00000  0.31254  0.50000  Biso   1.000  Cu
  Cu11     1.0000 0.68746  0.50000  0.00000  Biso   1.000  Cu
  Cu12     1.0000 0.31254  0.50000  0.00000  Biso   1.000  Cu
  Cu13     1.0000 0.50000  0.50000  0.68746  Biso   1.000  Cu
  Cu14     1.0000 0.50000  0.50000  0.31254  Biso   1.000  Cu
  Cu15     1.0000 0.18746  0.00000  0.50000  Biso   1.000  Cu
  Cu16     1.0000 0.81254  0.00000  0.50000  Biso   1.000  Cu
  Cu17     1.0000 0.00000  0.68746  0.00000  Biso   1.000  Cu
  Cu18     1.0000 0.00000  0.31254  0.00000  Biso   1.000  Cu
  Cu19     1.0000 0.50000  0.50000  0.18746  Biso   1.000  Cu
  Cu20     1.0000 0.50000  0.50000  0.81254  Biso   1.000  Cu
  Cu21     1.0000 0.00000  0.18746  0.00000  Biso   1.000  Cu
  Cu22     1.0000 0.00000  0.81254  0.00000  Biso   1.000  Cu
  Cu23     1.0000 0.68746  0.00000  0.50000  Biso   1.000  Cu
  Cu24     1.0000 0.31254  0.00000  0.50000  Biso   1.000  Cu
  Cu25     1.0000 0.00000  0.00000  0.68746  Biso   1.000  Cu
  Cu26     1.0000 0.00000  0.00000  0.31254  Biso   1.000  Cu
  Cu27     1.0000 0.68746  0.50000  0.50000  Biso   1.000  Cu
  Cu28     1.0000 0.31254  0.50000  0.50000  Biso   1.000  Cu
  Cu29     1.0000 0.50000  0.18746  0.00000  Biso   1.000  Cu
  Cu30     1.0000 0.50000  0.81254  0.00000  Biso   1.000  Cu
  Cu31     1.0000 0.00000  0.00000  0.18746  Biso   1.000  Cu
  Cu32     1.0000 0.00000  0.00000  0.81254  Biso   1.000  Cu
  Cu33     1.0000 0.50000  0.68746  0.00000  Biso   1.000  Cu
  Cu34     1.0000 0.50000  0.31254  0.00000  Biso   1.000  Cu
  Cu35     1.0000 0.18746  0.50000  0.50000  Biso   1.000  Cu
  Cu36     1.0000 0.81254  0.50000  0.50000  Biso   1.000  Cu
  Cu37     1.0000 0.00000  0.50000  0.18746  Biso   1.000  Cu
  Cu38     1.0000 0.00000  0.50000  0.81254  Biso   1.000  Cu
  Cu39     1.0000 0.68746  0.00000  0.00000  Biso   1.000  Cu
  Cu40     1.0000 0.31254  0.00000  0.00000  Biso   1.000  Cu
  Cu41     1.0000 0.50000  0.68746  0.50000  Biso   1.000  Cu
  Cu42     1.0000 0.50000  0.31254  0.50000  Biso   1.000  Cu
  Cu43     1.0000 0.00000  0.50000  0.68746  Biso   1.000  Cu
  Cu44     1.0000 0.00000  0.50000  0.31254  Biso   1.000  Cu
  Cu45     1.0000 0.50000  0.18746  0.50000  Biso   1.000  Cu
  Cu46     1.0000 0.50000  0.81254  0.50000  Biso   1.000  Cu
  Cu47     1.0000 0.18746  0.00000  0.00000  Biso   1.000  Cu
  Cu48     1.0000 0.81254  0.00000  0.00000  Biso   1.000  Cu
  O1       1.0000 0.55432  0.88790  0.14553  Biso   1.000  O
  O2       1.0000 0.44568  0.11210  0.14553  Biso   1.000  O
  O3       1.0000 0.44568  0.88790  0.85447  Biso   1.000  O
  O4       1.0000 0.55432  0.11210  0.85447  Biso   1.000  O
  O5       1.0000 0.14553  0.55432  0.88790  Biso   1.000  O
  O6       1.0000 0.14553  0.44568  0.11210  Biso   1.000  O
  O7       1.0000 0.85447  0.44568  0.88790  Biso   1.000  O
  O8       1.0000 0.85447  0.55432  0.11210  Biso   1.000  O
  O9       1.0000 0.88790  0.14553  0.55432  Biso   1.000  O
  O10      1.0000 0.11210  0.14553  0.44568  Biso   1.000  O
  O11      1.0000 0.88790  0.85447  0.44568  Biso   1.000  O
  O12      1.0000 0.11210  0.85447  0.55432  Biso   1.000  O
  O13      1.0000 0.38790  0.05432  0.64553  Biso   1.000  O
  O14      1.0000 0.61210  0.94568  0.64553  Biso   1.000  O
  O15      1.0000 0.38790  0.94568  0.35447  Biso   1.000  O
  O16      1.0000 0.61210  0.05432  0.35447  Biso   1.000  O
  O17      1.0000 0.05432  0.64553  0.38790  Biso   1.000  O
  O18      1.0000 0.94568  0.64553  0.61210  Biso   1.000  O
  O19      1.0000 0.94568  0.35447  0.38790  Biso   1.000  O
  O20      1.0000 0.05432  0.35447  0.61210  Biso   1.000  O
  O21      1.0000 0.64553  0.38790  0.05432  Biso   1.000  O
  O22      1.0000 0.64553  0.61210  0.94568  Biso   1.000  O
  O23      1.0000 0.35447  0.38790  0.94568  Biso   1.000  O
  O24      1.0000 0.35447  0.61210  0.05432  Biso   1.000  O
  O25      1.0000 0.55432  0.38790  0.64553  Biso   1.000  O
  O26      1.0000 0.44568  0.61210  0.64553  Biso   1.000  O
  O27      1.0000 0.44568  0.38790  0.35447  Biso   1.000  O
  O28      1.0000 0.55432  0.61210  0.35447  Biso   1.000  O
  O29      1.0000 0.14553  0.05432  0.38790  Biso   1.000  O
  O30      1.0000 0.14553  0.94568  0.61210  Biso   1.000  O
  O31      1.0000 0.85447  0.94568  0.38790  Biso   1.000  O
  O32      1.0000 0.85447  0.05432  0.61210  Biso   1.000  O
  O33      1.0000 0.88790  0.64553  0.05432  Biso   1.000  O
  O34      1.0000 0.11210  0.64553  0.94568  Biso   1.000  O
  O35      1.0000 0.88790  0.35447  0.94568  Biso   1.000  O
  O36      1.0000 0.11210  0.35447  0.05432  Biso   1.000  O
  O37      1.0000 0.38790  0.55432  0.14553  Biso   1.000  O
  O38      1.0000 0.61210  0.44568  0.14553  Biso   1.000  O
  O39      1.0000 0.38790  0.44568  0.85447  Biso   1.000  O
  O40      1.0000 0.61210  0.55432  0.85447  Biso   1.000  O
  O41      1.0000 0.05432  0.14553  0.88790  Biso   1.000  O
  O42      1.0000 0.94568  0.14553  0.11210  Biso   1.000  O
  O43      1.0000 0.94568  0.85447  0.88790  Biso   1.000  O
  O44      1.0000 0.05432  0.85447  0.11210  Biso   1.000  O
  O45      1.0000 0.64553  0.88790  0.55432  Biso   1.000  O
  O46      1.0000 0.64553  0.11210  0.44568  Biso   1.000  O
  O47      1.0000 0.35447  0.88790  0.44568  Biso   1.000  O
  O48      1.0000 0.35447  0.11210  0.55432  Biso   1.000  O
  O49      1.0000 0.05432  0.88790  0.64553  Biso   1.000  O
  O50      1.0000 0.94568  0.11210  0.64553  Biso   1.000  O
  O51      1.0000 0.94568  0.88790  0.35447  Biso   1.000  O
  O52      1.0000 0.05432  0.11210  0.35447  Biso   1.000  O
  O53      1.0000 0.64553  0.55432  0.38790  Biso   1.000  O
  O54      1.0000 0.64553  0.44568  0.61210  Biso   1.000  O
  O55      1.0000 0.35447  0.44568  0.38790  Biso   1.000  O
  O56      1.0000 0.35447  0.55432  0.61210  Biso   1.000  O
  O57      1.0000 0.38790  0.14553  0.05432  Biso   1.000  O
  O58      1.0000 0.61210  0.14553  0.94568  Biso   1.000  O
  O59      1.0000 0.38790  0.85447  0.94568  Biso   1.000  O
  O60      1.0000 0.61210  0.85447  0.05432  Biso   1.000  O
  O61      1.0000 0.88790  0.05432  0.14553  Biso   1.000  O
  O62      1.0000 0.11210  0.94568  0.14553  Biso   1.000  O
  O63      1.0000 0.88790  0.94568  0.85447  Biso   1.000  O
  O64      1.0000 0.11210  0.05432  0.85447  Biso   1.000  O
  O65      1.0000 0.55432  0.64553  0.88790  Biso   1.000  O
  O66      1.0000 0.44568  0.64553  0.11210  Biso   1.000  O
  O67      1.0000 0.44568  0.35447  0.88790  Biso   1.000  O
  O68      1.0000 0.55432  0.35447  0.11210  Biso   1.000  O
  O69      1.0000 0.14553  0.38790  0.55432  Biso   1.000  O
  O70      1.0000 0.14553  0.61210  0.44568  Biso   1.000  O
  O71      1.0000 0.85447  0.38790  0.44568  Biso   1.000  O
  O72      1.0000 0.85447  0.61210  0.55432  Biso   1.000  O
  O73      1.0000 0.05432  0.38790  0.14553  Biso   1.000  O
  O74      1.0000 0.94568  0.61210  0.14553  Biso   1.000  O
  O75      1.0000 0.94568  0.38790  0.85447  Biso   1.000  O
  O76      1.0000 0.05432  0.61210  0.85447  Biso   1.000  O
  O77      1.0000 0.64553  0.05432  0.88790  Biso   1.000  O
  O78      1.0000 0.64553  0.94568  0.11210  Biso   1.000  O
  O79      1.0000 0.35447  0.94568  0.88790  Biso   1.000  O
  O80      1.0000 0.35447  0.05432  0.11210  Biso   1.000  O
  O81      1.0000 0.38790  0.64553  0.55432  Biso   1.000  O
  O82      1.0000 0.61210  0.64553  0.44568  Biso   1.000  O
  O83      1.0000 0.38790  0.35447  0.44568  Biso   1.000  O
  O84      1.0000 0.61210  0.35447  0.55432  Biso   1.000  O
  O85      1.0000 0.88790  0.55432  0.64553  Biso   1.000  O
  O86      1.0000 0.11210  0.44568  0.64553  Biso   1.000  O
  O87      1.0000 0.88790  0.44568  0.35447  Biso   1.000  O
  O88      1.0000 0.11210  0.55432  0.35447  Biso   1.000  O
  O89      1.0000 0.55432  0.14553  0.38790  Biso   1.000  O
  O90      1.0000 0.44568  0.14553  0.61210  Biso   1.000  O
  O91      1.0000 0.44568  0.85447  0.38790  Biso   1.000  O
  O92      1.0000 0.55432  0.85447  0.61210  Biso   1.000  O
  O93      1.0000 0.14553  0.88790  0.05432  Biso   1.000  O
  O94      1.0000 0.14553  0.11210  0.94568  Biso   1.000  O
  O95      1.0000 0.85447  0.88790  0.94568  Biso   1.000  O
  O96      1.0000 0.85447  0.11210  0.05432  Biso   1.000  O
  O97      1.0000 0.44280  0.89734  0.14988  Biso   1.000  O
  O98      1.0000 0.55720  0.10266  0.14988  Biso   1.000  O
  O99      1.0000 0.55720  0.89734  0.85012  Biso   1.000  O
  O100     1.0000 0.44280  0.10266  0.85012  Biso   1.000  O
  O101     1.0000 0.14988  0.44280  0.89734  Biso   1.000  O
  O102     1.0000 0.14988  0.55720  0.10266  Biso   1.000  O
  O103     1.0000 0.85012  0.55720  0.89734  Biso   1.000  O
  O104     1.0000 0.85012  0.44280  0.10266  Biso   1.000  O
  O105     1.0000 0.89734  0.14988  0.44280  Biso   1.000  O
  O106     1.0000 0.10266  0.14988  0.55720  Biso   1.000  O
  O107     1.0000 0.89734  0.85012  0.55720  Biso   1.000  O
  O108     1.0000 0.10266  0.85012  0.44280  Biso   1.000  O
  O109     1.0000 0.39734  0.94280  0.64988  Biso   1.000  O
  O110     1.0000 0.60266  0.05720  0.64988  Biso   1.000  O
  O111     1.0000 0.39734  0.05720  0.35012  Biso   1.000  O
  O112     1.0000 0.60266  0.94280  0.35012  Biso   1.000  O
  O113     1.0000 0.94280  0.64988  0.39734  Biso   1.000  O
  O114     1.0000 0.05720  0.64988  0.60266  Biso   1.000  O
  O115     1.0000 0.05720  0.35012  0.39734  Biso   1.000  O
  O116     1.0000 0.94280  0.35012  0.60266  Biso   1.000  O
  O117     1.0000 0.64988  0.39734  0.94280  Biso   1.000  O
  O118     1.0000 0.64988  0.60266  0.05720  Biso   1.000  O
  O119     1.0000 0.35012  0.39734  0.05720  Biso   1.000  O
  O120     1.0000 0.35012  0.60266  0.94280  Biso   1.000  O
  O121     1.0000 0.44280  0.39734  0.64988  Biso   1.000  O
  O122     1.0000 0.55720  0.60266  0.64988  Biso   1.000  O
  O123     1.0000 0.55720  0.39734  0.35012  Biso   1.000  O
  O124     1.0000 0.44280  0.60266  0.35012  Biso   1.000  O
  O125     1.0000 0.14988  0.94280  0.39734  Biso   1.000  O
  O126     1.0000 0.14988  0.05720  0.60266  Biso   1.000  O
  O127     1.0000 0.85012  0.05720  0.39734  Biso   1.000  O
  O128     1.0000 0.85012  0.94280  0.60266  Biso   1.000  O
  O129     1.0000 0.89734  0.64988  0.94280  Biso   1.000  O
  O130     1.0000 0.10266  0.64988  0.05720  Biso   1.000  O
  O131     1.0000 0.89734  0.35012  0.05720  Biso   1.000  O
  O132     1.0000 0.10266  0.35012  0.94280  Biso   1.000  O
  O133     1.0000 0.39734  0.44280  0.14988  Biso   1.000  O
  O134     1.0000 0.60266  0.55720  0.14988  Biso   1.000  O
  O135     1.0000 0.39734  0.55720  0.85012  Biso   1.000  O
  O136     1.0000 0.60266  0.44280  0.85012  Biso   1.000  O
  O137     1.0000 0.94280  0.14988  0.89734  Biso   1.000  O
  O138     1.0000 0.05720  0.14988  0.10266  Biso   1.000  O
  O139     1.0000 0.05720  0.85012  0.89734  Biso   1.000  O
  O140     1.0000 0.94280  0.85012  0.10266  Biso   1.000  O
  O141     1.0000 0.64988  0.89734  0.44280  Biso   1.000  O
  O142     1.0000 0.64988  0.10266  0.55720  Biso   1.000  O
  O143     1.0000 0.35012  0.89734  0.55720  Biso   1.000  O
  O144     1.0000 0.35012  0.10266  0.44280  Biso   1.000  O
  O145     1.0000 0.94280  0.89734  0.64988  Biso   1.000  O
  O146     1.0000 0.05720  0.10266  0.64988  Biso   1.000  O
  O147     1.0000 0.05720  0.89734  0.35012  Biso   1.000  O
  O148     1.0000 0.94280  0.10266  0.35012  Biso   1.000  O
  O149     1.0000 0.64988  0.44280  0.39734  Biso   1.000  O
  O150     1.0000 0.64988  0.55720  0.60266  Biso   1.000  O
  O151     1.0000 0.35012  0.55720  0.39734  Biso   1.000  O
  O152     1.0000 0.35012  0.44280  0.60266  Biso   1.000  O
  O153     1.0000 0.39734  0.14988  0.94280  Biso   1.000  O
  O154     1.0000 0.60266  0.14988  0.05720  Biso   1.000  O
  O155     1.0000 0.39734  0.85012  0.05720  Biso   1.000  O
  O156     1.0000 0.60266  0.85012  0.94280  Biso   1.000  O
  O157     1.0000 0.89734  0.94280  0.14988  Biso   1.000  O
  O158     1.0000 0.10266  0.05720  0.14988  Biso   1.000  O
  O159     1.0000 0.89734  0.05720  0.85012  Biso   1.000  O
  O160     1.0000 0.10266  0.94280  0.85012  Biso   1.000  O
  O161     1.0000 0.44280  0.64988  0.89734  Biso   1.000  O
  O162     1.0000 0.55720  0.64988  0.10266  Biso   1.000  O
  O163     1.0000 0.55720  0.35012  0.89734  Biso   1.000  O
  O164     1.0000 0.44280  0.35012  0.10266  Biso   1.000  O
  O165     1.0000 0.14988  0.39734  0.44280  Biso   1.000  O
  O166     1.0000 0.14988  0.60266  0.55720  Biso   1.000  O
  O167     1.0000 0.85012  0.39734  0.55720  Biso   1.000  O
  O168     1.0000 0.85012  0.60266  0.44280  Biso   1.000  O
  O169     1.0000 0.94280  0.39734  0.14988  Biso   1.000  O
  O170     1.0000 0.05720  0.60266  0.14988  Biso   1.000  O
  O171     1.0000 0.05720  0.39734  0.85012  Biso   1.000  O
  O172     1.0000 0.94280  0.60266  0.85012  Biso   1.000  O
  O173     1.0000 0.64988  0.94280  0.89734  Biso   1.000  O
  O174     1.0000 0.64988  0.05720  0.10266  Biso   1.000  O
  O175     1.0000 0.35012  0.05720  0.89734  Biso   1.000  O
  O176     1.0000 0.35012  0.94280  0.10266  Biso   1.000  O
  O177     1.0000 0.39734  0.64988  0.44280  Biso   1.000  O
  O178     1.0000 0.60266  0.64988  0.55720  Biso   1.000  O
  O179     1.0000 0.39734  0.35012  0.55720  Biso   1.000  O
  O180     1.0000 0.60266  0.35012  0.44280  Biso   1.000  O
  O181     1.0000 0.89734  0.44280  0.64988  Biso   1.000  O
  O182     1.0000 0.10266  0.55720  0.64988  Biso   1.000  O
  O183     1.0000 0.89734  0.55720  0.35012  Biso   1.000  O
  O184     1.0000 0.10266  0.44280  0.35012  Biso   1.000  O
  O185     1.0000 0.44280  0.14988  0.39734  Biso   1.000  O
  O186     1.0000 0.55720  0.14988  0.60266  Biso   1.000  O
  O187     1.0000 0.55720  0.85012  0.39734  Biso   1.000  O
  O188     1.0000 0.44280  0.85012  0.60266  Biso   1.000  O
  O189     1.0000 0.14988  0.89734  0.94280  Biso   1.000  O
  O190     1.0000 0.14988  0.10266  0.05720  Biso   1.000  O
  O191     1.0000 0.85012  0.89734  0.05720  Biso   1.000  O
  O192     1.0000 0.85012  0.10266  0.94280  Biso   1.000  O
  N1       1.0000 0.52357  0.97320  0.18689  Biso   1.000  N
  N2       1.0000 0.47643  0.02680  0.18689  Biso   1.000  N
  N3       1.0000 0.47643  0.97320  0.81311  Biso   1.000  N
  N4       1.0000 0.52357  0.02680  0.81311  Biso   1.000  N
  N5       1.0000 0.18689  0.52357  0.97320  Biso   1.000  N
  N6       1.0000 0.18689  0.47643  0.02680  Biso   1.000  N
  N7       1.0000 0.81311  0.47643  0.97320  Biso   1.000  N
  N8       1.0000 0.81311  0.52357  0.02680  Biso   1.000  N
  N9       1.0000 0.97320  0.18689  0.52357  Biso   1.000  N
  N10      1.0000 0.02680  0.18689  0.47643  Biso   1.000  N
  N11      1.0000 0.97320  0.81311  0.47643  Biso   1.000  N
  N12      1.0000 0.02680  0.81311  0.52357  Biso   1.000  N
  N13      1.0000 0.47320  0.02357  0.68689  Biso   1.000  N
  N14      1.0000 0.52680  0.97643  0.68689  Biso   1.000  N
  N15      1.0000 0.47320  0.97643  0.31311  Biso   1.000  N
  N16      1.0000 0.52680  0.02357  0.31311  Biso   1.000  N
  N17      1.0000 0.02357  0.68689  0.47320  Biso   1.000  N
  N18      1.0000 0.97643  0.68689  0.52680  Biso   1.000  N
  N19      1.0000 0.97643  0.31311  0.47320  Biso   1.000  N
  N20      1.0000 0.02357  0.31311  0.52680  Biso   1.000  N
  N21      1.0000 0.68689  0.47320  0.02357  Biso   1.000  N
  N22      1.0000 0.68689  0.52680  0.97643  Biso   1.000  N
  N23      1.0000 0.31311  0.47320  0.97643  Biso   1.000  N
  N24      1.0000 0.31311  0.52680  0.02357  Biso   1.000  N
  N25      1.0000 0.52357  0.47320  0.68689  Biso   1.000  N
  N26      1.0000 0.47643  0.52680  0.68689  Biso   1.000  N
  N27      1.0000 0.47643  0.47320  0.31311  Biso   1.000  N
  N28      1.0000 0.52357  0.52680  0.31311  Biso   1.000  N
  N29      1.0000 0.18689  0.02357  0.47320  Biso   1.000  N
  N30      1.0000 0.18689  0.97643  0.52680  Biso   1.000  N
  N31      1.0000 0.81311  0.97643  0.47320  Biso   1.000  N
  N32      1.0000 0.81311  0.02357  0.52680  Biso   1.000  N
  N33      1.0000 0.97320  0.68689  0.02357  Biso   1.000  N
  N34      1.0000 0.02680  0.68689  0.97643  Biso   1.000  N
  N35      1.0000 0.97320  0.31311  0.97643  Biso   1.000  N
  N36      1.0000 0.02680  0.31311  0.02357  Biso   1.000  N
  N37      1.0000 0.47320  0.52357  0.18689  Biso   1.000  N
  N38      1.0000 0.52680  0.47643  0.18689  Biso   1.000  N
  N39      1.0000 0.47320  0.47643  0.81311  Biso   1.000  N
  N40      1.0000 0.52680  0.52357  0.81311  Biso   1.000  N
  N41      1.0000 0.02357  0.18689  0.97320  Biso   1.000  N
  N42      1.0000 0.97643  0.18689  0.02680  Biso   1.000  N
  N43      1.0000 0.97643  0.81311  0.97320  Biso   1.000  N
  N44      1.0000 0.02357  0.81311  0.02680  Biso   1.000  N
  N45      1.0000 0.68689  0.97320  0.52357  Biso   1.000  N
  N46      1.0000 0.68689  0.02680  0.47643  Biso   1.000  N
  N47      1.0000 0.31311  0.97320  0.47643  Biso   1.000  N
  N48      1.0000 0.31311  0.02680  0.52357  Biso   1.000  N
  N49      1.0000 0.02357  0.97320  0.68689  Biso   1.000  N
  N50      1.0000 0.97643  0.02680  0.68689  Biso   1.000  N
  N51      1.0000 0.97643  0.97320  0.31311  Biso   1.000  N
  N52      1.0000 0.02357  0.02680  0.31311  Biso   1.000  N
  N53      1.0000 0.68689  0.52357  0.47320  Biso   1.000  N
  N54      1.0000 0.68689  0.47643  0.52680  Biso   1.000  N
  N55      1.0000 0.31311  0.47643  0.47320  Biso   1.000  N
  N56      1.0000 0.31311  0.52357  0.52680  Biso   1.000  N
  N57      1.0000 0.47320  0.18689  0.02357  Biso   1.000  N
  N58      1.0000 0.52680  0.18689  0.97643  Biso   1.000  N
  N59      1.0000 0.47320  0.81311  0.97643  Biso   1.000  N
  N60      1.0000 0.52680  0.81311  0.02357  Biso   1.000  N
  N61      1.0000 0.97320  0.02357  0.18689  Biso   1.000  N
  N62      1.0000 0.02680  0.97643  0.18689  Biso   1.000  N
  N63      1.0000 0.97320  0.97643  0.81311  Biso   1.000  N
  N64      1.0000 0.02680  0.02357  0.81311  Biso   1.000  N
  N65      1.0000 0.52357  0.68689  0.97320  Biso   1.000  N
  N66      1.0000 0.47643  0.68689  0.02680  Biso   1.000  N
  N67      1.0000 0.47643  0.31311  0.97320  Biso   1.000  N
  N68      1.0000 0.52357  0.31311  0.02680  Biso   1.000  N
  N69      1.0000 0.18689  0.47320  0.52357  Biso   1.000  N
  N70      1.0000 0.18689  0.52680  0.47643  Biso   1.000  N
  N71      1.0000 0.81311  0.47320  0.47643  Biso   1.000  N
  N72      1.0000 0.81311  0.52680  0.52357  Biso   1.000  N
  N73      1.0000 0.02357  0.47320  0.18689  Biso   1.000  N
  N74      1.0000 0.97643  0.52680  0.18689  Biso   1.000  N
  N75      1.0000 0.97643  0.47320  0.81311  Biso   1.000  N
  N76      1.0000 0.02357  0.52680  0.81311  Biso   1.000  N
  N77      1.0000 0.68689  0.02357  0.97320  Biso   1.000  N
  N78      1.0000 0.68689  0.97643  0.02680  Biso   1.000  N
  N79      1.0000 0.31311  0.97643  0.97320  Biso   1.000  N
  N80      1.0000 0.31311  0.02357  0.02680  Biso   1.000  N
  N81      1.0000 0.47320  0.68689  0.52357  Biso   1.000  N
  N82      1.0000 0.52680  0.68689  0.47643  Biso   1.000  N
  N83      1.0000 0.47320  0.31311  0.47643  Biso   1.000  N
  N84      1.0000 0.52680  0.31311  0.52357  Biso   1.000  N
  N85      1.0000 0.97320  0.52357  0.68689  Biso   1.000  N
  N86      1.0000 0.02680  0.47643  0.68689  Biso   1.000  N
  N87      1.0000 0.97320  0.47643  0.31311  Biso   1.000  N
  N88      1.0000 0.02680  0.52357  0.31311  Biso   1.000  N
  N89      1.0000 0.52357  0.18689  0.47320  Biso   1.000  N
  N90      1.0000 0.47643  0.18689  0.52680  Biso   1.000  N
  N91      1.0000 0.47643  0.81311  0.47320  Biso   1.000  N
  N92      1.0000 0.52357  0.81311  0.52680  Biso   1.000  N
  N93      1.0000 0.18689  0.97320  0.02357  Biso   1.000  N
  N94      1.0000 0.18689  0.02680  0.97643  Biso   1.000  N
  N95      1.0000 0.81311  0.97320  0.97643  Biso   1.000  N
  N96      1.0000 0.81311  0.02680  0.02357  Biso   1.000  N
  N97      1.0000 0.58206  0.90859  0.16623  Biso   1.000  N
  N98      1.0000 0.41794  0.09141  0.16623  Biso   1.000  N
  N99      1.0000 0.41794  0.90859  0.83377  Biso   1.000  N
  N100     1.0000 0.58206  0.09141  0.83377  Biso   1.000  N
  N101     1.0000 0.16623  0.58206  0.90859  Biso   1.000  N
  N102     1.0000 0.16623  0.41794  0.09141  Biso   1.000  N
  N103     1.0000 0.83377  0.41794  0.90859  Biso   1.000  N
  N104     1.0000 0.83377  0.58206  0.09141  Biso   1.000  N
  N105     1.0000 0.90859  0.16623  0.58206  Biso   1.000  N
  N106     1.0000 0.09141  0.16623  0.41794  Biso   1.000  N
  N107     1.0000 0.90859  0.83377  0.41794  Biso   1.000  N
  N108     1.0000 0.09141  0.83377  0.58206  Biso   1.000  N
  N109     1.0000 0.40859  0.08206  0.66623  Biso   1.000  N
  N110     1.0000 0.59141  0.91794  0.66623  Biso   1.000  N
  N111     1.0000 0.40859  0.91794  0.33377  Biso   1.000  N
  N112     1.0000 0.59141  0.08206  0.33377  Biso   1.000  N
  N113     1.0000 0.08206  0.66623  0.40859  Biso   1.000  N
  N114     1.0000 0.91794  0.66623  0.59141  Biso   1.000  N
  N115     1.0000 0.91794  0.33377  0.40859  Biso   1.000  N
  N116     1.0000 0.08206  0.33377  0.59141  Biso   1.000  N
  N117     1.0000 0.66623  0.40859  0.08206  Biso   1.000  N
  N118     1.0000 0.66623  0.59141  0.91794  Biso   1.000  N
  N119     1.0000 0.33377  0.40859  0.91794  Biso   1.000  N
  N120     1.0000 0.33377  0.59141  0.08206  Biso   1.000  N
  N121     1.0000 0.58206  0.40859  0.66623  Biso   1.000  N
  N122     1.0000 0.41794  0.59141  0.66623  Biso   1.000  N
  N123     1.0000 0.41794  0.40859  0.33377  Biso   1.000  N
  N124     1.0000 0.58206  0.59141  0.33377  Biso   1.000  N
  N125     1.0000 0.16623  0.08206  0.40859  Biso   1.000  N
  N126     1.0000 0.16623  0.91794  0.59141  Biso   1.000  N
  N127     1.0000 0.83377  0.91794  0.40859  Biso   1.000  N
  N128     1.0000 0.83377  0.08206  0.59141  Biso   1.000  N
  N129     1.0000 0.90859  0.66623  0.08206  Biso   1.000  N
  N130     1.0000 0.09141  0.66623  0.91794  Biso   1.000  N
  N131     1.0000 0.90859  0.33377  0.91794  Biso   1.000  N
  N132     1.0000 0.09141  0.33377  0.08206  Biso   1.000  N
  N133     1.0000 0.40859  0.58206  0.16623  Biso   1.000  N
  N134     1.0000 0.59141  0.41794  0.16623  Biso   1.000  N
  N135     1.0000 0.40859  0.41794  0.83377  Biso   1.000  N
  N136     1.0000 0.59141  0.58206  0.83377  Biso   1.000  N
  N137     1.0000 0.08206  0.16623  0.90859  Biso   1.000  N
  N138     1.0000 0.91794  0.16623  0.09141  Biso   1.000  N
  N139     1.0000 0.91794  0.83377  0.90859  Biso   1.000  N
  N140     1.0000 0.08206  0.83377  0.09141  Biso   1.000  N
  N141     1.0000 0.66623  0.90859  0.58206  Biso   1.000  N
  N142     1.0000 0.66623  0.09141  0.41794  Biso   1.000  N
  N143     1.0000 0.33377  0.90859  0.41794  Biso   1.000  N
  N144     1.0000 0.33377  0.09141  0.58206  Biso   1.000  N
  N145     1.0000 0.08206  0.90859  0.66623  Biso   1.000  N
  N146     1.0000 0.91794  0.09141  0.66623  Biso   1.000  N
  N147     1.0000 0.91794  0.90859  0.33377  Biso   1.000  N
  N148     1.0000 0.08206  0.09141  0.33377  Biso   1.000  N
  N149     1.0000 0.66623  0.58206  0.40859  Biso   1.000  N
  N150     1.0000 0.66623  0.41794  0.59141  Biso   1.000  N
  N151     1.0000 0.33377  0.41794  0.40859  Biso   1.000  N
  N152     1.0000 0.33377  0.58206  0.59141  Biso   1.000  N
  N153     1.0000 0.40859  0.16623  0.08206  Biso   1.000  N
  N154     1.0000 0.59141  0.16623  0.91794  Biso   1.000  N
  N155     1.0000 0.40859  0.83377  0.91794  Biso   1.000  N
  N156     1.0000 0.59141  0.83377  0.08206  Biso   1.000  N
  N157     1.0000 0.90859  0.08206  0.16623  Biso   1.000  N
  N158     1.0000 0.09141  0.91794  0.16623  Biso   1.000  N
  N159     1.0000 0.90859  0.91794  0.83377  Biso   1.000  N
  N160     1.0000 0.09141  0.08206  0.83377  Biso   1.000  N
  N161     1.0000 0.58206  0.66623  0.90859  Biso   1.000  N
  N162     1.0000 0.41794  0.66623  0.09141  Biso   1.000  N
  N163     1.0000 0.41794  0.33377  0.90859  Biso   1.000  N
  N164     1.0000 0.58206  0.33377  0.09141  Biso   1.000  N
  N165     1.0000 0.16623  0.40859  0.58206  Biso   1.000  N
  N166     1.0000 0.16623  0.59141  0.41794  Biso   1.000  N
  N167     1.0000 0.83377  0.40859  0.41794  Biso   1.000  N
  N168     1.0000 0.83377  0.59141  0.58206  Biso   1.000  N
  N169     1.0000 0.08206  0.40859  0.16623  Biso   1.000  N
  N170     1.0000 0.91794  0.59141  0.16623  Biso   1.000  N
  N171     1.0000 0.91794  0.40859  0.83377  Biso   1.000  N
  N172     1.0000 0.08206  0.59141  0.83377  Biso   1.000  N
  N173     1.0000 0.66623  0.08206  0.90859  Biso   1.000  N
  N174     1.0000 0.66623  0.91794  0.09141  Biso   1.000  N
  N175     1.0000 0.33377  0.91794  0.90859  Biso   1.000  N
  N176     1.0000 0.33377  0.08206  0.09141  Biso   1.000  N
  N177     1.0000 0.40859  0.66623  0.58206  Biso   1.000  N
  N178     1.0000 0.59141  0.66623  0.41794  Biso   1.000  N
  N179     1.0000 0.40859  0.33377  0.41794  Biso   1.000  N
  N180     1.0000 0.59141  0.33377  0.58206  Biso   1.000  N
  N181     1.0000 0.90859  0.58206  0.66623  Biso   1.000  N
  N182     1.0000 0.09141  0.41794  0.66623  Biso   1.000  N
  N183     1.0000 0.90859  0.41794  0.33377  Biso   1.000  N
  N184     1.0000 0.09141  0.58206  0.33377  Biso   1.000  N
  N185     1.0000 0.58206  0.16623  0.40859  Biso   1.000  N
  N186     1.0000 0.41794  0.16623  0.59141  Biso   1.000  N
  N187     1.0000 0.41794  0.83377  0.40859  Biso   1.000  N
  N188     1.0000 0.58206  0.83377  0.59141  Biso   1.000  N
  N189     1.0000 0.16623  0.90859  0.08206  Biso   1.000  N
  N190     1.0000 0.16623  0.09141  0.91794  Biso   1.000  N
  N191     1.0000 0.83377  0.90859  0.91794  Biso   1.000  N
  N192     1.0000 0.83377  0.09141  0.08206  Biso   1.000  N
  H1       1.0000 0.59630  0.91510  0.16600  Biso   1.000  H
  H2       1.0000 0.40370  0.08490  0.16600  Biso   1.000  H
  H3       1.0000 0.40370  0.91510  0.83400  Biso   1.000  H
  H4       1.0000 0.59630  0.08490  0.83400  Biso   1.000  H
  H5       1.0000 0.16600  0.59630  0.91510  Biso   1.000  H
  H6       1.0000 0.16600  0.40370  0.08490  Biso   1.000  H
  H7       1.0000 0.83400  0.40370  0.91510  Biso   1.000  H
  H8       1.0000 0.83400  0.59630  0.08490  Biso   1.000  H
  H9       1.0000 0.91510  0.16600  0.59630  Biso   1.000  H
  H10      1.0000 0.08490  0.16600  0.40370  Biso   1.000  H
  H11      1.0000 0.91510  0.83400  0.40370  Biso   1.000  H
  H12      1.0000 0.08490  0.83400  0.59630  Biso   1.000  H
  H13      1.0000 0.41510  0.09630  0.66600  Biso   1.000  H
  H14      1.0000 0.58490  0.90370  0.66600  Biso   1.000  H
  H15      1.0000 0.41510  0.90370  0.33400  Biso   1.000  H
  H16      1.0000 0.58490  0.09630  0.33400  Biso   1.000  H
  H17      1.0000 0.09630  0.66600  0.41510  Biso   1.000  H
  H18      1.0000 0.90370  0.66600  0.58490  Biso   1.000  H
  H19      1.0000 0.90370  0.33400  0.41510  Biso   1.000  H
  H20      1.0000 0.09630  0.33400  0.58490  Biso   1.000  H
  H21      1.0000 0.66600  0.41510  0.09630  Biso   1.000  H
  H22      1.0000 0.66600  0.58490  0.90370  Biso   1.000  H
  H23      1.0000 0.33400  0.41510  0.90370  Biso   1.000  H
  H24      1.0000 0.33400  0.58490  0.09630  Biso   1.000  H
  H25      1.0000 0.59630  0.41510  0.66600  Biso   1.000  H
  H26      1.0000 0.40370  0.58490  0.66600  Biso   1.000  H
  H27      1.0000 0.40370  0.41510  0.33400  Biso   1.000  H
  H28      1.0000 0.59630  0.58490  0.33400  Biso   1.000  H
  H29      1.0000 0.16600  0.09630  0.41510  Biso   1.000  H
  H30      1.0000 0.16600  0.90370  0.58490  Biso   1.000  H
  H31      1.0000 0.83400  0.90370  0.41510  Biso   1.000  H
  H32      1.0000 0.83400  0.09630  0.58490  Biso   1.000  H
  H33      1.0000 0.91510  0.66600  0.09630  Biso   1.000  H
  H34      1.0000 0.08490  0.66600  0.90370  Biso   1.000  H
  H35      1.0000 0.91510  0.33400  0.90370  Biso   1.000  H
  H36      1.0000 0.08490  0.33400  0.09630  Biso   1.000  H
  H37      1.0000 0.41510  0.59630  0.16600  Biso   1.000  H
  H38      1.0000 0.58490  0.40370  0.16600  Biso   1.000  H
  H39      1.0000 0.41510  0.40370  0.83400  Biso   1.000  H
  H40      1.0000 0.58490  0.59630  0.83400  Biso   1.000  H
  H41      1.0000 0.09630  0.16600  0.91510  Biso   1.000  H
  H42      1.0000 0.90370  0.16600  0.08490  Biso   1.000  H
  H43      1.0000 0.90370  0.83400  0.91510  Biso   1.000  H
  H44      1.0000 0.09630  0.83400  0.08490  Biso   1.000  H
  H45      1.0000 0.66600  0.91510  0.59630  Biso   1.000  H
  H46      1.0000 0.66600  0.08490  0.40370  Biso   1.000  H
  H47      1.0000 0.33400  0.91510  0.40370  Biso   1.000  H
  H48      1.0000 0.33400  0.08490  0.59630  Biso   1.000  H
  H49      1.0000 0.09630  0.91510  0.66600  Biso   1.000  H
  H50      1.0000 0.90370  0.08490  0.66600  Biso   1.000  H
  H51      1.0000 0.90370  0.91510  0.33400  Biso   1.000  H
  H52      1.0000 0.09630  0.08490  0.33400  Biso   1.000  H
  H53      1.0000 0.66600  0.59630  0.41510  Biso   1.000  H
  H54      1.0000 0.66600  0.40370  0.58490  Biso   1.000  H
  H55      1.0000 0.33400  0.40370  0.41510  Biso   1.000  H
  H56      1.0000 0.33400  0.59630  0.58490  Biso   1.000  H
  H57      1.0000 0.41510  0.16600  0.09630  Biso   1.000  H
  H58      1.0000 0.58490  0.16600  0.90370  Biso   1.000  H
  H59      1.0000 0.41510  0.83400  0.90370  Biso   1.000  H
  H60      1.0000 0.58490  0.83400  0.09630  Biso   1.000  H
  H61      1.0000 0.91510  0.09630  0.16600  Biso   1.000  H
  H62      1.0000 0.08490  0.90370  0.16600  Biso   1.000  H
  H63      1.0000 0.91510  0.90370  0.83400  Biso   1.000  H
  H64      1.0000 0.08490  0.09630  0.83400  Biso   1.000  H
  H65      1.0000 0.59630  0.66600  0.91510  Biso   1.000  H
  H66      1.0000 0.40370  0.66600  0.08490  Biso   1.000  H
  H67      1.0000 0.40370  0.33400  0.91510  Biso   1.000  H
  H68      1.0000 0.59630  0.33400  0.08490  Biso   1.000  H
  H69      1.0000 0.16600  0.41510  0.59630  Biso   1.000  H
  H70      1.0000 0.16600  0.58490  0.40370  Biso   1.000  H
  H71      1.0000 0.83400  0.41510  0.40370  Biso   1.000  H
  H72      1.0000 0.83400  0.58490  0.59630  Biso   1.000  H
  H73      1.0000 0.09630  0.41510  0.16600  Biso   1.000  H
  H74      1.0000 0.90370  0.58490  0.16600  Biso   1.000  H
  H75      1.0000 0.90370  0.41510  0.83400  Biso   1.000  H
  H76      1.0000 0.09630  0.58490  0.83400  Biso   1.000  H
  H77      1.0000 0.66600  0.09630  0.91510  Biso   1.000  H
  H78      1.0000 0.66600  0.90370  0.08490  Biso   1.000  H
  H79      1.0000 0.33400  0.90370  0.91510  Biso   1.000  H
  H80      1.0000 0.33400  0.09630  0.08490  Biso   1.000  H
  H81      1.0000 0.41510  0.66600  0.59630  Biso   1.000  H
  H82      1.0000 0.58490  0.66600  0.40370  Biso   1.000  H
  H83      1.0000 0.41510  0.33400  0.40370  Biso   1.000  H
  H84      1.0000 0.58490  0.33400  0.59630  Biso   1.000  H
  H85      1.0000 0.91510  0.59630  0.66600  Biso   1.000  H
  H86      1.0000 0.08490  0.40370  0.66600  Biso   1.000  H
  H87      1.0000 0.91510  0.40370  0.33400  Biso   1.000  H
  H88      1.0000 0.08490  0.59630  0.33400  Biso   1.000  H
  H89      1.0000 0.59630  0.16600  0.41510  Biso   1.000  H
  H90      1.0000 0.40370  0.16600  0.58490  Biso   1.000  H
  H91      1.0000 0.40370  0.83400  0.41510  Biso   1.000  H
  H92      1.0000 0.59630  0.83400  0.58490  Biso   1.000  H
  H93      1.0000 0.16600  0.91510  0.09630  Biso   1.000  H
  H94      1.0000 0.16600  0.08490  0.90370  Biso   1.000  H
  H95      1.0000 0.83400  0.91510  0.90370  Biso   1.000  H
  H96      1.0000 0.83400  0.08490  0.09630  Biso   1.000  H
  N193     1.0000 0.47331  0.97537  0.18923  Biso   1.000  N
  N194     1.0000 0.52669  0.02463  0.18923  Biso   1.000  N
  N195     1.0000 0.52669  0.97537  0.81077  Biso   1.000  N
  N196     1.0000 0.47331  0.02463  0.81077  Biso   1.000  N
  N197     1.0000 0.18923  0.47331  0.97537  Biso   1.000  N
  N198     1.0000 0.18923  0.52669  0.02463  Biso   1.000  N
  N199     1.0000 0.81077  0.52669  0.97537  Biso   1.000  N
  N200     1.0000 0.81077  0.47331  0.02463  Biso   1.000  N
  N201     1.0000 0.97537  0.18923  0.47331  Biso   1.000  N
  N202     1.0000 0.02463  0.18923  0.52669  Biso   1.000  N
  N203     1.0000 0.97537  0.81077  0.52669  Biso   1.000  N
  N204     1.0000 0.02463  0.81077  0.47331  Biso   1.000  N
  N205     1.0000 0.47537  0.97331  0.68923  Biso   1.000  N
  N206     1.0000 0.52463  0.02669  0.68923  Biso   1.000  N
  N207     1.0000 0.47537  0.02669  0.31077  Biso   1.000  N
  N208     1.0000 0.52463  0.97331  0.31077  Biso   1.000  N
  N209     1.0000 0.97331  0.68923  0.47537  Biso   1.000  N
  N210     1.0000 0.02669  0.68923  0.52463  Biso   1.000  N
  N211     1.0000 0.02669  0.31077  0.47537  Biso   1.000  N
  N212     1.0000 0.97331  0.31077  0.52463  Biso   1.000  N
  N213     1.0000 0.68923  0.47537  0.97331  Biso   1.000  N
  N214     1.0000 0.68923  0.52463  0.02669  Biso   1.000  N
  N215     1.0000 0.31077  0.47537  0.02669  Biso   1.000  N
  N216     1.0000 0.31077  0.52463  0.97331  Biso   1.000  N
  N217     1.0000 0.47331  0.47537  0.68923  Biso   1.000  N
  N218     1.0000 0.52669  0.52463  0.68923  Biso   1.000  N
  N219     1.0000 0.52669  0.47537  0.31077  Biso   1.000  N
  N220     1.0000 0.47331  0.52463  0.31077  Biso   1.000  N
  N221     1.0000 0.18923  0.97331  0.47537  Biso   1.000  N
  N222     1.0000 0.18923  0.02669  0.52463  Biso   1.000  N
  N223     1.0000 0.81077  0.02669  0.47537  Biso   1.000  N
  N224     1.0000 0.81077  0.97331  0.52463  Biso   1.000  N
  N225     1.0000 0.97537  0.68923  0.97331  Biso   1.000  N
  N226     1.0000 0.02463  0.68923  0.02669  Biso   1.000  N
  N227     1.0000 0.97537  0.31077  0.02669  Biso   1.000  N
  N228     1.0000 0.02463  0.31077  0.97331  Biso   1.000  N
  N229     1.0000 0.47537  0.47331  0.18923  Biso   1.000  N
  N230     1.0000 0.52463  0.52669  0.18923  Biso   1.000  N
  N231     1.0000 0.47537  0.52669  0.81077  Biso   1.000  N
  N232     1.0000 0.52463  0.47331  0.81077  Biso   1.000  N
  N233     1.0000 0.97331  0.18923  0.97537  Biso   1.000  N
  N234     1.0000 0.02669  0.18923  0.02463  Biso   1.000  N
  N235     1.0000 0.02669  0.81077  0.97537  Biso   1.000  N
  N236     1.0000 0.97331  0.81077  0.02463  Biso   1.000  N
  N237     1.0000 0.68923  0.97537  0.47331  Biso   1.000  N
  N238     1.0000 0.68923  0.02463  0.52669  Biso   1.000  N
  N239     1.0000 0.31077  0.97537  0.52669  Biso   1.000  N
  N240     1.0000 0.31077  0.02463  0.47331  Biso   1.000  N
  N241     1.0000 0.97331  0.97537  0.68923  Biso   1.000  N
  N242     1.0000 0.02669  0.02463  0.68923  Biso   1.000  N
  N243     1.0000 0.02669  0.97537  0.31077  Biso   1.000  N
  N244     1.0000 0.97331  0.02463  0.31077  Biso   1.000  N
  N245     1.0000 0.68923  0.47331  0.47537  Biso   1.000  N
  N246     1.0000 0.68923  0.52669  0.52463  Biso   1.000  N
  N247     1.0000 0.31077  0.52669  0.47537  Biso   1.000  N
  N248     1.0000 0.31077  0.47331  0.52463  Biso   1.000  N
  N249     1.0000 0.47537  0.18923  0.97331  Biso   1.000  N
  N250     1.0000 0.52463  0.18923  0.02669  Biso   1.000  N
  N251     1.0000 0.47537  0.81077  0.02669  Biso   1.000  N
  N252     1.0000 0.52463  0.81077  0.97331  Biso   1.000  N
  N253     1.0000 0.97537  0.97331  0.18923  Biso   1.000  N
  N254     1.0000 0.02463  0.02669  0.18923  Biso   1.000  N
  N255     1.0000 0.97537  0.02669  0.81077  Biso   1.000  N
  N256     1.0000 0.02463  0.97331  0.81077  Biso   1.000  N
  N257     1.0000 0.47331  0.68923  0.97537  Biso   1.000  N
  N258     1.0000 0.52669  0.68923  0.02463  Biso   1.000  N
  N259     1.0000 0.52669  0.31077  0.97537  Biso   1.000  N
  N260     1.0000 0.47331  0.31077  0.02463  Biso   1.000  N
  N261     1.0000 0.18923  0.47537  0.47331  Biso   1.000  N
  N262     1.0000 0.18923  0.52463  0.52669  Biso   1.000  N
  N263     1.0000 0.81077  0.47537  0.52669  Biso   1.000  N
  N264     1.0000 0.81077  0.52463  0.47331  Biso   1.000  N
  N265     1.0000 0.97331  0.47537  0.18923  Biso   1.000  N
  N266     1.0000 0.02669  0.52463  0.18923  Biso   1.000  N
  N267     1.0000 0.02669  0.47537  0.81077  Biso   1.000  N
  N268     1.0000 0.97331  0.52463  0.81077  Biso   1.000  N
  N269     1.0000 0.68923  0.97331  0.97537  Biso   1.000  N
  N270     1.0000 0.68923  0.02669  0.02463  Biso   1.000  N
  N271     1.0000 0.31077  0.02669  0.97537  Biso   1.000  N
  N272     1.0000 0.31077  0.97331  0.02463  Biso   1.000  N
  N273     1.0000 0.47537  0.68923  0.47331  Biso   1.000  N
  N274     1.0000 0.52463  0.68923  0.52669  Biso   1.000  N
  N275     1.0000 0.47537  0.31077  0.52669  Biso   1.000  N
  N276     1.0000 0.52463  0.31077  0.47331  Biso   1.000  N
  N277     1.0000 0.97537  0.47331  0.68923  Biso   1.000  N
  N278     1.0000 0.02463  0.52669  0.68923  Biso   1.000  N
  N279     1.0000 0.97537  0.52669  0.31077  Biso   1.000  N
  N280     1.0000 0.02463  0.47331  0.31077  Biso   1.000  N
  N281     1.0000 0.47331  0.18923  0.47537  Biso   1.000  N
  N282     1.0000 0.52669  0.18923  0.52463  Biso   1.000  N
  N283     1.0000 0.52669  0.81077  0.47537  Biso   1.000  N
  N284     1.0000 0.47331  0.81077  0.52463  Biso   1.000  N
  N285     1.0000 0.18923  0.97537  0.97331  Biso   1.000  N
  N286     1.0000 0.18923  0.02463  0.02669  Biso   1.000  N
  N287     1.0000 0.81077  0.97537  0.02669  Biso   1.000  N
  N288     1.0000 0.81077  0.02463  0.97331  Biso   1.000  N
  N289     1.0000 0.41052  0.91433  0.16650  Biso   1.000  N
  N290     1.0000 0.58948  0.08567  0.16650  Biso   1.000  N
  N291     1.0000 0.58948  0.91433  0.83350  Biso   1.000  N
  N292     1.0000 0.41052  0.08567  0.83350  Biso   1.000  N
  N293     1.0000 0.16650  0.41052  0.91433  Biso   1.000  N
  N294     1.0000 0.16650  0.58948  0.08567  Biso   1.000  N
  N295     1.0000 0.83350  0.58948  0.91433  Biso   1.000  N
  N296     1.0000 0.83350  0.41052  0.08567  Biso   1.000  N
  N297     1.0000 0.91433  0.16650  0.41052  Biso   1.000  N
  N298     1.0000 0.08567  0.16650  0.58948  Biso   1.000  N
  N299     1.0000 0.91433  0.83350  0.58948  Biso   1.000  N
  N300     1.0000 0.08567  0.83350  0.41052  Biso   1.000  N
  N301     1.0000 0.41433  0.91052  0.66650  Biso   1.000  N
  N302     1.0000 0.58567  0.08948  0.66650  Biso   1.000  N
  N303     1.0000 0.41433  0.08948  0.33350  Biso   1.000  N
  N304     1.0000 0.58567  0.91052  0.33350  Biso   1.000  N
  N305     1.0000 0.91052  0.66650  0.41433  Biso   1.000  N
  N306     1.0000 0.08948  0.66650  0.58567  Biso   1.000  N
  N307     1.0000 0.08948  0.33350  0.41433  Biso   1.000  N
  N308     1.0000 0.91052  0.33350  0.58567  Biso   1.000  N
  N309     1.0000 0.66650  0.41433  0.91052  Biso   1.000  N
  N310     1.0000 0.66650  0.58567  0.08948  Biso   1.000  N
  N311     1.0000 0.33350  0.41433  0.08948  Biso   1.000  N
  N312     1.0000 0.33350  0.58567  0.91052  Biso   1.000  N
  N313     1.0000 0.41052  0.41433  0.66650  Biso   1.000  N
  N314     1.0000 0.58948  0.58567  0.66650  Biso   1.000  N
  N315     1.0000 0.58948  0.41433  0.33350  Biso   1.000  N
  N316     1.0000 0.41052  0.58567  0.33350  Biso   1.000  N
  N317     1.0000 0.16650  0.91052  0.41433  Biso   1.000  N
  N318     1.0000 0.16650  0.08948  0.58567  Biso   1.000  N
  N319     1.0000 0.83350  0.08948  0.41433  Biso   1.000  N
  N320     1.0000 0.83350  0.91052  0.58567  Biso   1.000  N
  N321     1.0000 0.91433  0.66650  0.91052  Biso   1.000  N
  N322     1.0000 0.08567  0.66650  0.08948  Biso   1.000  N
  N323     1.0000 0.91433  0.33350  0.08948  Biso   1.000  N
  N324     1.0000 0.08567  0.33350  0.91052  Biso   1.000  N
  N325     1.0000 0.41433  0.41052  0.16650  Biso   1.000  N
  N326     1.0000 0.58567  0.58948  0.16650  Biso   1.000  N
  N327     1.0000 0.41433  0.58948  0.83350  Biso   1.000  N
  N328     1.0000 0.58567  0.41052  0.83350  Biso   1.000  N
  N329     1.0000 0.91052  0.16650  0.91433  Biso   1.000  N
  N330     1.0000 0.08948  0.16650  0.08567  Biso   1.000  N
  N331     1.0000 0.08948  0.83350  0.91433  Biso   1.000  N
  N332     1.0000 0.91052  0.83350  0.08567  Biso   1.000  N
  N333     1.0000 0.66650  0.91433  0.41052  Biso   1.000  N
  N334     1.0000 0.66650  0.08567  0.58948  Biso   1.000  N
  N335     1.0000 0.33350  0.91433  0.58948  Biso   1.000  N
  N336     1.0000 0.33350  0.08567  0.41052  Biso   1.000  N
  N337     1.0000 0.91052  0.91433  0.66650  Biso   1.000  N
  N338     1.0000 0.08948  0.08567  0.66650  Biso   1.000  N
  N339     1.0000 0.08948  0.91433  0.33350  Biso   1.000  N
  N340     1.0000 0.91052  0.08567  0.33350  Biso   1.000  N
  N341     1.0000 0.66650  0.41052  0.41433  Biso   1.000  N
  N342     1.0000 0.66650  0.58948  0.58567  Biso   1.000  N
  N343     1.0000 0.33350  0.58948  0.41433  Biso   1.000  N
  N344     1.0000 0.33350  0.41052  0.58567  Biso   1.000  N
  N345     1.0000 0.41433  0.16650  0.91052  Biso   1.000  N
  N346     1.0000 0.58567  0.16650  0.08948  Biso   1.000  N
  N347     1.0000 0.41433  0.83350  0.08948  Biso   1.000  N
  N348     1.0000 0.58567  0.83350  0.91052  Biso   1.000  N
  N349     1.0000 0.91433  0.91052  0.16650  Biso   1.000  N
  N350     1.0000 0.08567  0.08948  0.16650  Biso   1.000  N
  N351     1.0000 0.91433  0.08948  0.83350  Biso   1.000  N
  N352     1.0000 0.08567  0.91052  0.83350  Biso   1.000  N
  N353     1.0000 0.41052  0.66650  0.91433  Biso   1.000  N
  N354     1.0000 0.58948  0.66650  0.08567  Biso   1.000  N
  N355     1.0000 0.58948  0.33350  0.91433  Biso   1.000  N
  N356     1.0000 0.41052  0.33350  0.08567  Biso   1.000  N
  N357     1.0000 0.16650  0.41433  0.41052  Biso   1.000  N
  N358     1.0000 0.16650  0.58567  0.58948  Biso   1.000  N
  N359     1.0000 0.83350  0.41433  0.58948  Biso   1.000  N
  N360     1.0000 0.83350  0.58567  0.41052  Biso   1.000  N
  N361     1.0000 0.91052  0.41433  0.16650  Biso   1.000  N
  N362     1.0000 0.08948  0.58567  0.16650  Biso   1.000  N
  N363     1.0000 0.08948  0.41433  0.83350  Biso   1.000  N
  N364     1.0000 0.91052  0.58567  0.83350  Biso   1.000  N
  N365     1.0000 0.66650  0.91052  0.91433  Biso   1.000  N
  N366     1.0000 0.66650  0.08948  0.08567  Biso   1.000  N
  N367     1.0000 0.33350  0.08948  0.91433  Biso   1.000  N
  N368     1.0000 0.33350  0.91052  0.08567  Biso   1.000  N
  N369     1.0000 0.41433  0.66650  0.41052  Biso   1.000  N
  N370     1.0000 0.58567  0.66650  0.58948  Biso   1.000  N
  N371     1.0000 0.41433  0.33350  0.58948  Biso   1.000  N
  N372     1.0000 0.58567  0.33350  0.41052  Biso   1.000  N
  N373     1.0000 0.91433  0.41052  0.66650  Biso   1.000  N
  N374     1.0000 0.08567  0.58948  0.66650  Biso   1.000  N
  N375     1.0000 0.91433  0.58948  0.33350  Biso   1.000  N
  N376     1.0000 0.08567  0.41052  0.33350  Biso   1.000  N
  N377     1.0000 0.41052  0.16650  0.41433  Biso   1.000  N
  N378     1.0000 0.58948  0.16650  0.58567  Biso   1.000  N
  N379     1.0000 0.58948  0.83350  0.41433  Biso   1.000  N
  N380     1.0000 0.41052  0.83350  0.58567  Biso   1.000  N
  N381     1.0000 0.16650  0.91433  0.91052  Biso   1.000  N
  N382     1.0000 0.16650  0.08567  0.08948  Biso   1.000  N
  N383     1.0000 0.83350  0.91433  0.08948  Biso   1.000  N
  N384     1.0000 0.83350  0.08567  0.91052  Biso   1.000  N
  H97      1.0000 0.39560  0.91890  0.16450  Biso   1.000  H
  H98      1.0000 0.60440  0.08110  0.16450  Biso   1.000  H
  H99      1.0000 0.60440  0.91890  0.83550  Biso   1.000  H
  H100     1.0000 0.39560  0.08110  0.83550  Biso   1.000  H
  H101     1.0000 0.16450  0.39560  0.91890  Biso   1.000  H
  H102     1.0000 0.16450  0.60440  0.08110  Biso   1.000  H
  H103     1.0000 0.83550  0.60440  0.91890  Biso   1.000  H
  H104     1.0000 0.83550  0.39560  0.08110  Biso   1.000  H
  H105     1.0000 0.91890  0.16450  0.39560  Biso   1.000  H
  H106     1.0000 0.08110  0.16450  0.60440  Biso   1.000  H
  H107     1.0000 0.91890  0.83550  0.60440  Biso   1.000  H
  H108     1.0000 0.08110  0.83550  0.39560  Biso   1.000  H
  H109     1.0000 0.41890  0.89560  0.66450  Biso   1.000  H
  H110     1.0000 0.58110  0.10440  0.66450  Biso   1.000  H
  H111     1.0000 0.41890  0.10440  0.33550  Biso   1.000  H
  H112     1.0000 0.58110  0.89560  0.33550  Biso   1.000  H
  H113     1.0000 0.89560  0.66450  0.41890  Biso   1.000  H
  H114     1.0000 0.10440  0.66450  0.58110  Biso   1.000  H
  H115     1.0000 0.10440  0.33550  0.41890  Biso   1.000  H
  H116     1.0000 0.89560  0.33550  0.58110  Biso   1.000  H
  H117     1.0000 0.66450  0.41890  0.89560  Biso   1.000  H
  H118     1.0000 0.66450  0.58110  0.10440  Biso   1.000  H
  H119     1.0000 0.33550  0.41890  0.10440  Biso   1.000  H
  H120     1.0000 0.33550  0.58110  0.89560  Biso   1.000  H
  H121     1.0000 0.39560  0.41890  0.66450  Biso   1.000  H
  H122     1.0000 0.60440  0.58110  0.66450  Biso   1.000  H
  H123     1.0000 0.60440  0.41890  0.33550  Biso   1.000  H
  H124     1.0000 0.39560  0.58110  0.33550  Biso   1.000  H
  H125     1.0000 0.16450  0.89560  0.41890  Biso   1.000  H
  H126     1.0000 0.16450  0.10440  0.58110  Biso   1.000  H
  H127     1.0000 0.83550  0.10440  0.41890  Biso   1.000  H
  H128     1.0000 0.83550  0.89560  0.58110  Biso   1.000  H
  H129     1.0000 0.91890  0.66450  0.89560  Biso   1.000  H
  H130     1.0000 0.08110  0.66450  0.10440  Biso   1.000  H
  H131     1.0000 0.91890  0.33550  0.10440  Biso   1.000  H
  H132     1.0000 0.08110  0.33550  0.89560  Biso   1.000  H
  H133     1.0000 0.41890  0.39560  0.16450  Biso   1.000  H
  H134     1.0000 0.58110  0.60440  0.16450  Biso   1.000  H
  H135     1.0000 0.41890  0.60440  0.83550  Biso   1.000  H
  H136     1.0000 0.58110  0.39560  0.83550  Biso   1.000  H
  H137     1.0000 0.89560  0.16450  0.91890  Biso   1.000  H
  H138     1.0000 0.10440  0.16450  0.08110  Biso   1.000  H
  H139     1.0000 0.10440  0.83550  0.91890  Biso   1.000  H
  H140     1.0000 0.89560  0.83550  0.08110  Biso   1.000  H
  H141     1.0000 0.66450  0.91890  0.39560  Biso   1.000  H
  H142     1.0000 0.66450  0.08110  0.60440  Biso   1.000  H
  H143     1.0000 0.33550  0.91890  0.60440  Biso   1.000  H
  H144     1.0000 0.33550  0.08110  0.39560  Biso   1.000  H
  H145     1.0000 0.89560  0.91890  0.66450  Biso   1.000  H
  H146     1.0000 0.10440  0.08110  0.66450  Biso   1.000  H
  H147     1.0000 0.10440  0.91890  0.33550  Biso   1.000  H
  H148     1.0000 0.89560  0.08110  0.33550  Biso   1.000  H
  H149     1.0000 0.66450  0.39560  0.41890  Biso   1.000  H
  H150     1.0000 0.66450  0.60440  0.58110  Biso   1.000  H
  H151     1.0000 0.33550  0.60440  0.41890  Biso   1.000  H
  H152     1.0000 0.33550  0.39560  0.58110  Biso   1.000  H
  H153     1.0000 0.41890  0.16450  0.89560  Biso   1.000  H
  H154     1.0000 0.58110  0.16450  0.10440  Biso   1.000  H
  H155     1.0000 0.41890  0.83550  0.10440  Biso   1.000  H
  H156     1.0000 0.58110  0.83550  0.89560  Biso   1.000  H
  H157     1.0000 0.91890  0.89560  0.16450  Biso   1.000  H
  H158     1.0000 0.08110  0.10440  0.16450  Biso   1.000  H
  H159     1.0000 0.91890  0.10440  0.83550  Biso   1.000  H
  H160     1.0000 0.08110  0.89560  0.83550  Biso   1.000  H
  H161     1.0000 0.39560  0.66450  0.91890  Biso   1.000  H
  H162     1.0000 0.60440  0.66450  0.08110  Biso   1.000  H
  H163     1.0000 0.60440  0.33550  0.91890  Biso   1.000  H
  H164     1.0000 0.39560  0.33550  0.08110  Biso   1.000  H
  H165     1.0000 0.16450  0.41890  0.39560  Biso   1.000  H
  H166     1.0000 0.16450  0.58110  0.60440  Biso   1.000  H
  H167     1.0000 0.83550  0.41890  0.60440  Biso   1.000  H
  H168     1.0000 0.83550  0.58110  0.39560  Biso   1.000  H
  H169     1.0000 0.89560  0.41890  0.16450  Biso   1.000  H
  H170     1.0000 0.10440  0.58110  0.16450  Biso   1.000  H
  H171     1.0000 0.10440  0.41890  0.83550  Biso   1.000  H
  H172     1.0000 0.89560  0.58110  0.83550  Biso   1.000  H
  H173     1.0000 0.66450  0.89560  0.91890  Biso   1.000  H
  H174     1.0000 0.66450  0.10440  0.08110  Biso   1.000  H
  H175     1.0000 0.33550  0.10440  0.91890  Biso   1.000  H
  H176     1.0000 0.33550  0.89560  0.08110  Biso   1.000  H
  H177     1.0000 0.41890  0.66450  0.39560  Biso   1.000  H
  H178     1.0000 0.58110  0.66450  0.60440  Biso   1.000  H
  H179     1.0000 0.41890  0.33550  0.60440  Biso   1.000  H
  H180     1.0000 0.58110  0.33550  0.39560  Biso   1.000  H
  H181     1.0000 0.91890  0.39560  0.66450  Biso   1.000  H
  H182     1.0000 0.08110  0.60440  0.66450  Biso   1.000  H
  H183     1.0000 0.91890  0.60440  0.33550  Biso   1.000  H
  H184     1.0000 0.08110  0.39560  0.33550  Biso   1.000  H
  H185     1.0000 0.39560  0.16450  0.41890  Biso   1.000  H
  H186     1.0000 0.60440  0.16450  0.58110  Biso   1.000  H
  H187     1.0000 0.60440  0.83550  0.41890  Biso   1.000  H
  H188     1.0000 0.39560  0.83550  0.58110  Biso   1.000  H
  H189     1.0000 0.16450  0.91890  0.89560  Biso   1.000  H
  H190     1.0000 0.16450  0.08110  0.10440  Biso   1.000  H
  H191     1.0000 0.83550  0.91890  0.10440  Biso   1.000  H
  H192     1.0000 0.83550  0.08110  0.89560  Biso   1.000  H
  O193     1.0000 0.50000  0.00000  0.14365  Biso   1.000  O
  O194     1.0000 0.50000  0.00000  0.85635  Biso   1.000  O
  O195     1.0000 0.14365  0.50000  0.00000  Biso   1.000  O
  O196     1.0000 0.85635  0.50000  0.00000  Biso   1.000  O
  O197     1.0000 0.00000  0.14365  0.50000  Biso   1.000  O
  O198     1.0000 0.00000  0.85635  0.50000  Biso   1.000  O
  O199     1.0000 0.50000  0.00000  0.64365  Biso   1.000  O
  O200     1.0000 0.50000  0.00000  0.35635  Biso   1.000  O
  O201     1.0000 0.00000  0.64365  0.50000  Biso   1.000  O
  O202     1.0000 0.00000  0.35635  0.50000  Biso   1.000  O
  O203     1.0000 0.64365  0.50000  0.00000  Biso   1.000  O
  O204     1.0000 0.35635  0.50000  0.00000  Biso   1.000  O
  O205     1.0000 0.50000  0.50000  0.64365  Biso   1.000  O
  O206     1.0000 0.50000  0.50000  0.35635  Biso   1.000  O
  O207     1.0000 0.14365  0.00000  0.50000  Biso   1.000  O
  O208     1.0000 0.85635  0.00000  0.50000  Biso   1.000  O
  O209     1.0000 0.00000  0.64365  0.00000  Biso   1.000  O
  O210     1.0000 0.00000  0.35635  0.00000  Biso   1.000  O
  O211     1.0000 0.50000  0.50000  0.14365  Biso   1.000  O
  O212     1.0000 0.50000  0.50000  0.85635  Biso   1.000  O
  O213     1.0000 0.00000  0.14365  0.00000  Biso   1.000  O
  O214     1.0000 0.00000  0.85635  0.00000  Biso   1.000  O
  O215     1.0000 0.64365  0.00000  0.50000  Biso   1.000  O
  O216     1.0000 0.35635  0.00000  0.50000  Biso   1.000  O
  O217     1.0000 0.00000  0.00000  0.64365  Biso   1.000  O
  O218     1.0000 0.00000  0.00000  0.35635  Biso   1.000  O
  O219     1.0000 0.64365  0.50000  0.50000  Biso   1.000  O
  O220     1.0000 0.35635  0.50000  0.50000  Biso   1.000  O
  O221     1.0000 0.50000  0.14365  0.00000  Biso   1.000  O
  O222     1.0000 0.50000  0.85635  0.00000  Biso   1.000  O
  O223     1.0000 0.00000  0.00000  0.14365  Biso   1.000  O
  O224     1.0000 0.00000  0.00000  0.85635  Biso   1.000  O
  O225     1.0000 0.50000  0.64365  0.00000  Biso   1.000  O
  O226     1.0000 0.50000  0.35635  0.00000  Biso   1.000  O
  O227     1.0000 0.14365  0.50000  0.50000  Biso   1.000  O
  O228     1.0000 0.85635  0.50000  0.50000  Biso   1.000  O
  O229     1.0000 0.00000  0.50000  0.14365  Biso   1.000  O
  O230     1.0000 0.00000  0.50000  0.85635  Biso   1.000  O
  O231     1.0000 0.64365  0.00000  0.00000  Biso   1.000  O
  O232     1.0000 0.35635  0.00000  0.00000  Biso   1.000  O
  O233     1.0000 0.50000  0.64365  0.50000  Biso   1.000  O
  O234     1.0000 0.50000  0.35635  0.50000  Biso   1.000  O
  O235     1.0000 0.00000  0.50000  0.64365  Biso   1.000  O
  O236     1.0000 0.00000  0.50000  0.35635  Biso   1.000  O
  O237     1.0000 0.50000  0.14365  0.50000  Biso   1.000  O
  O238     1.0000 0.50000  0.85635  0.50000  Biso   1.000  O
  O239     1.0000 0.14365  0.00000  0.00000  Biso   1.000  O
  O240     1.0000 0.85635  0.00000  0.00000  Biso   1.000  O
  N385     1.0000 0.50000  0.00000  0.25000  Biso   1.000  N
  N386     1.0000 0.50000  0.00000  0.75000  Biso   1.000  N
  N387     1.0000 0.25000  0.50000  0.00000  Biso   1.000  N
  N388     1.0000 0.75000  0.50000  0.00000  Biso   1.000  N
  N389     1.0000 0.00000  0.25000  0.50000  Biso   1.000  N
  N390     1.0000 0.00000  0.75000  0.50000  Biso   1.000  N
  N391     1.0000 0.50000  0.50000  0.75000  Biso   1.000  N
  N392     1.0000 0.50000  0.50000  0.25000  Biso   1.000  N
  N393     1.0000 0.25000  0.00000  0.50000  Biso   1.000  N
  N394     1.0000 0.75000  0.00000  0.50000  Biso   1.000  N
  N395     1.0000 0.00000  0.75000  0.00000  Biso   1.000  N
  N396     1.0000 0.00000  0.25000  0.00000  Biso   1.000  N
  N397     1.0000 0.00000  0.00000  0.75000  Biso   1.000  N
  N398     1.0000 0.00000  0.00000  0.25000  Biso   1.000  N
  N399     1.0000 0.75000  0.50000  0.50000  Biso   1.000  N
  N400     1.0000 0.25000  0.50000  0.50000  Biso   1.000  N
  N401     1.0000 0.50000  0.25000  0.00000  Biso   1.000  N
  N402     1.0000 0.50000  0.75000  0.00000  Biso   1.000  N
  N403     1.0000 0.00000  0.50000  0.25000  Biso   1.000  N
  N404     1.0000 0.00000  0.50000  0.75000  Biso   1.000  N
  N405     1.0000 0.75000  0.00000  0.00000  Biso   1.000  N
  N406     1.0000 0.25000  0.00000  0.00000  Biso   1.000  N
  N407     1.0000 0.50000  0.75000  0.50000  Biso   1.000  N
  N408     1.0000 0.50000  0.25000  0.50000  Biso   1.000  N
  O241     1.0000 0.50000  0.00000  0.23067  Biso   1.000  O
  O242     1.0000 0.50000  0.00000  0.76933  Biso   1.000  O
  O243     1.0000 0.23067  0.50000  0.00000  Biso   1.000  O
  O244     1.0000 0.76933  0.50000  0.00000  Biso   1.000  O
  O245     1.0000 0.00000  0.23067  0.50000  Biso   1.000  O
  O246     1.0000 0.00000  0.76933  0.50000  Biso   1.000  O
  O247     1.0000 0.50000  0.00000  0.73067  Biso   1.000  O
  O248     1.0000 0.50000  0.00000  0.26933  Biso   1.000  O
  O249     1.0000 0.00000  0.73067  0.50000  Biso   1.000  O
  O250     1.0000 0.00000  0.26933  0.50000  Biso   1.000  O
  O251     1.0000 0.73067  0.50000  0.00000  Biso   1.000  O
  O252     1.0000 0.26933  0.50000  0.00000  Biso   1.000  O
  O253     1.0000 0.50000  0.50000  0.73067  Biso   1.000  O
  O254     1.0000 0.50000  0.50000  0.26933  Biso   1.000  O
  O255     1.0000 0.23067  0.00000  0.50000  Biso   1.000  O
  O256     1.0000 0.76933  0.00000  0.50000  Biso   1.000  O
  O257     1.0000 0.00000  0.73067  0.00000  Biso   1.000  O
  O258     1.0000 0.00000  0.26933  0.00000  Biso   1.000  O
  O259     1.0000 0.50000  0.50000  0.23067  Biso   1.000  O
  O260     1.0000 0.50000  0.50000  0.76933  Biso   1.000  O
  O261     1.0000 0.00000  0.23067  0.00000  Biso   1.000  O
  O262     1.0000 0.00000  0.76933  0.00000  Biso   1.000  O
  O263     1.0000 0.73067  0.00000  0.50000  Biso   1.000  O
  O264     1.0000 0.26933  0.00000  0.50000  Biso   1.000  O
  O265     1.0000 0.00000  0.00000  0.73067  Biso   1.000  O
  O266     1.0000 0.00000  0.00000  0.26933  Biso   1.000  O
  O267     1.0000 0.73067  0.50000  0.50000  Biso   1.000  O
  O268     1.0000 0.26933  0.50000  0.50000  Biso   1.000  O
  O269     1.0000 0.50000  0.23067  0.00000  Biso   1.000  O
  O270     1.0000 0.50000  0.76933  0.00000  Biso   1.000  O
  O271     1.0000 0.00000  0.00000  0.23067  Biso   1.000  O
  O272     1.0000 0.00000  0.00000  0.76933  Biso   1.000  O
  O273     1.0000 0.50000  0.73067  0.00000  Biso   1.000  O
  O274     1.0000 0.50000  0.26933  0.00000  Biso   1.000  O
  O275     1.0000 0.23067  0.50000  0.50000  Biso   1.000  O
  O276     1.0000 0.76933  0.50000  0.50000  Biso   1.000  O
  O277     1.0000 0.00000  0.50000  0.23067  Biso   1.000  O
  O278     1.0000 0.00000  0.50000  0.76933  Biso   1.000  O
  O279     1.0000 0.73067  0.00000  0.00000  Biso   1.000  O
  O280     1.0000 0.26933  0.00000  0.00000  Biso   1.000  O
  O281     1.0000 0.50000  0.73067  0.50000  Biso   1.000  O
  O282     1.0000 0.50000  0.26933  0.50000  Biso   1.000  O
  O283     1.0000 0.00000  0.50000  0.73067  Biso   1.000  O
  O284     1.0000 0.00000  0.50000  0.26933  Biso   1.000  O
  O285     1.0000 0.50000  0.23067  0.50000  Biso   1.000  O
  O286     1.0000 0.50000  0.76933  0.50000  Biso   1.000  O
  O287     1.0000 0.23067  0.00000  0.00000  Biso   1.000  O
  O288     1.0000 0.76933  0.00000  0.00000  Biso   1.000  O
  O289     1.0000 0.53050  0.00736  0.24902  Biso   1.000  O
  O290     1.0000 0.46950  0.99264  0.24902  Biso   1.000  O
  O291     1.0000 0.46950  0.00736  0.75098  Biso   1.000  O
  O292     1.0000 0.53050  0.99264  0.75098  Biso   1.000  O
  O293     1.0000 0.24902  0.53050  0.00736  Biso   1.000  O
  O294     1.0000 0.24902  0.46950  0.99264  Biso   1.000  O
  O295     1.0000 0.75098  0.46950  0.00736  Biso   1.000  O
  O296     1.0000 0.75098  0.53050  0.99264  Biso   1.000  O
  O297     1.0000 0.00736  0.24902  0.53050  Biso   1.000  O
  O298     1.0000 0.99264  0.24902  0.46950  Biso   1.000  O
  O299     1.0000 0.00736  0.75098  0.46950  Biso   1.000  O
  O300     1.0000 0.99264  0.75098  0.53050  Biso   1.000  O
  O301     1.0000 0.50736  0.03050  0.74902  Biso   1.000  O
  O302     1.0000 0.49264  0.96950  0.74902  Biso   1.000  O
  O303     1.0000 0.50736  0.96950  0.25098  Biso   1.000  O
  O304     1.0000 0.49264  0.03050  0.25098  Biso   1.000  O
  O305     1.0000 0.03050  0.74902  0.50736  Biso   1.000  O
  O306     1.0000 0.96950  0.74902  0.49264  Biso   1.000  O
  O307     1.0000 0.96950  0.25098  0.50736  Biso   1.000  O
  O308     1.0000 0.03050  0.25098  0.49264  Biso   1.000  O
  O309     1.0000 0.74902  0.50736  0.03050  Biso   1.000  O
  O310     1.0000 0.74902  0.49264  0.96950  Biso   1.000  O
  O311     1.0000 0.25098  0.50736  0.96950  Biso   1.000  O
  O312     1.0000 0.25098  0.49264  0.03050  Biso   1.000  O
  O313     1.0000 0.53050  0.50736  0.74902  Biso   1.000  O
  O314     1.0000 0.46950  0.49264  0.74902  Biso   1.000  O
  O315     1.0000 0.46950  0.50736  0.25098  Biso   1.000  O
  O316     1.0000 0.53050  0.49264  0.25098  Biso   1.000  O
  O317     1.0000 0.24902  0.03050  0.50736  Biso   1.000  O
  O318     1.0000 0.24902  0.96950  0.49264  Biso   1.000  O
  O319     1.0000 0.75098  0.96950  0.50736  Biso   1.000  O
  O320     1.0000 0.75098  0.03050  0.49264  Biso   1.000  O
  O321     1.0000 0.00736  0.74902  0.03050  Biso   1.000  O
  O322     1.0000 0.99264  0.74902  0.96950  Biso   1.000  O
  O323     1.0000 0.00736  0.25098  0.96950  Biso   1.000  O
  O324     1.0000 0.99264  0.25098  0.03050  Biso   1.000  O
  O325     1.0000 0.50736  0.53050  0.24902  Biso   1.000  O
  O326     1.0000 0.49264  0.46950  0.24902  Biso   1.000  O
  O327     1.0000 0.50736  0.46950  0.75098  Biso   1.000  O
  O328     1.0000 0.49264  0.53050  0.75098  Biso   1.000  O
  O329     1.0000 0.03050  0.24902  0.00736  Biso   1.000  O
  O330     1.0000 0.96950  0.24902  0.99264  Biso   1.000  O
  O331     1.0000 0.96950  0.75098  0.00736  Biso   1.000  O
  O332     1.0000 0.03050  0.75098  0.99264  Biso   1.000  O
  O333     1.0000 0.74902  0.00736  0.53050  Biso   1.000  O
  O334     1.0000 0.74902  0.99264  0.46950  Biso   1.000  O
  O335     1.0000 0.25098  0.00736  0.46950  Biso   1.000  O
  O336     1.0000 0.25098  0.99264  0.53050  Biso   1.000  O
  O337     1.0000 0.03050  0.00736  0.74902  Biso   1.000  O
  O338     1.0000 0.96950  0.99264  0.74902  Biso   1.000  O
  O339     1.0000 0.96950  0.00736  0.25098  Biso   1.000  O
  O340     1.0000 0.03050  0.99264  0.25098  Biso   1.000  O
  O341     1.0000 0.74902  0.53050  0.50736  Biso   1.000  O
  O342     1.0000 0.74902  0.46950  0.49264  Biso   1.000  O
  O343     1.0000 0.25098  0.46950  0.50736  Biso   1.000  O
  O344     1.0000 0.25098  0.53050  0.49264  Biso   1.000  O
  O345     1.0000 0.50736  0.24902  0.03050  Biso   1.000  O
  O346     1.0000 0.49264  0.24902  0.96950  Biso   1.000  O
  O347     1.0000 0.50736  0.75098  0.96950  Biso   1.000  O
  O348     1.0000 0.49264  0.75098  0.03050  Biso   1.000  O
  O349     1.0000 0.00736  0.03050  0.24902  Biso   1.000  O
  O350     1.0000 0.99264  0.96950  0.24902  Biso   1.000  O
  O351     1.0000 0.00736  0.96950  0.75098  Biso   1.000  O
  O352     1.0000 0.99264  0.03050  0.75098  Biso   1.000  O
  O353     1.0000 0.53050  0.74902  0.00736  Biso   1.000  O
  O354     1.0000 0.46950  0.74902  0.99264  Biso   1.000  O
  O355     1.0000 0.46950  0.25098  0.00736  Biso   1.000  O
  O356     1.0000 0.53050  0.25098  0.99264  Biso   1.000  O
  O357     1.0000 0.24902  0.50736  0.53050  Biso   1.000  O
  O358     1.0000 0.24902  0.49264  0.46950  Biso   1.000  O
  O359     1.0000 0.75098  0.50736  0.46950  Biso   1.000  O
  O360     1.0000 0.75098  0.49264  0.53050  Biso   1.000  O
  O361     1.0000 0.03050  0.50736  0.24902  Biso   1.000  O
  O362     1.0000 0.96950  0.49264  0.24902  Biso   1.000  O
  O363     1.0000 0.96950  0.50736  0.75098  Biso   1.000  O
  O364     1.0000 0.03050  0.49264  0.75098  Biso   1.000  O
  O365     1.0000 0.74902  0.03050  0.00736  Biso   1.000  O
  O366     1.0000 0.74902  0.96950  0.99264  Biso   1.000  O
  O367     1.0000 0.25098  0.96950  0.00736  Biso   1.000  O
  O368     1.0000 0.25098  0.03050  0.99264  Biso   1.000  O
  O369     1.0000 0.50736  0.74902  0.53050  Biso   1.000  O
  O370     1.0000 0.49264  0.74902  0.46950  Biso   1.000  O
  O371     1.0000 0.50736  0.25098  0.46950  Biso   1.000  O
  O372     1.0000 0.49264  0.25098  0.53050  Biso   1.000  O
  O373     1.0000 0.00736  0.53050  0.74902  Biso   1.000  O
  O374     1.0000 0.99264  0.46950  0.74902  Biso   1.000  O
  O375     1.0000 0.00736  0.46950  0.25098  Biso   1.000  O
  O376     1.0000 0.99264  0.53050  0.25098  Biso   1.000  O
  O377     1.0000 0.53050  0.24902  0.50736  Biso   1.000  O
  O378     1.0000 0.46950  0.24902  0.49264  Biso   1.000  O
  O379     1.0000 0.46950  0.75098  0.50736  Biso   1.000  O
  O380     1.0000 0.53050  0.75098  0.49264  Biso   1.000  O
  O381     1.0000 0.24902  0.00736  0.03050  Biso   1.000  O
  O382     1.0000 0.24902  0.99264  0.96950  Biso   1.000  O
  O383     1.0000 0.75098  0.00736  0.96950  Biso   1.000  O
  O384     1.0000 0.75098  0.99264  0.03050  Biso   1.000  O
  C1       1.0000 0.53997  0.96995  0.20352  Biso   1.000  C
  C2       1.0000 0.46003  0.03005  0.20352  Biso   1.000  C
  C3       1.0000 0.46003  0.96995  0.79648  Biso   1.000  C
  C4       1.0000 0.53997  0.03005  0.79648  Biso   1.000  C
  C5       1.0000 0.20352  0.53997  0.96995  Biso   1.000  C
  C6       1.0000 0.20352  0.46003  0.03005  Biso   1.000  C
  C7       1.0000 0.79648  0.46003  0.96995  Biso   1.000  C
  C8       1.0000 0.79648  0.53997  0.03005  Biso   1.000  C
  C9       1.0000 0.96995  0.20352  0.53997  Biso   1.000  C
  C10      1.0000 0.03005  0.20352  0.46003  Biso   1.000  C
  C11      1.0000 0.96995  0.79648  0.46003  Biso   1.000  C
  C12      1.0000 0.03005  0.79648  0.53997  Biso   1.000  C
  C13      1.0000 0.46995  0.03997  0.70352  Biso   1.000  C
  C14      1.0000 0.53005  0.96003  0.70352  Biso   1.000  C
  C15      1.0000 0.46995  0.96003  0.29648  Biso   1.000  C
  C16      1.0000 0.53005  0.03997  0.29648  Biso   1.000  C
  C17      1.0000 0.03997  0.70352  0.46995  Biso   1.000  C
  C18      1.0000 0.96003  0.70352  0.53005  Biso   1.000  C
  C19      1.0000 0.96003  0.29648  0.46995  Biso   1.000  C
  C20      1.0000 0.03997  0.29648  0.53005  Biso   1.000  C
  C21      1.0000 0.70352  0.46995  0.03997  Biso   1.000  C
  C22      1.0000 0.70352  0.53005  0.96003  Biso   1.000  C
  C23      1.0000 0.29648  0.46995  0.96003  Biso   1.000  C
  C24      1.0000 0.29648  0.53005  0.03997  Biso   1.000  C
  C25      1.0000 0.53997  0.46995  0.70352  Biso   1.000  C
  C26      1.0000 0.46003  0.53005  0.70352  Biso   1.000  C
  C27      1.0000 0.46003  0.46995  0.29648  Biso   1.000  C
  C28      1.0000 0.53997  0.53005  0.29648  Biso   1.000  C
  C29      1.0000 0.20352  0.03997  0.46995  Biso   1.000  C
  C30      1.0000 0.20352  0.96003  0.53005  Biso   1.000  C
  C31      1.0000 0.79648  0.96003  0.46995  Biso   1.000  C
  C32      1.0000 0.79648  0.03997  0.53005  Biso   1.000  C
  C33      1.0000 0.96995  0.70352  0.03997  Biso   1.000  C
  C34      1.0000 0.03005  0.70352  0.96003  Biso   1.000  C
  C35      1.0000 0.96995  0.29648  0.96003  Biso   1.000  C
  C36      1.0000 0.03005  0.29648  0.03997  Biso   1.000  C
  C37      1.0000 0.46995  0.53997  0.20352  Biso   1.000  C
  C38      1.0000 0.53005  0.46003  0.20352  Biso   1.000  C
  C39      1.0000 0.46995  0.46003  0.79648  Biso   1.000  C
  C40      1.0000 0.53005  0.53997  0.79648  Biso   1.000  C
  C41      1.0000 0.03997  0.20352  0.96995  Biso   1.000  C
  C42      1.0000 0.96003  0.20352  0.03005  Biso   1.000  C
  C43      1.0000 0.96003  0.79648  0.96995  Biso   1.000  C
  C44      1.0000 0.03997  0.79648  0.03005  Biso   1.000  C
  C45      1.0000 0.70352  0.96995  0.53997  Biso   1.000  C
  C46      1.0000 0.70352  0.03005  0.46003  Biso   1.000  C
  C47      1.0000 0.29648  0.96995  0.46003  Biso   1.000  C
  C48      1.0000 0.29648  0.03005  0.53997  Biso   1.000  C
  C49      1.0000 0.03997  0.96995  0.70352  Biso   1.000  C
  C50      1.0000 0.96003  0.03005  0.70352  Biso   1.000  C
  C51      1.0000 0.96003  0.96995  0.29648  Biso   1.000  C
  C52      1.0000 0.03997  0.03005  0.29648  Biso   1.000  C
  C53      1.0000 0.70352  0.53997  0.46995  Biso   1.000  C
  C54      1.0000 0.70352  0.46003  0.53005  Biso   1.000  C
  C55      1.0000 0.29648  0.46003  0.46995  Biso   1.000  C
  C56      1.0000 0.29648  0.53997  0.53005  Biso   1.000  C
  C57      1.0000 0.46995  0.20352  0.03997  Biso   1.000  C
  C58      1.0000 0.53005  0.20352  0.96003  Biso   1.000  C
  C59      1.0000 0.46995  0.79648  0.96003  Biso   1.000  C
  C60      1.0000 0.53005  0.79648  0.03997  Biso   1.000  C
  C61      1.0000 0.96995  0.03997  0.20352  Biso   1.000  C
  C62      1.0000 0.03005  0.96003  0.20352  Biso   1.000  C
  C63      1.0000 0.96995  0.96003  0.79648  Biso   1.000  C
  C64      1.0000 0.03005  0.03997  0.79648  Biso   1.000  C
  C65      1.0000 0.53997  0.70352  0.96995  Biso   1.000  C
  C66      1.0000 0.46003  0.70352  0.03005  Biso   1.000  C
  C67      1.0000 0.46003  0.29648  0.96995  Biso   1.000  C
  C68      1.0000 0.53997  0.29648  0.03005  Biso   1.000  C
  C69      1.0000 0.20352  0.46995  0.53997  Biso   1.000  C
  C70      1.0000 0.20352  0.53005  0.46003  Biso   1.000  C
  C71      1.0000 0.79648  0.46995  0.46003  Biso   1.000  C
  C72      1.0000 0.79648  0.53005  0.53997  Biso   1.000  C
  C73      1.0000 0.03997  0.46995  0.20352  Biso   1.000  C
  C74      1.0000 0.96003  0.53005  0.20352  Biso   1.000  C
  C75      1.0000 0.96003  0.46995  0.79648  Biso   1.000  C
  C76      1.0000 0.03997  0.53005  0.79648  Biso   1.000  C
  C77      1.0000 0.70352  0.03997  0.96995  Biso   1.000  C
  C78      1.0000 0.70352  0.96003  0.03005  Biso   1.000  C
  C79      1.0000 0.29648  0.96003  0.96995  Biso   1.000  C
  C80      1.0000 0.29648  0.03997  0.03005  Biso   1.000  C
  C81      1.0000 0.46995  0.70352  0.53997  Biso   1.000  C
  C82      1.0000 0.53005  0.70352  0.46003  Biso   1.000  C
  C83      1.0000 0.46995  0.29648  0.46003  Biso   1.000  C
  C84      1.0000 0.53005  0.29648  0.53997  Biso   1.000  C
  C85      1.0000 0.96995  0.53997  0.70352  Biso   1.000  C
  C86      1.0000 0.03005  0.46003  0.70352  Biso   1.000  C
  C87      1.0000 0.96995  0.46003  0.29648  Biso   1.000  C
  C88      1.0000 0.03005  0.53997  0.29648  Biso   1.000  C
  C89      1.0000 0.53997  0.20352  0.46995  Biso   1.000  C
  C90      1.0000 0.46003  0.20352  0.53005  Biso   1.000  C
  C91      1.0000 0.46003  0.79648  0.46995  Biso   1.000  C
  C92      1.0000 0.53997  0.79648  0.53005  Biso   1.000  C
  C93      1.0000 0.20352  0.96995  0.03997  Biso   1.000  C
  C94      1.0000 0.20352  0.03005  0.96003  Biso   1.000  C
  C95      1.0000 0.79648  0.96995  0.96003  Biso   1.000  C
  C96      1.0000 0.79648  0.03005  0.03997  Biso   1.000  C
  H193     1.0000 0.54140  0.98170  0.21570  Biso   1.000  H
  H194     1.0000 0.45860  0.01830  0.21570  Biso   1.000  H
  H195     1.0000 0.45860  0.98170  0.78430  Biso   1.000  H
  H196     1.0000 0.54140  0.01830  0.78430  Biso   1.000  H
  H197     1.0000 0.21570  0.54140  0.98170  Biso   1.000  H
  H198     1.0000 0.21570  0.45860  0.01830  Biso   1.000  H
  H199     1.0000 0.78430  0.45860  0.98170  Biso   1.000  H
  H200     1.0000 0.78430  0.54140  0.01830  Biso   1.000  H
  H201     1.0000 0.98170  0.21570  0.54140  Biso   1.000  H
  H202     1.0000 0.01830  0.21570  0.45860  Biso   1.000  H
  H203     1.0000 0.98170  0.78430  0.45860  Biso   1.000  H
  H204     1.0000 0.01830  0.78430  0.54140  Biso   1.000  H
  H205     1.0000 0.48170  0.04140  0.71570  Biso   1.000  H
  H206     1.0000 0.51830  0.95860  0.71570  Biso   1.000  H
  H207     1.0000 0.48170  0.95860  0.28430  Biso   1.000  H
  H208     1.0000 0.51830  0.04140  0.28430  Biso   1.000  H
  H209     1.0000 0.04140  0.71570  0.48170  Biso   1.000  H
  H210     1.0000 0.95860  0.71570  0.51830  Biso   1.000  H
  H211     1.0000 0.95860  0.28430  0.48170  Biso   1.000  H
  H212     1.0000 0.04140  0.28430  0.51830  Biso   1.000  H
  H213     1.0000 0.71570  0.48170  0.04140  Biso   1.000  H
  H214     1.0000 0.71570  0.51830  0.95860  Biso   1.000  H
  H215     1.0000 0.28430  0.48170  0.95860  Biso   1.000  H
  H216     1.0000 0.28430  0.51830  0.04140  Biso   1.000  H
  H217     1.0000 0.54140  0.48170  0.71570  Biso   1.000  H
  H218     1.0000 0.45860  0.51830  0.71570  Biso   1.000  H
  H219     1.0000 0.45860  0.48170  0.28430  Biso   1.000  H
  H220     1.0000 0.54140  0.51830  0.28430  Biso   1.000  H
  H221     1.0000 0.21570  0.04140  0.48170  Biso   1.000  H
  H222     1.0000 0.21570  0.95860  0.51830  Biso   1.000  H
  H223     1.0000 0.78430  0.95860  0.48170  Biso   1.000  H
  H224     1.0000 0.78430  0.04140  0.51830  Biso   1.000  H
  H225     1.0000 0.98170  0.71570  0.04140  Biso   1.000  H
  H226     1.0000 0.01830  0.71570  0.95860  Biso   1.000  H
  H227     1.0000 0.98170  0.28430  0.95860  Biso   1.000  H
  H228     1.0000 0.01830  0.28430  0.04140  Biso   1.000  H
  H229     1.0000 0.48170  0.54140  0.21570  Biso   1.000  H
  H230     1.0000 0.51830  0.45860  0.21570  Biso   1.000  H
  H231     1.0000 0.48170  0.45860  0.78430  Biso   1.000  H
  H232     1.0000 0.51830  0.54140  0.78430  Biso   1.000  H
  H233     1.0000 0.04140  0.21570  0.98170  Biso   1.000  H
  H234     1.0000 0.95860  0.21570  0.01830  Biso   1.000  H
  H235     1.0000 0.95860  0.78430  0.98170  Biso   1.000  H
  H236     1.0000 0.04140  0.78430  0.01830  Biso   1.000  H
  H237     1.0000 0.71570  0.98170  0.54140  Biso   1.000  H
  H238     1.0000 0.71570  0.01830  0.45860  Biso   1.000  H
  H239     1.0000 0.28430  0.98170  0.45860  Biso   1.000  H
  H240     1.0000 0.28430  0.01830  0.54140  Biso   1.000  H
  H241     1.0000 0.04140  0.98170  0.71570  Biso   1.000  H
  H242     1.0000 0.95860  0.01830  0.71570  Biso   1.000  H
  H243     1.0000 0.95860  0.98170  0.28430  Biso   1.000  H
  H244     1.0000 0.04140  0.01830  0.28430  Biso   1.000  H
  H245     1.0000 0.71570  0.54140  0.48170  Biso   1.000  H
  H246     1.0000 0.71570  0.45860  0.51830  Biso   1.000  H
  H247     1.0000 0.28430  0.45860  0.48170  Biso   1.000  H
  H248     1.0000 0.28430  0.54140  0.51830  Biso   1.000  H
  H249     1.0000 0.48170  0.21570  0.04140  Biso   1.000  H
  H250     1.0000 0.51830  0.21570  0.95860  Biso   1.000  H
  H251     1.0000 0.48170  0.78430  0.95860  Biso   1.000  H
  H252     1.0000 0.51830  0.78430  0.04140  Biso   1.000  H
  H253     1.0000 0.98170  0.04140  0.21570  Biso   1.000  H
  H254     1.0000 0.01830  0.95860  0.21570  Biso   1.000  H
  H255     1.0000 0.98170  0.95860  0.78430  Biso   1.000  H
  H256     1.0000 0.01830  0.04140  0.78430  Biso   1.000  H
  H257     1.0000 0.54140  0.71570  0.98170  Biso   1.000  H
  H258     1.0000 0.45860  0.71570  0.01830  Biso   1.000  H
  H259     1.0000 0.45860  0.28430  0.98170  Biso   1.000  H
  H260     1.0000 0.54140  0.28430  0.01830  Biso   1.000  H
  H261     1.0000 0.21570  0.48170  0.54140  Biso   1.000  H
  H262     1.0000 0.21570  0.51830  0.45860  Biso   1.000  H
  H263     1.0000 0.78430  0.48170  0.45860  Biso   1.000  H
  H264     1.0000 0.78430  0.51830  0.54140  Biso   1.000  H
  H265     1.0000 0.04140  0.48170  0.21570  Biso   1.000  H
  H266     1.0000 0.95860  0.51830  0.21570  Biso   1.000  H
  H267     1.0000 0.95860  0.48170  0.78430  Biso   1.000  H
  H268     1.0000 0.04140  0.51830  0.78430  Biso   1.000  H
  H269     1.0000 0.71570  0.04140  0.98170  Biso   1.000  H
  H270     1.0000 0.71570  0.95860  0.01830  Biso   1.000  H
  H271     1.0000 0.28430  0.95860  0.98170  Biso   1.000  H
  H272     1.0000 0.28430  0.04140  0.01830  Biso   1.000  H
  H273     1.0000 0.48170  0.71570  0.54140  Biso   1.000  H
  H274     1.0000 0.51830  0.71570  0.45860  Biso   1.000  H
  H275     1.0000 0.48170  0.28430  0.45860  Biso   1.000  H
  H276     1.0000 0.51830  0.28430  0.54140  Biso   1.000  H
  H277     1.0000 0.98170  0.54140  0.71570  Biso   1.000  H
  H278     1.0000 0.01830  0.45860  0.71570  Biso   1.000  H
  H279     1.0000 0.98170  0.45860  0.28430  Biso   1.000  H
  H280     1.0000 0.01830  0.54140  0.28430  Biso   1.000  H
  H281     1.0000 0.54140  0.21570  0.48170  Biso   1.000  H
  H282     1.0000 0.45860  0.21570  0.51830  Biso   1.000  H
  H283     1.0000 0.45860  0.78430  0.48170  Biso   1.000  H
  H284     1.0000 0.54140  0.78430  0.51830  Biso   1.000  H
  H285     1.0000 0.21570  0.98170  0.04140  Biso   1.000  H
  H286     1.0000 0.21570  0.01830  0.95860  Biso   1.000  H
  H287     1.0000 0.78430  0.98170  0.95860  Biso   1.000  H
  H288     1.0000 0.78430  0.01830  0.04140  Biso   1.000  H
  C97      1.0000 0.55528  0.95051  0.20424  Biso   1.000  C
  C98      1.0000 0.44472  0.04949  0.20424  Biso   1.000  C
  C99      1.0000 0.44472  0.95051  0.79576  Biso   1.000  C
  C100     1.0000 0.55528  0.04949  0.79576  Biso   1.000  C
  C101     1.0000 0.20424  0.55528  0.95051  Biso   1.000  C
  C102     1.0000 0.20424  0.44472  0.04949  Biso   1.000  C
  C103     1.0000 0.79576  0.44472  0.95051  Biso   1.000  C
  C104     1.0000 0.79576  0.55528  0.04949  Biso   1.000  C
  C105     1.0000 0.95051  0.20424  0.55528  Biso   1.000  C
  C106     1.0000 0.04949  0.20424  0.44472  Biso   1.000  C
  C107     1.0000 0.95051  0.79576  0.44472  Biso   1.000  C
  C108     1.0000 0.04949  0.79576  0.55528  Biso   1.000  C
  C109     1.0000 0.45051  0.05528  0.70424  Biso   1.000  C
  C110     1.0000 0.54949  0.94472  0.70424  Biso   1.000  C
  C111     1.0000 0.45051  0.94472  0.29576  Biso   1.000  C
  C112     1.0000 0.54949  0.05528  0.29576  Biso   1.000  C
  C113     1.0000 0.05528  0.70424  0.45051  Biso   1.000  C
  C114     1.0000 0.94472  0.70424  0.54949  Biso   1.000  C
  C115     1.0000 0.94472  0.29576  0.45051  Biso   1.000  C
  C116     1.0000 0.05528  0.29576  0.54949  Biso   1.000  C
  C117     1.0000 0.70424  0.45051  0.05528  Biso   1.000  C
  C118     1.0000 0.70424  0.54949  0.94472  Biso   1.000  C
  C119     1.0000 0.29576  0.45051  0.94472  Biso   1.000  C
  C120     1.0000 0.29576  0.54949  0.05528  Biso   1.000  C
  C121     1.0000 0.55528  0.45051  0.70424  Biso   1.000  C
  C122     1.0000 0.44472  0.54949  0.70424  Biso   1.000  C
  C123     1.0000 0.44472  0.45051  0.29576  Biso   1.000  C
  C124     1.0000 0.55528  0.54949  0.29576  Biso   1.000  C
  C125     1.0000 0.20424  0.05528  0.45051  Biso   1.000  C
  C126     1.0000 0.20424  0.94472  0.54949  Biso   1.000  C
  C127     1.0000 0.79576  0.94472  0.45051  Biso   1.000  C
  C128     1.0000 0.79576  0.05528  0.54949  Biso   1.000  C
  C129     1.0000 0.95051  0.70424  0.05528  Biso   1.000  C
  C130     1.0000 0.04949  0.70424  0.94472  Biso   1.000  C
  C131     1.0000 0.95051  0.29576  0.94472  Biso   1.000  C
  C132     1.0000 0.04949  0.29576  0.05528  Biso   1.000  C
  C133     1.0000 0.45051  0.55528  0.20424  Biso   1.000  C
  C134     1.0000 0.54949  0.44472  0.20424  Biso   1.000  C
  C135     1.0000 0.45051  0.44472  0.79576  Biso   1.000  C
  C136     1.0000 0.54949  0.55528  0.79576  Biso   1.000  C
  C137     1.0000 0.05528  0.20424  0.95051  Biso   1.000  C
  C138     1.0000 0.94472  0.20424  0.04949  Biso   1.000  C
  C139     1.0000 0.94472  0.79576  0.95051  Biso   1.000  C
  C140     1.0000 0.05528  0.79576  0.04949  Biso   1.000  C
  C141     1.0000 0.70424  0.95051  0.55528  Biso   1.000  C
  C142     1.0000 0.70424  0.04949  0.44472  Biso   1.000  C
  C143     1.0000 0.29576  0.95051  0.44472  Biso   1.000  C
  C144     1.0000 0.29576  0.04949  0.55528  Biso   1.000  C
  C145     1.0000 0.05528  0.95051  0.70424  Biso   1.000  C
  C146     1.0000 0.94472  0.04949  0.70424  Biso   1.000  C
  C147     1.0000 0.94472  0.95051  0.29576  Biso   1.000  C
  C148     1.0000 0.05528  0.04949  0.29576  Biso   1.000  C
  C149     1.0000 0.70424  0.55528  0.45051  Biso   1.000  C
  C150     1.0000 0.70424  0.44472  0.54949  Biso   1.000  C
  C151     1.0000 0.29576  0.44472  0.45051  Biso   1.000  C
  C152     1.0000 0.29576  0.55528  0.54949  Biso   1.000  C
  C153     1.0000 0.45051  0.20424  0.05528  Biso   1.000  C
  C154     1.0000 0.54949  0.20424  0.94472  Biso   1.000  C
  C155     1.0000 0.45051  0.79576  0.94472  Biso   1.000  C
  C156     1.0000 0.54949  0.79576  0.05528  Biso   1.000  C
  C157     1.0000 0.95051  0.05528  0.20424  Biso   1.000  C
  C158     1.0000 0.04949  0.94472  0.20424  Biso   1.000  C
  C159     1.0000 0.95051  0.94472  0.79576  Biso   1.000  C
  C160     1.0000 0.04949  0.05528  0.79576  Biso   1.000  C
  C161     1.0000 0.55528  0.70424  0.95051  Biso   1.000  C
  C162     1.0000 0.44472  0.70424  0.04949  Biso   1.000  C
  C163     1.0000 0.44472  0.29576  0.95051  Biso   1.000  C
  C164     1.0000 0.55528  0.29576  0.04949  Biso   1.000  C
  C165     1.0000 0.20424  0.45051  0.55528  Biso   1.000  C
  C166     1.0000 0.20424  0.54949  0.44472  Biso   1.000  C
  C167     1.0000 0.79576  0.45051  0.44472  Biso   1.000  C
  C168     1.0000 0.79576  0.54949  0.55528  Biso   1.000  C
  C169     1.0000 0.05528  0.45051  0.20424  Biso   1.000  C
  C170     1.0000 0.94472  0.54949  0.20424  Biso   1.000  C
  C171     1.0000 0.94472  0.45051  0.79576  Biso   1.000  C
  C172     1.0000 0.05528  0.54949  0.79576  Biso   1.000  C
  C173     1.0000 0.70424  0.05528  0.95051  Biso   1.000  C
  C174     1.0000 0.70424  0.94472  0.04949  Biso   1.000  C
  C175     1.0000 0.29576  0.94472  0.95051  Biso   1.000  C
  C176     1.0000 0.29576  0.05528  0.04949  Biso   1.000  C
  C177     1.0000 0.45051  0.70424  0.55528  Biso   1.000  C
  C178     1.0000 0.54949  0.70424  0.44472  Biso   1.000  C
  C179     1.0000 0.45051  0.29576  0.44472  Biso   1.000  C
  C180     1.0000 0.54949  0.29576  0.55528  Biso   1.000  C
  C181     1.0000 0.95051  0.55528  0.70424  Biso   1.000  C
  C182     1.0000 0.04949  0.44472  0.70424  Biso   1.000  C
  C183     1.0000 0.95051  0.44472  0.29576  Biso   1.000  C
  C184     1.0000 0.04949  0.55528  0.29576  Biso   1.000  C
  C185     1.0000 0.55528  0.20424  0.45051  Biso   1.000  C
  C186     1.0000 0.44472  0.20424  0.54949  Biso   1.000  C
  C187     1.0000 0.44472  0.79576  0.45051  Biso   1.000  C
  C188     1.0000 0.55528  0.79576  0.54949  Biso   1.000  C
  C189     1.0000 0.20424  0.95051  0.05528  Biso   1.000  C
  C190     1.0000 0.20424  0.04949  0.94472  Biso   1.000  C
  C191     1.0000 0.79576  0.95051  0.94472  Biso   1.000  C
  C192     1.0000 0.79576  0.04949  0.05528  Biso   1.000  C
  H289     1.0000 0.56740  0.94950  0.21610  Biso   1.000  H
  H290     1.0000 0.43260  0.05050  0.21610  Biso   1.000  H
  H291     1.0000 0.43260  0.94950  0.78390  Biso   1.000  H
  H292     1.0000 0.56740  0.05050  0.78390  Biso   1.000  H
  H293     1.0000 0.21610  0.56740  0.94950  Biso   1.000  H
  H294     1.0000 0.21610  0.43260  0.05050  Biso   1.000  H
  H295     1.0000 0.78390  0.43260  0.94950  Biso   1.000  H
  H296     1.0000 0.78390  0.56740  0.05050  Biso   1.000  H
  H297     1.0000 0.94950  0.21610  0.56740  Biso   1.000  H
  H298     1.0000 0.05050  0.21610  0.43260  Biso   1.000  H
  H299     1.0000 0.94950  0.78390  0.43260  Biso   1.000  H
  H300     1.0000 0.05050  0.78390  0.56740  Biso   1.000  H
  H301     1.0000 0.44950  0.06740  0.71610  Biso   1.000  H
  H302     1.0000 0.55050  0.93260  0.71610  Biso   1.000  H
  H303     1.0000 0.44950  0.93260  0.28390  Biso   1.000  H
  H304     1.0000 0.55050  0.06740  0.28390  Biso   1.000  H
  H305     1.0000 0.06740  0.71610  0.44950  Biso   1.000  H
  H306     1.0000 0.93260  0.71610  0.55050  Biso   1.000  H
  H307     1.0000 0.93260  0.28390  0.44950  Biso   1.000  H
  H308     1.0000 0.06740  0.28390  0.55050  Biso   1.000  H
  H309     1.0000 0.71610  0.44950  0.06740  Biso   1.000  H
  H310     1.0000 0.71610  0.55050  0.93260  Biso   1.000  H
  H311     1.0000 0.28390  0.44950  0.93260  Biso   1.000  H
  H312     1.0000 0.28390  0.55050  0.06740  Biso   1.000  H
  H313     1.0000 0.56740  0.44950  0.71610  Biso   1.000  H
  H314     1.0000 0.43260  0.55050  0.71610  Biso   1.000  H
  H315     1.0000 0.43260  0.44950  0.28390  Biso   1.000  H
  H316     1.0000 0.56740  0.55050  0.28390  Biso   1.000  H
  H317     1.0000 0.21610  0.06740  0.44950  Biso   1.000  H
  H318     1.0000 0.21610  0.93260  0.55050  Biso   1.000  H
  H319     1.0000 0.78390  0.93260  0.44950  Biso   1.000  H
  H320     1.0000 0.78390  0.06740  0.55050  Biso   1.000  H
  H321     1.0000 0.94950  0.71610  0.06740  Biso   1.000  H
  H322     1.0000 0.05050  0.71610  0.93260  Biso   1.000  H
  H323     1.0000 0.94950  0.28390  0.93260  Biso   1.000  H
  H324     1.0000 0.05050  0.28390  0.06740  Biso   1.000  H
  H325     1.0000 0.44950  0.56740  0.21610  Biso   1.000  H
  H326     1.0000 0.55050  0.43260  0.21610  Biso   1.000  H
  H327     1.0000 0.44950  0.43260  0.78390  Biso   1.000  H
  H328     1.0000 0.55050  0.56740  0.78390  Biso   1.000  H
  H329     1.0000 0.06740  0.21610  0.94950  Biso   1.000  H
  H330     1.0000 0.93260  0.21610  0.05050  Biso   1.000  H
  H331     1.0000 0.93260  0.78390  0.94950  Biso   1.000  H
  H332     1.0000 0.06740  0.78390  0.05050  Biso   1.000  H
  H333     1.0000 0.71610  0.94950  0.56740  Biso   1.000  H
  H334     1.0000 0.71610  0.05050  0.43260  Biso   1.000  H
  H335     1.0000 0.28390  0.94950  0.43260  Biso   1.000  H
  H336     1.0000 0.28390  0.05050  0.56740  Biso   1.000  H
  H337     1.0000 0.06740  0.94950  0.71610  Biso   1.000  H
  H338     1.0000 0.93260  0.05050  0.71610  Biso   1.000  H
  H339     1.0000 0.93260  0.94950  0.28390  Biso   1.000  H
  H340     1.0000 0.06740  0.05050  0.28390  Biso   1.000  H
  H341     1.0000 0.71610  0.56740  0.44950  Biso   1.000  H
  H342     1.0000 0.71610  0.43260  0.55050  Biso   1.000  H
  H343     1.0000 0.28390  0.43260  0.44950  Biso   1.000  H
  H344     1.0000 0.28390  0.56740  0.55050  Biso   1.000  H
  H345     1.0000 0.44950  0.21610  0.06740  Biso   1.000  H
  H346     1.0000 0.55050  0.21610  0.93260  Biso   1.000  H
  H347     1.0000 0.44950  0.78390  0.93260  Biso   1.000  H
  H348     1.0000 0.55050  0.78390  0.06740  Biso   1.000  H
  H349     1.0000 0.94950  0.06740  0.21610  Biso   1.000  H
  H350     1.0000 0.05050  0.93260  0.21610  Biso   1.000  H
  H351     1.0000 0.94950  0.93260  0.78390  Biso   1.000  H
  H352     1.0000 0.05050  0.06740  0.78390  Biso   1.000  H
  H353     1.0000 0.56740  0.71610  0.94950  Biso   1.000  H
  H354     1.0000 0.43260  0.71610  0.05050  Biso   1.000  H
  H355     1.0000 0.43260  0.28390  0.94950  Biso   1.000  H
  H356     1.0000 0.56740  0.28390  0.05050  Biso   1.000  H
  H357     1.0000 0.21610  0.44950  0.56740  Biso   1.000  H
  H358     1.0000 0.21610  0.55050  0.43260  Biso   1.000  H
  H359     1.0000 0.78390  0.44950  0.43260  Biso   1.000  H
  H360     1.0000 0.78390  0.55050  0.56740  Biso   1.000  H
  H361     1.0000 0.06740  0.44950  0.21610  Biso   1.000  H
  H362     1.0000 0.93260  0.55050  0.21610  Biso   1.000  H
  H363     1.0000 0.93260  0.44950  0.78390  Biso   1.000  H
  H364     1.0000 0.06740  0.55050  0.78390  Biso   1.000  H
  H365     1.0000 0.71610  0.06740  0.94950  Biso   1.000  H
  H366     1.0000 0.71610  0.93260  0.05050  Biso   1.000  H
  H367     1.0000 0.28390  0.93260  0.94950  Biso   1.000  H
  H368     1.0000 0.28390  0.06740  0.05050  Biso   1.000  H
  H369     1.0000 0.44950  0.71610  0.56740  Biso   1.000  H
  H370     1.0000 0.55050  0.71610  0.43260  Biso   1.000  H
  H371     1.0000 0.44950  0.28390  0.43260  Biso   1.000  H
  H372     1.0000 0.55050  0.28390  0.56740  Biso   1.000  H
  H373     1.0000 0.94950  0.56740  0.71610  Biso   1.000  H
  H374     1.0000 0.05050  0.43260  0.71610  Biso   1.000  H
  H375     1.0000 0.94950  0.43260  0.28390  Biso   1.000  H
  H376     1.0000 0.05050  0.56740  0.28390  Biso   1.000  H
  H377     1.0000 0.56740  0.21610  0.44950  Biso   1.000  H
  H378     1.0000 0.43260  0.21610  0.55050  Biso   1.000  H
  H379     1.0000 0.43260  0.78390  0.44950  Biso   1.000  H
  H380     1.0000 0.56740  0.78390  0.55050  Biso   1.000  H
  H381     1.0000 0.21610  0.94950  0.06740  Biso   1.000  H
  H382     1.0000 0.21610  0.05050  0.93260  Biso   1.000  H
  H383     1.0000 0.78390  0.94950  0.93260  Biso   1.000  H
  H384     1.0000 0.78390  0.05050  0.06740  Biso   1.000  H
  C193     1.0000 0.55275  0.93305  0.18775  Biso   1.000  C
  C194     1.0000 0.44725  0.06695  0.18775  Biso   1.000  C
  C195     1.0000 0.44725  0.93305  0.81225  Biso   1.000  C
  C196     1.0000 0.55275  0.06695  0.81225  Biso   1.000  C
  C197     1.0000 0.18775  0.55275  0.93305  Biso   1.000  C
  C198     1.0000 0.18775  0.44725  0.06695  Biso   1.000  C
  C199     1.0000 0.81225  0.44725  0.93305  Biso   1.000  C
  C200     1.0000 0.81225  0.55275  0.06695  Biso   1.000  C
  C201     1.0000 0.93305  0.18775  0.55275  Biso   1.000  C
  C202     1.0000 0.06695  0.18775  0.44725  Biso   1.000  C
  C203     1.0000 0.93305  0.81225  0.44725  Biso   1.000  C
  C204     1.0000 0.06695  0.81225  0.55275  Biso   1.000  C
  C205     1.0000 0.43305  0.05275  0.68775  Biso   1.000  C
  C206     1.0000 0.56695  0.94725  0.68775  Biso   1.000  C
  C207     1.0000 0.43305  0.94725  0.31225  Biso   1.000  C
  C208     1.0000 0.56695  0.05275  0.31225  Biso   1.000  C
  C209     1.0000 0.05275  0.68775  0.43305  Biso   1.000  C
  C210     1.0000 0.94725  0.68775  0.56695  Biso   1.000  C
  C211     1.0000 0.94725  0.31225  0.43305  Biso   1.000  C
  C212     1.0000 0.05275  0.31225  0.56695  Biso   1.000  C
  C213     1.0000 0.68775  0.43305  0.05275  Biso   1.000  C
  C214     1.0000 0.68775  0.56695  0.94725  Biso   1.000  C
  C215     1.0000 0.31225  0.43305  0.94725  Biso   1.000  C
  C216     1.0000 0.31225  0.56695  0.05275  Biso   1.000  C
  C217     1.0000 0.55275  0.43305  0.68775  Biso   1.000  C
  C218     1.0000 0.44725  0.56695  0.68775  Biso   1.000  C
  C219     1.0000 0.44725  0.43305  0.31225  Biso   1.000  C
  C220     1.0000 0.55275  0.56695  0.31225  Biso   1.000  C
  C221     1.0000 0.18775  0.05275  0.43305  Biso   1.000  C
  C222     1.0000 0.18775  0.94725  0.56695  Biso   1.000  C
  C223     1.0000 0.81225  0.94725  0.43305  Biso   1.000  C
  C224     1.0000 0.81225  0.05275  0.56695  Biso   1.000  C
  C225     1.0000 0.93305  0.68775  0.05275  Biso   1.000  C
  C226     1.0000 0.06695  0.68775  0.94725  Biso   1.000  C
  C227     1.0000 0.93305  0.31225  0.94725  Biso   1.000  C
  C228     1.0000 0.06695  0.31225  0.05275  Biso   1.000  C
  C229     1.0000 0.43305  0.55275  0.18775  Biso   1.000  C
  C230     1.0000 0.56695  0.44725  0.18775  Biso   1.000  C
  C231     1.0000 0.43305  0.44725  0.81225  Biso   1.000  C
  C232     1.0000 0.56695  0.55275  0.81225  Biso   1.000  C
  C233     1.0000 0.05275  0.18775  0.93305  Biso   1.000  C
  C234     1.0000 0.94725  0.18775  0.06695  Biso   1.000  C
  C235     1.0000 0.94725  0.81225  0.93305  Biso   1.000  C
  C236     1.0000 0.05275  0.81225  0.06695  Biso   1.000  C
  C237     1.0000 0.68775  0.93305  0.55275  Biso   1.000  C
  C238     1.0000 0.68775  0.06695  0.44725  Biso   1.000  C
  C239     1.0000 0.31225  0.93305  0.44725  Biso   1.000  C
  C240     1.0000 0.31225  0.06695  0.55275  Biso   1.000  C
  C241     1.0000 0.05275  0.93305  0.68775  Biso   1.000  C
  C242     1.0000 0.94725  0.06695  0.68775  Biso   1.000  C
  C243     1.0000 0.94725  0.93305  0.31225  Biso   1.000  C
  C244     1.0000 0.05275  0.06695  0.31225  Biso   1.000  C
  C245     1.0000 0.68775  0.55275  0.43305  Biso   1.000  C
  C246     1.0000 0.68775  0.44725  0.56695  Biso   1.000  C
  C247     1.0000 0.31225  0.44725  0.43305  Biso   1.000  C
  C248     1.0000 0.31225  0.55275  0.56695  Biso   1.000  C
  C249     1.0000 0.43305  0.18775  0.05275  Biso   1.000  C
  C250     1.0000 0.56695  0.18775  0.94725  Biso   1.000  C
  C251     1.0000 0.43305  0.81225  0.94725  Biso   1.000  C
  C252     1.0000 0.56695  0.81225  0.05275  Biso   1.000  C
  C253     1.0000 0.93305  0.05275  0.18775  Biso   1.000  C
  C254     1.0000 0.06695  0.94725  0.18775  Biso   1.000  C
  C255     1.0000 0.93305  0.94725  0.81225  Biso   1.000  C
  C256     1.0000 0.06695  0.05275  0.81225  Biso   1.000  C
  C257     1.0000 0.55275  0.68775  0.93305  Biso   1.000  C
  C258     1.0000 0.44725  0.68775  0.06695  Biso   1.000  C
  C259     1.0000 0.44725  0.31225  0.93305  Biso   1.000  C
  C260     1.0000 0.55275  0.31225  0.06695  Biso   1.000  C
  C261     1.0000 0.18775  0.43305  0.55275  Biso   1.000  C
  C262     1.0000 0.18775  0.56695  0.44725  Biso   1.000  C
  C263     1.0000 0.81225  0.43305  0.44725  Biso   1.000  C
  C264     1.0000 0.81225  0.56695  0.55275  Biso   1.000  C
  C265     1.0000 0.05275  0.43305  0.18775  Biso   1.000  C
  C266     1.0000 0.94725  0.56695  0.18775  Biso   1.000  C
  C267     1.0000 0.94725  0.43305  0.81225  Biso   1.000  C
  C268     1.0000 0.05275  0.56695  0.81225  Biso   1.000  C
  C269     1.0000 0.68775  0.05275  0.93305  Biso   1.000  C
  C270     1.0000 0.68775  0.94725  0.06695  Biso   1.000  C
  C271     1.0000 0.31225  0.94725  0.93305  Biso   1.000  C
  C272     1.0000 0.31225  0.05275  0.06695  Biso   1.000  C
  C273     1.0000 0.43305  0.68775  0.55275  Biso   1.000  C
  C274     1.0000 0.56695  0.68775  0.44725  Biso   1.000  C
  C275     1.0000 0.43305  0.31225  0.44725  Biso   1.000  C
  C276     1.0000 0.56695  0.31225  0.55275  Biso   1.000  C
  C277     1.0000 0.93305  0.55275  0.68775  Biso   1.000  C
  C278     1.0000 0.06695  0.44725  0.68775  Biso   1.000  C
  C279     1.0000 0.93305  0.44725  0.31225  Biso   1.000  C
  C280     1.0000 0.06695  0.55275  0.31225  Biso   1.000  C
  C281     1.0000 0.55275  0.18775  0.43305  Biso   1.000  C
  C282     1.0000 0.44725  0.18775  0.56695  Biso   1.000  C
  C283     1.0000 0.44725  0.81225  0.43305  Biso   1.000  C
  C284     1.0000 0.55275  0.81225  0.56695  Biso   1.000  C
  C285     1.0000 0.18775  0.93305  0.05275  Biso   1.000  C
  C286     1.0000 0.18775  0.06695  0.94725  Biso   1.000  C
  C287     1.0000 0.81225  0.93305  0.94725  Biso   1.000  C
  C288     1.0000 0.81225  0.06695  0.05275  Biso   1.000  C
  C289     1.0000 0.53541  0.93601  0.17036  Biso   1.000  C
  C290     1.0000 0.46459  0.06399  0.17036  Biso   1.000  C
  C291     1.0000 0.46459  0.93601  0.82964  Biso   1.000  C
  C292     1.0000 0.53541  0.06399  0.82964  Biso   1.000  C
  C293     1.0000 0.17036  0.53541  0.93601  Biso   1.000  C
  C294     1.0000 0.17036  0.46459  0.06399  Biso   1.000  C
  C295     1.0000 0.82964  0.46459  0.93601  Biso   1.000  C
  C296     1.0000 0.82964  0.53541  0.06399  Biso   1.000  C
  C297     1.0000 0.93601  0.17036  0.53541  Biso   1.000  C
  C298     1.0000 0.06399  0.17036  0.46459  Biso   1.000  C
  C299     1.0000 0.93601  0.82964  0.46459  Biso   1.000  C
  C300     1.0000 0.06399  0.82964  0.53541  Biso   1.000  C
  C301     1.0000 0.43601  0.03541  0.67036  Biso   1.000  C
  C302     1.0000 0.56399  0.96459  0.67036  Biso   1.000  C
  C303     1.0000 0.43601  0.96459  0.32964  Biso   1.000  C
  C304     1.0000 0.56399  0.03541  0.32964  Biso   1.000  C
  C305     1.0000 0.03541  0.67036  0.43601  Biso   1.000  C
  C306     1.0000 0.96459  0.67036  0.56399  Biso   1.000  C
  C307     1.0000 0.96459  0.32964  0.43601  Biso   1.000  C
  C308     1.0000 0.03541  0.32964  0.56399  Biso   1.000  C
  C309     1.0000 0.67036  0.43601  0.03541  Biso   1.000  C
  C310     1.0000 0.67036  0.56399  0.96459  Biso   1.000  C
  C311     1.0000 0.32964  0.43601  0.96459  Biso   1.000  C
  C312     1.0000 0.32964  0.56399  0.03541  Biso   1.000  C
  C313     1.0000 0.53541  0.43601  0.67036  Biso   1.000  C
  C314     1.0000 0.46459  0.56399  0.67036  Biso   1.000  C
  C315     1.0000 0.46459  0.43601  0.32964  Biso   1.000  C
  C316     1.0000 0.53541  0.56399  0.32964  Biso   1.000  C
  C317     1.0000 0.17036  0.03541  0.43601  Biso   1.000  C
  C318     1.0000 0.17036  0.96459  0.56399  Biso   1.000  C
  C319     1.0000 0.82964  0.96459  0.43601  Biso   1.000  C
  C320     1.0000 0.82964  0.03541  0.56399  Biso   1.000  C
  C321     1.0000 0.93601  0.67036  0.03541  Biso   1.000  C
  C322     1.0000 0.06399  0.67036  0.96459  Biso   1.000  C
  C323     1.0000 0.93601  0.32964  0.96459  Biso   1.000  C
  C324     1.0000 0.06399  0.32964  0.03541  Biso   1.000  C
  C325     1.0000 0.43601  0.53541  0.17036  Biso   1.000  C
  C326     1.0000 0.56399  0.46459  0.17036  Biso   1.000  C
  C327     1.0000 0.43601  0.46459  0.82964  Biso   1.000  C
  C328     1.0000 0.56399  0.53541  0.82964  Biso   1.000  C
  C329     1.0000 0.03541  0.17036  0.93601  Biso   1.000  C
  C330     1.0000 0.96459  0.17036  0.06399  Biso   1.000  C
  C331     1.0000 0.96459  0.82964  0.93601  Biso   1.000  C
  C332     1.0000 0.03541  0.82964  0.06399  Biso   1.000  C
  C333     1.0000 0.67036  0.93601  0.53541  Biso   1.000  C
  C334     1.0000 0.67036  0.06399  0.46459  Biso   1.000  C
  C335     1.0000 0.32964  0.93601  0.46459  Biso   1.000  C
  C336     1.0000 0.32964  0.06399  0.53541  Biso   1.000  C
  C337     1.0000 0.03541  0.93601  0.67036  Biso   1.000  C
  C338     1.0000 0.96459  0.06399  0.67036  Biso   1.000  C
  C339     1.0000 0.96459  0.93601  0.32964  Biso   1.000  C
  C340     1.0000 0.03541  0.06399  0.32964  Biso   1.000  C
  C341     1.0000 0.67036  0.53541  0.43601  Biso   1.000  C
  C342     1.0000 0.67036  0.46459  0.56399  Biso   1.000  C
  C343     1.0000 0.32964  0.46459  0.43601  Biso   1.000  C
  C344     1.0000 0.32964  0.53541  0.56399  Biso   1.000  C
  C345     1.0000 0.43601  0.17036  0.03541  Biso   1.000  C
  C346     1.0000 0.56399  0.17036  0.96459  Biso   1.000  C
  C347     1.0000 0.43601  0.82964  0.96459  Biso   1.000  C
  C348     1.0000 0.56399  0.82964  0.03541  Biso   1.000  C
  C349     1.0000 0.93601  0.03541  0.17036  Biso   1.000  C
  C350     1.0000 0.06399  0.96459  0.17036  Biso   1.000  C
  C351     1.0000 0.93601  0.96459  0.82964  Biso   1.000  C
  C352     1.0000 0.06399  0.03541  0.82964  Biso   1.000  C
  C353     1.0000 0.53541  0.67036  0.93601  Biso   1.000  C
  C354     1.0000 0.46459  0.67036  0.06399  Biso   1.000  C
  C355     1.0000 0.46459  0.32964  0.93601  Biso   1.000  C
  C356     1.0000 0.53541  0.32964  0.06399  Biso   1.000  C
  C357     1.0000 0.17036  0.43601  0.53541  Biso   1.000  C
  C358     1.0000 0.17036  0.56399  0.46459  Biso   1.000  C
  C359     1.0000 0.82964  0.43601  0.46459  Biso   1.000  C
  C360     1.0000 0.82964  0.56399  0.53541  Biso   1.000  C
  C361     1.0000 0.03541  0.43601  0.17036  Biso   1.000  C
  C362     1.0000 0.96459  0.56399  0.17036  Biso   1.000  C
  C363     1.0000 0.96459  0.43601  0.82964  Biso   1.000  C
  C364     1.0000 0.03541  0.56399  0.82964  Biso   1.000  C
  C365     1.0000 0.67036  0.03541  0.93601  Biso   1.000  C
  C366     1.0000 0.67036  0.96459  0.06399  Biso   1.000  C
  C367     1.0000 0.32964  0.96459  0.93601  Biso   1.000  C
  C368     1.0000 0.32964  0.03541  0.06399  Biso   1.000  C
  C369     1.0000 0.43601  0.67036  0.53541  Biso   1.000  C
  C370     1.0000 0.56399  0.67036  0.46459  Biso   1.000  C
  C371     1.0000 0.43601  0.32964  0.46459  Biso   1.000  C
  C372     1.0000 0.56399  0.32964  0.53541  Biso   1.000  C
  C373     1.0000 0.93601  0.53541  0.67036  Biso   1.000  C
  C374     1.0000 0.06399  0.46459  0.67036  Biso   1.000  C
  C375     1.0000 0.93601  0.46459  0.32964  Biso   1.000  C
  C376     1.0000 0.06399  0.53541  0.32964  Biso   1.000  C
  C377     1.0000 0.53541  0.17036  0.43601  Biso   1.000  C
  C378     1.0000 0.46459  0.17036  0.56399  Biso   1.000  C
  C379     1.0000 0.46459  0.82964  0.43601  Biso   1.000  C
  C380     1.0000 0.53541  0.82964  0.56399  Biso   1.000  C
  C381     1.0000 0.17036  0.93601  0.03541  Biso   1.000  C
  C382     1.0000 0.17036  0.06399  0.96459  Biso   1.000  C
  C383     1.0000 0.82964  0.93601  0.96459  Biso   1.000  C
  C384     1.0000 0.82964  0.06399  0.03541  Biso   1.000  C
  H385     1.0000 0.53340  0.92420  0.15830  Biso   1.000  H
  H386     1.0000 0.46660  0.07580  0.15830  Biso   1.000  H
  H387     1.0000 0.46660  0.92420  0.84170  Biso   1.000  H
  H388     1.0000 0.53340  0.07580  0.84170  Biso   1.000  H
  H389     1.0000 0.15830  0.53340  0.92420  Biso   1.000  H
  H390     1.0000 0.15830  0.46660  0.07580  Biso   1.000  H
  H391     1.0000 0.84170  0.46660  0.92420  Biso   1.000  H
  H392     1.0000 0.84170  0.53340  0.07580  Biso   1.000  H
  H393     1.0000 0.92420  0.15830  0.53340  Biso   1.000  H
  H394     1.0000 0.07580  0.15830  0.46660  Biso   1.000  H
  H395     1.0000 0.92420  0.84170  0.46660  Biso   1.000  H
  H396     1.0000 0.07580  0.84170  0.53340  Biso   1.000  H
  H397     1.0000 0.42420  0.03340  0.65830  Biso   1.000  H
  H398     1.0000 0.57580  0.96660  0.65830  Biso   1.000  H
  H399     1.0000 0.42420  0.96660  0.34170  Biso   1.000  H
  H400     1.0000 0.57580  0.03340  0.34170  Biso   1.000  H
  H401     1.0000 0.03340  0.65830  0.42420  Biso   1.000  H
  H402     1.0000 0.96660  0.65830  0.57580  Biso   1.000  H
  H403     1.0000 0.96660  0.34170  0.42420  Biso   1.000  H
  H404     1.0000 0.03340  0.34170  0.57580  Biso   1.000  H
  H405     1.0000 0.65830  0.42420  0.03340  Biso   1.000  H
  H406     1.0000 0.65830  0.57580  0.96660  Biso   1.000  H
  H407     1.0000 0.34170  0.42420  0.96660  Biso   1.000  H
  H408     1.0000 0.34170  0.57580  0.03340  Biso   1.000  H
  H409     1.0000 0.53340  0.42420  0.65830  Biso   1.000  H
  H410     1.0000 0.46660  0.57580  0.65830  Biso   1.000  H
  H411     1.0000 0.46660  0.42420  0.34170  Biso   1.000  H
  H412     1.0000 0.53340  0.57580  0.34170  Biso   1.000  H
  H413     1.0000 0.15830  0.03340  0.42420  Biso   1.000  H
  H414     1.0000 0.15830  0.96660  0.57580  Biso   1.000  H
  H415     1.0000 0.84170  0.96660  0.42420  Biso   1.000  H
  H416     1.0000 0.84170  0.03340  0.57580  Biso   1.000  H
  H417     1.0000 0.92420  0.65830  0.03340  Biso   1.000  H
  H418     1.0000 0.07580  0.65830  0.96660  Biso   1.000  H
  H419     1.0000 0.92420  0.34170  0.96660  Biso   1.000  H
  H420     1.0000 0.07580  0.34170  0.03340  Biso   1.000  H
  H421     1.0000 0.42420  0.53340  0.15830  Biso   1.000  H
  H422     1.0000 0.57580  0.46660  0.15830  Biso   1.000  H
  H423     1.0000 0.42420  0.46660  0.84170  Biso   1.000  H
  H424     1.0000 0.57580  0.53340  0.84170  Biso   1.000  H
  H425     1.0000 0.03340  0.15830  0.92420  Biso   1.000  H
  H426     1.0000 0.96660  0.15830  0.07580  Biso   1.000  H
  H427     1.0000 0.96660  0.84170  0.92420  Biso   1.000  H
  H428     1.0000 0.03340  0.84170  0.07580  Biso   1.000  H
  H429     1.0000 0.65830  0.92420  0.53340  Biso   1.000  H
  H430     1.0000 0.65830  0.07580  0.46660  Biso   1.000  H
  H431     1.0000 0.34170  0.92420  0.46660  Biso   1.000  H
  H432     1.0000 0.34170  0.07580  0.53340  Biso   1.000  H
  H433     1.0000 0.03340  0.92420  0.65830  Biso   1.000  H
  H434     1.0000 0.96660  0.07580  0.65830  Biso   1.000  H
  H435     1.0000 0.96660  0.92420  0.34170  Biso   1.000  H
  H436     1.0000 0.03340  0.07580  0.34170  Biso   1.000  H
  H437     1.0000 0.65830  0.53340  0.42420  Biso   1.000  H
  H438     1.0000 0.65830  0.46660  0.57580  Biso   1.000  H
  H439     1.0000 0.34170  0.46660  0.42420  Biso   1.000  H
  H440     1.0000 0.34170  0.53340  0.57580  Biso   1.000  H
  H441     1.0000 0.42420  0.15830  0.03340  Biso   1.000  H
  H442     1.0000 0.57580  0.15830  0.96660  Biso   1.000  H
  H443     1.0000 0.42420  0.84170  0.96660  Biso   1.000  H
  H444     1.0000 0.57580  0.84170  0.03340  Biso   1.000  H
  H445     1.0000 0.92420  0.03340  0.15830  Biso   1.000  H
  H446     1.0000 0.07580  0.96660  0.15830  Biso   1.000  H
  H447     1.0000 0.92420  0.96660  0.84170  Biso   1.000  H
  H448     1.0000 0.07580  0.03340  0.84170  Biso   1.000  H
  H449     1.0000 0.53340  0.65830  0.92420  Biso   1.000  H
  H450     1.0000 0.46660  0.65830  0.07580  Biso   1.000  H
  H451     1.0000 0.46660  0.34170  0.92420  Biso   1.000  H
  H452     1.0000 0.53340  0.34170  0.07580  Biso   1.000  H
  H453     1.0000 0.15830  0.42420  0.53340  Biso   1.000  H
  H454     1.0000 0.15830  0.57580  0.46660  Biso   1.000  H
  H455     1.0000 0.84170  0.42420  0.46660  Biso   1.000  H
  H456     1.0000 0.84170  0.57580  0.53340  Biso   1.000  H
  H457     1.0000 0.03340  0.42420  0.15830  Biso   1.000  H
  H458     1.0000 0.96660  0.57580  0.15830  Biso   1.000  H
  H459     1.0000 0.96660  0.42420  0.84170  Biso   1.000  H
  H460     1.0000 0.03340  0.57580  0.84170  Biso   1.000  H
  H461     1.0000 0.65830  0.03340  0.92420  Biso   1.000  H
  H462     1.0000 0.65830  0.96660  0.07580  Biso   1.000  H
  H463     1.0000 0.34170  0.96660  0.92420  Biso   1.000  H
  H464     1.0000 0.34170  0.03340  0.07580  Biso   1.000  H
  H465     1.0000 0.42420  0.65830  0.53340  Biso   1.000  H
  H466     1.0000 0.57580  0.65830  0.46660  Biso   1.000  H
  H467     1.0000 0.42420  0.34170  0.46660  Biso   1.000  H
  H468     1.0000 0.57580  0.34170  0.53340  Biso   1.000  H
  H469     1.0000 0.92420  0.53340  0.65830  Biso   1.000  H
  H470     1.0000 0.07580  0.46660  0.65830  Biso   1.000  H
  H471     1.0000 0.92420  0.46660  0.34170  Biso   1.000  H
  H472     1.0000 0.07580  0.53340  0.34170  Biso   1.000  H
  H473     1.0000 0.53340  0.15830  0.42420  Biso   1.000  H
  H474     1.0000 0.46660  0.15830  0.57580  Biso   1.000  H
  H475     1.0000 0.46660  0.84170  0.42420  Biso   1.000  H
  H476     1.0000 0.53340  0.84170  0.57580  Biso   1.000  H
  H477     1.0000 0.15830  0.92420  0.03340  Biso   1.000  H
  H478     1.0000 0.15830  0.07580  0.96660  Biso   1.000  H
  H479     1.0000 0.84170  0.92420  0.96660  Biso   1.000  H
  H480     1.0000 0.84170  0.07580  0.03340  Biso   1.000  H
  C385     1.0000 0.52136  0.95571  0.17059  Biso   1.000  C
  C386     1.0000 0.47864  0.04429  0.17059  Biso   1.000  C
  C387     1.0000 0.47864  0.95571  0.82941  Biso   1.000  C
  C388     1.0000 0.52136  0.04429  0.82941  Biso   1.000  C
  C389     1.0000 0.17059  0.52136  0.95571  Biso   1.000  C
  C390     1.0000 0.17059  0.47864  0.04429  Biso   1.000  C
  C391     1.0000 0.82941  0.47864  0.95571  Biso   1.000  C
  C392     1.0000 0.82941  0.52136  0.04429  Biso   1.000  C
  C393     1.0000 0.95571  0.17059  0.52136  Biso   1.000  C
  C394     1.0000 0.04429  0.17059  0.47864  Biso   1.000  C
  C395     1.0000 0.95571  0.82941  0.47864  Biso   1.000  C
  C396     1.0000 0.04429  0.82941  0.52136  Biso   1.000  C
  C397     1.0000 0.45571  0.02136  0.67059  Biso   1.000  C
  C398     1.0000 0.54429  0.97864  0.67059  Biso   1.000  C
  C399     1.0000 0.45571  0.97864  0.32941  Biso   1.000  C
  C400     1.0000 0.54429  0.02136  0.32941  Biso   1.000  C
  C401     1.0000 0.02136  0.67059  0.45571  Biso   1.000  C
  C402     1.0000 0.97864  0.67059  0.54429  Biso   1.000  C
  C403     1.0000 0.97864  0.32941  0.45571  Biso   1.000  C
  C404     1.0000 0.02136  0.32941  0.54429  Biso   1.000  C
  C405     1.0000 0.67059  0.45571  0.02136  Biso   1.000  C
  C406     1.0000 0.67059  0.54429  0.97864  Biso   1.000  C
  C407     1.0000 0.32941  0.45571  0.97864  Biso   1.000  C
  C408     1.0000 0.32941  0.54429  0.02136  Biso   1.000  C
  C409     1.0000 0.52136  0.45571  0.67059  Biso   1.000  C
  C410     1.0000 0.47864  0.54429  0.67059  Biso   1.000  C
  C411     1.0000 0.47864  0.45571  0.32941  Biso   1.000  C
  C412     1.0000 0.52136  0.54429  0.32941  Biso   1.000  C
  C413     1.0000 0.17059  0.02136  0.45571  Biso   1.000  C
  C414     1.0000 0.17059  0.97864  0.54429  Biso   1.000  C
  C415     1.0000 0.82941  0.97864  0.45571  Biso   1.000  C
  C416     1.0000 0.82941  0.02136  0.54429  Biso   1.000  C
  C417     1.0000 0.95571  0.67059  0.02136  Biso   1.000  C
  C418     1.0000 0.04429  0.67059  0.97864  Biso   1.000  C
  C419     1.0000 0.95571  0.32941  0.97864  Biso   1.000  C
  C420     1.0000 0.04429  0.32941  0.02136  Biso   1.000  C
  C421     1.0000 0.45571  0.52136  0.17059  Biso   1.000  C
  C422     1.0000 0.54429  0.47864  0.17059  Biso   1.000  C
  C423     1.0000 0.45571  0.47864  0.82941  Biso   1.000  C
  C424     1.0000 0.54429  0.52136  0.82941  Biso   1.000  C
  C425     1.0000 0.02136  0.17059  0.95571  Biso   1.000  C
  C426     1.0000 0.97864  0.17059  0.04429  Biso   1.000  C
  C427     1.0000 0.97864  0.82941  0.95571  Biso   1.000  C
  C428     1.0000 0.02136  0.82941  0.04429  Biso   1.000  C
  C429     1.0000 0.67059  0.95571  0.52136  Biso   1.000  C
  C430     1.0000 0.67059  0.04429  0.47864  Biso   1.000  C
  C431     1.0000 0.32941  0.95571  0.47864  Biso   1.000  C
  C432     1.0000 0.32941  0.04429  0.52136  Biso   1.000  C
  C433     1.0000 0.02136  0.95571  0.67059  Biso   1.000  C
  C434     1.0000 0.97864  0.04429  0.67059  Biso   1.000  C
  C435     1.0000 0.97864  0.95571  0.32941  Biso   1.000  C
  C436     1.0000 0.02136  0.04429  0.32941  Biso   1.000  C
  C437     1.0000 0.67059  0.52136  0.45571  Biso   1.000  C
  C438     1.0000 0.67059  0.47864  0.54429  Biso   1.000  C
  C439     1.0000 0.32941  0.47864  0.45571  Biso   1.000  C
  C440     1.0000 0.32941  0.52136  0.54429  Biso   1.000  C
  C441     1.0000 0.45571  0.17059  0.02136  Biso   1.000  C
  C442     1.0000 0.54429  0.17059  0.97864  Biso   1.000  C
  C443     1.0000 0.45571  0.82941  0.97864  Biso   1.000  C
  C444     1.0000 0.54429  0.82941  0.02136  Biso   1.000  C
  C445     1.0000 0.95571  0.02136  0.17059  Biso   1.000  C
  C446     1.0000 0.04429  0.97864  0.17059  Biso   1.000  C
  C447     1.0000 0.95571  0.97864  0.82941  Biso   1.000  C
  C448     1.0000 0.04429  0.02136  0.82941  Biso   1.000  C
  C449     1.0000 0.52136  0.67059  0.95571  Biso   1.000  C
  C450     1.0000 0.47864  0.67059  0.04429  Biso   1.000  C
  C451     1.0000 0.47864  0.32941  0.95571  Biso   1.000  C
  C452     1.0000 0.52136  0.32941  0.04429  Biso   1.000  C
  C453     1.0000 0.17059  0.45571  0.52136  Biso   1.000  C
  C454     1.0000 0.17059  0.54429  0.47864  Biso   1.000  C
  C455     1.0000 0.82941  0.45571  0.47864  Biso   1.000  C
  C456     1.0000 0.82941  0.54429  0.52136  Biso   1.000  C
  C457     1.0000 0.02136  0.45571  0.17059  Biso   1.000  C
  C458     1.0000 0.97864  0.54429  0.17059  Biso   1.000  C
  C459     1.0000 0.97864  0.45571  0.82941  Biso   1.000  C
  C460     1.0000 0.02136  0.54429  0.82941  Biso   1.000  C
  C461     1.0000 0.67059  0.02136  0.95571  Biso   1.000  C
  C462     1.0000 0.67059  0.97864  0.04429  Biso   1.000  C
  C463     1.0000 0.32941  0.97864  0.95571  Biso   1.000  C
  C464     1.0000 0.32941  0.02136  0.04429  Biso   1.000  C
  C465     1.0000 0.45571  0.67059  0.52136  Biso   1.000  C
  C466     1.0000 0.54429  0.67059  0.47864  Biso   1.000  C
  C467     1.0000 0.45571  0.32941  0.47864  Biso   1.000  C
  C468     1.0000 0.54429  0.32941  0.52136  Biso   1.000  C
  C469     1.0000 0.95571  0.52136  0.67059  Biso   1.000  C
  C470     1.0000 0.04429  0.47864  0.67059  Biso   1.000  C
  C471     1.0000 0.95571  0.47864  0.32941  Biso   1.000  C
  C472     1.0000 0.04429  0.52136  0.32941  Biso   1.000  C
  C473     1.0000 0.52136  0.17059  0.45571  Biso   1.000  C
  C474     1.0000 0.47864  0.17059  0.54429  Biso   1.000  C
  C475     1.0000 0.47864  0.82941  0.45571  Biso   1.000  C
  C476     1.0000 0.52136  0.82941  0.54429  Biso   1.000  C
  C477     1.0000 0.17059  0.95571  0.02136  Biso   1.000  C
  C478     1.0000 0.17059  0.04429  0.97864  Biso   1.000  C
  C479     1.0000 0.82941  0.95571  0.97864  Biso   1.000  C
  C480     1.0000 0.82941  0.04429  0.02136  Biso   1.000  C
  H481     1.0000 0.50940  0.95720  0.15870  Biso   1.000  H
  H482     1.0000 0.49060  0.04280  0.15870  Biso   1.000  H
  H483     1.0000 0.49060  0.95720  0.84130  Biso   1.000  H
  H484     1.0000 0.50940  0.04280  0.84130  Biso   1.000  H
  H485     1.0000 0.15870  0.50940  0.95720  Biso   1.000  H
  H486     1.0000 0.15870  0.49060  0.04280  Biso   1.000  H
  H487     1.0000 0.84130  0.49060  0.95720  Biso   1.000  H
  H488     1.0000 0.84130  0.50940  0.04280  Biso   1.000  H
  H489     1.0000 0.95720  0.15870  0.50940  Biso   1.000  H
  H490     1.0000 0.04280  0.15870  0.49060  Biso   1.000  H
  H491     1.0000 0.95720  0.84130  0.49060  Biso   1.000  H
  H492     1.0000 0.04280  0.84130  0.50940  Biso   1.000  H
  H493     1.0000 0.45720  0.00940  0.65870  Biso   1.000  H
  H494     1.0000 0.54280  0.99060  0.65870  Biso   1.000  H
  H495     1.0000 0.45720  0.99060  0.34130  Biso   1.000  H
  H496     1.0000 0.54280  0.00940  0.34130  Biso   1.000  H
  H497     1.0000 0.00940  0.65870  0.45720  Biso   1.000  H
  H498     1.0000 0.99060  0.65870  0.54280  Biso   1.000  H
  H499     1.0000 0.99060  0.34130  0.45720  Biso   1.000  H
  H500     1.0000 0.00940  0.34130  0.54280  Biso   1.000  H
  H501     1.0000 0.65870  0.45720  0.00940  Biso   1.000  H
  H502     1.0000 0.65870  0.54280  0.99060  Biso   1.000  H
  H503     1.0000 0.34130  0.45720  0.99060  Biso   1.000  H
  H504     1.0000 0.34130  0.54280  0.00940  Biso   1.000  H
  H505     1.0000 0.50940  0.45720  0.65870  Biso   1.000  H
  H506     1.0000 0.49060  0.54280  0.65870  Biso   1.000  H
  H507     1.0000 0.49060  0.45720  0.34130  Biso   1.000  H
  H508     1.0000 0.50940  0.54280  0.34130  Biso   1.000  H
  H509     1.0000 0.15870  0.00940  0.45720  Biso   1.000  H
  H510     1.0000 0.15870  0.99060  0.54280  Biso   1.000  H
  H511     1.0000 0.84130  0.99060  0.45720  Biso   1.000  H
  H512     1.0000 0.84130  0.00940  0.54280  Biso   1.000  H
  H513     1.0000 0.95720  0.65870  0.00940  Biso   1.000  H
  H514     1.0000 0.04280  0.65870  0.99060  Biso   1.000  H
  H515     1.0000 0.95720  0.34130  0.99060  Biso   1.000  H
  H516     1.0000 0.04280  0.34130  0.00940  Biso   1.000  H
  H517     1.0000 0.45720  0.50940  0.15870  Biso   1.000  H
  H518     1.0000 0.54280  0.49060  0.15870  Biso   1.000  H
  H519     1.0000 0.45720  0.49060  0.84130  Biso   1.000  H
  H520     1.0000 0.54280  0.50940  0.84130  Biso   1.000  H
  H521     1.0000 0.00940  0.15870  0.95720  Biso   1.000  H
  H522     1.0000 0.99060  0.15870  0.04280  Biso   1.000  H
  H523     1.0000 0.99060  0.84130  0.95720  Biso   1.000  H
  H524     1.0000 0.00940  0.84130  0.04280  Biso   1.000  H
  H525     1.0000 0.65870  0.95720  0.50940  Biso   1.000  H
  H526     1.0000 0.65870  0.04280  0.49060  Biso   1.000  H
  H527     1.0000 0.34130  0.95720  0.49060  Biso   1.000  H
  H528     1.0000 0.34130  0.04280  0.50940  Biso   1.000  H
  H529     1.0000 0.00940  0.95720  0.65870  Biso   1.000  H
  H530     1.0000 0.99060  0.04280  0.65870  Biso   1.000  H
  H531     1.0000 0.99060  0.95720  0.34130  Biso   1.000  H
  H532     1.0000 0.00940  0.04280  0.34130  Biso   1.000  H
  H533     1.0000 0.65870  0.50940  0.45720  Biso   1.000  H
  H534     1.0000 0.65870  0.49060  0.54280  Biso   1.000  H
  H535     1.0000 0.34130  0.49060  0.45720  Biso   1.000  H
  H536     1.0000 0.34130  0.50940  0.54280  Biso   1.000  H
  H537     1.0000 0.45720  0.15870  0.00940  Biso   1.000  H
  H538     1.0000 0.54280  0.15870  0.99060  Biso   1.000  H
  H539     1.0000 0.45720  0.84130  0.99060  Biso   1.000  H
  H540     1.0000 0.54280  0.84130  0.00940  Biso   1.000  H
  H541     1.0000 0.95720  0.00940  0.15870  Biso   1.000  H
  H542     1.0000 0.04280  0.99060  0.15870  Biso   1.000  H
  H543     1.0000 0.95720  0.99060  0.84130  Biso   1.000  H
  H544     1.0000 0.04280  0.00940  0.84130  Biso   1.000  H
  H545     1.0000 0.50940  0.65870  0.95720  Biso   1.000  H
  H546     1.0000 0.49060  0.65870  0.04280  Biso   1.000  H
  H547     1.0000 0.49060  0.34130  0.95720  Biso   1.000  H
  H548     1.0000 0.50940  0.34130  0.04280  Biso   1.000  H
  H549     1.0000 0.15870  0.45720  0.50940  Biso   1.000  H
  H550     1.0000 0.15870  0.54280  0.49060  Biso   1.000  H
  H551     1.0000 0.84130  0.45720  0.49060  Biso   1.000  H
  H552     1.0000 0.84130  0.54280  0.50940  Biso   1.000  H
  H553     1.0000 0.00940  0.45720  0.15870  Biso   1.000  H
  H554     1.0000 0.99060  0.54280  0.15870  Biso   1.000  H
  H555     1.0000 0.99060  0.45720  0.84130  Biso   1.000  H
  H556     1.0000 0.00940  0.54280  0.84130  Biso   1.000  H
  H557     1.0000 0.65870  0.00940  0.95720  Biso   1.000  H
  H558     1.0000 0.65870  0.99060  0.04280  Biso   1.000  H
  H559     1.0000 0.34130  0.99060  0.95720  Biso   1.000  H
  H560     1.0000 0.34130  0.00940  0.04280  Biso   1.000  H
  H561     1.0000 0.45720  0.65870  0.50940  Biso   1.000  H
  H562     1.0000 0.54280  0.65870  0.49060  Biso   1.000  H
  H563     1.0000 0.45720  0.34130  0.49060  Biso   1.000  H
  H564     1.0000 0.54280  0.34130  0.50940  Biso   1.000  H
  H565     1.0000 0.95720  0.50940  0.65870  Biso   1.000  H
  H566     1.0000 0.04280  0.49060  0.65870  Biso   1.000  H
  H567     1.0000 0.95720  0.49060  0.34130  Biso   1.000  H
  H568     1.0000 0.04280  0.50940  0.34130  Biso   1.000  H
  H569     1.0000 0.50940  0.15870  0.45720  Biso   1.000  H
  H570     1.0000 0.49060  0.15870  0.54280  Biso   1.000  H
  H571     1.0000 0.49060  0.84130  0.45720  Biso   1.000  H
  H572     1.0000 0.50940  0.84130  0.54280  Biso   1.000  H
  H573     1.0000 0.15870  0.95720  0.00940  Biso   1.000  H
  H574     1.0000 0.15870  0.04280  0.99060  Biso   1.000  H
  H575     1.0000 0.84130  0.95720  0.99060  Biso   1.000  H
  H576     1.0000 0.84130  0.04280  0.00940  Biso   1.000  H
  C481     1.0000 0.56790  0.91065  0.18770  Biso   1.000  C
  C482     1.0000 0.43210  0.08935  0.18770  Biso   1.000  C
  C483     1.0000 0.43210  0.91065  0.81230  Biso   1.000  C
  C484     1.0000 0.56790  0.08935  0.81230  Biso   1.000  C
  C485     1.0000 0.18770  0.56790  0.91065  Biso   1.000  C
  C486     1.0000 0.18770  0.43210  0.08935  Biso   1.000  C
  C487     1.0000 0.81230  0.43210  0.91065  Biso   1.000  C
  C488     1.0000 0.81230  0.56790  0.08935  Biso   1.000  C
  C489     1.0000 0.91065  0.18770  0.56790  Biso   1.000  C
  C490     1.0000 0.08935  0.18770  0.43210  Biso   1.000  C
  C491     1.0000 0.91065  0.81230  0.43210  Biso   1.000  C
  C492     1.0000 0.08935  0.81230  0.56790  Biso   1.000  C
  C493     1.0000 0.41065  0.06790  0.68770  Biso   1.000  C
  C494     1.0000 0.58935  0.93210  0.68770  Biso   1.000  C
  C495     1.0000 0.41065  0.93210  0.31230  Biso   1.000  C
  C496     1.0000 0.58935  0.06790  0.31230  Biso   1.000  C
  C497     1.0000 0.06790  0.68770  0.41065  Biso   1.000  C
  C498     1.0000 0.93210  0.68770  0.58935  Biso   1.000  C
  C499     1.0000 0.93210  0.31230  0.41065  Biso   1.000  C
  C500     1.0000 0.06790  0.31230  0.58935  Biso   1.000  C
  C501     1.0000 0.68770  0.41065  0.06790  Biso   1.000  C
  C502     1.0000 0.68770  0.58935  0.93210  Biso   1.000  C
  C503     1.0000 0.31230  0.41065  0.93210  Biso   1.000  C
  C504     1.0000 0.31230  0.58935  0.06790  Biso   1.000  C
  C505     1.0000 0.56790  0.41065  0.68770  Biso   1.000  C
  C506     1.0000 0.43210  0.58935  0.68770  Biso   1.000  C
  C507     1.0000 0.43210  0.41065  0.31230  Biso   1.000  C
  C508     1.0000 0.56790  0.58935  0.31230  Biso   1.000  C
  C509     1.0000 0.18770  0.06790  0.41065  Biso   1.000  C
  C510     1.0000 0.18770  0.93210  0.58935  Biso   1.000  C
  C511     1.0000 0.81230  0.93210  0.41065  Biso   1.000  C
  C512     1.0000 0.81230  0.06790  0.58935  Biso   1.000  C
  C513     1.0000 0.91065  0.68770  0.06790  Biso   1.000  C
  C514     1.0000 0.08935  0.68770  0.93210  Biso   1.000  C
  C515     1.0000 0.91065  0.31230  0.93210  Biso   1.000  C
  C516     1.0000 0.08935  0.31230  0.06790  Biso   1.000  C
  C517     1.0000 0.41065  0.56790  0.18770  Biso   1.000  C
  C518     1.0000 0.58935  0.43210  0.18770  Biso   1.000  C
  C519     1.0000 0.41065  0.43210  0.81230  Biso   1.000  C
  C520     1.0000 0.58935  0.56790  0.81230  Biso   1.000  C
  C521     1.0000 0.06790  0.18770  0.91065  Biso   1.000  C
  C522     1.0000 0.93210  0.18770  0.08935  Biso   1.000  C
  C523     1.0000 0.93210  0.81230  0.91065  Biso   1.000  C
  C524     1.0000 0.06790  0.81230  0.08935  Biso   1.000  C
  C525     1.0000 0.68770  0.91065  0.56790  Biso   1.000  C
  C526     1.0000 0.68770  0.08935  0.43210  Biso   1.000  C
  C527     1.0000 0.31230  0.91065  0.43210  Biso   1.000  C
  C528     1.0000 0.31230  0.08935  0.56790  Biso   1.000  C
  C529     1.0000 0.06790  0.91065  0.68770  Biso   1.000  C
  C530     1.0000 0.93210  0.08935  0.68770  Biso   1.000  C
  C531     1.0000 0.93210  0.91065  0.31230  Biso   1.000  C
  C532     1.0000 0.06790  0.08935  0.31230  Biso   1.000  C
  C533     1.0000 0.68770  0.56790  0.41065  Biso   1.000  C
  C534     1.0000 0.68770  0.43210  0.58935  Biso   1.000  C
  C535     1.0000 0.31230  0.43210  0.41065  Biso   1.000  C
  C536     1.0000 0.31230  0.56790  0.58935  Biso   1.000  C
  C537     1.0000 0.41065  0.18770  0.06790  Biso   1.000  C
  C538     1.0000 0.58935  0.18770  0.93210  Biso   1.000  C
  C539     1.0000 0.41065  0.81230  0.93210  Biso   1.000  C
  C540     1.0000 0.58935  0.81230  0.06790  Biso   1.000  C
  C541     1.0000 0.91065  0.06790  0.18770  Biso   1.000  C
  C542     1.0000 0.08935  0.93210  0.18770  Biso   1.000  C
  C543     1.0000 0.91065  0.93210  0.81230  Biso   1.000  C
  C544     1.0000 0.08935  0.06790  0.81230  Biso   1.000  C
  C545     1.0000 0.56790  0.68770  0.91065  Biso   1.000  C
  C546     1.0000 0.43210  0.68770  0.08935  Biso   1.000  C
  C547     1.0000 0.43210  0.31230  0.91065  Biso   1.000  C
  C548     1.0000 0.56790  0.31230  0.08935  Biso   1.000  C
  C549     1.0000 0.18770  0.41065  0.56790  Biso   1.000  C
  C550     1.0000 0.18770  0.58935  0.43210  Biso   1.000  C
  C551     1.0000 0.81230  0.41065  0.43210  Biso   1.000  C
  C552     1.0000 0.81230  0.58935  0.56790  Biso   1.000  C
  C553     1.0000 0.06790  0.41065  0.18770  Biso   1.000  C
  C554     1.0000 0.93210  0.58935  0.18770  Biso   1.000  C
  C555     1.0000 0.93210  0.41065  0.81230  Biso   1.000  C
  C556     1.0000 0.06790  0.58935  0.81230  Biso   1.000  C
  C557     1.0000 0.68770  0.06790  0.91065  Biso   1.000  C
  C558     1.0000 0.68770  0.93210  0.08935  Biso   1.000  C
  C559     1.0000 0.31230  0.93210  0.91065  Biso   1.000  C
  C560     1.0000 0.31230  0.06790  0.08935  Biso   1.000  C
  C561     1.0000 0.41065  0.68770  0.56790  Biso   1.000  C
  C562     1.0000 0.58935  0.68770  0.43210  Biso   1.000  C
  C563     1.0000 0.41065  0.31230  0.43210  Biso   1.000  C
  C564     1.0000 0.58935  0.31230  0.56790  Biso   1.000  C
  C565     1.0000 0.91065  0.56790  0.68770  Biso   1.000  C
  C566     1.0000 0.08935  0.43210  0.68770  Biso   1.000  C
  C567     1.0000 0.91065  0.43210  0.31230  Biso   1.000  C
  C568     1.0000 0.08935  0.56790  0.31230  Biso   1.000  C
  C569     1.0000 0.56790  0.18770  0.41065  Biso   1.000  C
  C570     1.0000 0.43210  0.18770  0.58935  Biso   1.000  C
  C571     1.0000 0.43210  0.81230  0.41065  Biso   1.000  C
  C572     1.0000 0.56790  0.81230  0.58935  Biso   1.000  C
  C573     1.0000 0.18770  0.91065  0.06790  Biso   1.000  C
  C574     1.0000 0.18770  0.08935  0.93210  Biso   1.000  C
  C575     1.0000 0.81230  0.91065  0.93210  Biso   1.000  C
  C576     1.0000 0.81230  0.08935  0.06790  Biso   1.000  C
  H577     1.0000 0.57860  0.91090  0.20180  Biso   1.000  H
  H578     1.0000 0.42140  0.08910  0.20180  Biso   1.000  H
  H579     1.0000 0.42140  0.91090  0.79820  Biso   1.000  H
  H580     1.0000 0.57860  0.08910  0.79820  Biso   1.000  H
  H581     1.0000 0.20180  0.57860  0.91090  Biso   1.000  H
  H582     1.0000 0.20180  0.42140  0.08910  Biso   1.000  H
  H583     1.0000 0.79820  0.42140  0.91090  Biso   1.000  H
  H584     1.0000 0.79820  0.57860  0.08910  Biso   1.000  H
  H585     1.0000 0.91090  0.20180  0.57860  Biso   1.000  H
  H586     1.0000 0.08910  0.20180  0.42140  Biso   1.000  H
  H587     1.0000 0.91090  0.79820  0.42140  Biso   1.000  H
  H588     1.0000 0.08910  0.79820  0.57860  Biso   1.000  H
  H589     1.0000 0.41090  0.07860  0.70180  Biso   1.000  H
  H590     1.0000 0.58910  0.92140  0.70180  Biso   1.000  H
  H591     1.0000 0.41090  0.92140  0.29820  Biso   1.000  H
  H592     1.0000 0.58910  0.07860  0.29820  Biso   1.000  H
  H593     1.0000 0.07860  0.70180  0.41090  Biso   1.000  H
  H594     1.0000 0.92140  0.70180  0.58910  Biso   1.000  H
  H595     1.0000 0.92140  0.29820  0.41090  Biso   1.000  H
  H596     1.0000 0.07860  0.29820  0.58910  Biso   1.000  H
  H597     1.0000 0.70180  0.41090  0.07860  Biso   1.000  H
  H598     1.0000 0.70180  0.58910  0.92140  Biso   1.000  H
  H599     1.0000 0.29820  0.41090  0.92140  Biso   1.000  H
  H600     1.0000 0.29820  0.58910  0.07860  Biso   1.000  H
  H601     1.0000 0.57860  0.41090  0.70180  Biso   1.000  H
  H602     1.0000 0.42140  0.58910  0.70180  Biso   1.000  H
  H603     1.0000 0.42140  0.41090  0.29820  Biso   1.000  H
  H604     1.0000 0.57860  0.58910  0.29820  Biso   1.000  H
  H605     1.0000 0.20180  0.07860  0.41090  Biso   1.000  H
  H606     1.0000 0.20180  0.92140  0.58910  Biso   1.000  H
  H607     1.0000 0.79820  0.92140  0.41090  Biso   1.000  H
  H608     1.0000 0.79820  0.07860  0.58910  Biso   1.000  H
  H609     1.0000 0.91090  0.70180  0.07860  Biso   1.000  H
  H610     1.0000 0.08910  0.70180  0.92140  Biso   1.000  H
  H611     1.0000 0.91090  0.29820  0.92140  Biso   1.000  H
  H612     1.0000 0.08910  0.29820  0.07860  Biso   1.000  H
  H613     1.0000 0.41090  0.57860  0.20180  Biso   1.000  H
  H614     1.0000 0.58910  0.42140  0.20180  Biso   1.000  H
  H615     1.0000 0.41090  0.42140  0.79820  Biso   1.000  H
  H616     1.0000 0.58910  0.57860  0.79820  Biso   1.000  H
  H617     1.0000 0.07860  0.20180  0.91090  Biso   1.000  H
  H618     1.0000 0.92140  0.20180  0.08910  Biso   1.000  H
  H619     1.0000 0.92140  0.79820  0.91090  Biso   1.000  H
  H620     1.0000 0.07860  0.79820  0.08910  Biso   1.000  H
  H621     1.0000 0.70180  0.91090  0.57860  Biso   1.000  H
  H622     1.0000 0.70180  0.08910  0.42140  Biso   1.000  H
  H623     1.0000 0.29820  0.91090  0.42140  Biso   1.000  H
  H624     1.0000 0.29820  0.08910  0.57860  Biso   1.000  H
  H625     1.0000 0.07860  0.91090  0.70180  Biso   1.000  H
  H626     1.0000 0.92140  0.08910  0.70180  Biso   1.000  H
  H627     1.0000 0.92140  0.91090  0.29820  Biso   1.000  H
  H628     1.0000 0.07860  0.08910  0.29820  Biso   1.000  H
  H629     1.0000 0.70180  0.57860  0.41090  Biso   1.000  H
  H630     1.0000 0.70180  0.42140  0.58910  Biso   1.000  H
  H631     1.0000 0.29820  0.42140  0.41090  Biso   1.000  H
  H632     1.0000 0.29820  0.57860  0.58910  Biso   1.000  H
  H633     1.0000 0.41090  0.20180  0.07860  Biso   1.000  H
  H634     1.0000 0.58910  0.20180  0.92140  Biso   1.000  H
  H635     1.0000 0.41090  0.79820  0.92140  Biso   1.000  H
  H636     1.0000 0.58910  0.79820  0.07860  Biso   1.000  H
  H637     1.0000 0.91090  0.07860  0.20180  Biso   1.000  H
  H638     1.0000 0.08910  0.92140  0.20180  Biso   1.000  H
  H639     1.0000 0.91090  0.92140  0.79820  Biso   1.000  H
  H640     1.0000 0.08910  0.07860  0.79820  Biso   1.000  H
  H641     1.0000 0.57860  0.70180  0.91090  Biso   1.000  H
  H642     1.0000 0.42140  0.70180  0.08910  Biso   1.000  H
  H643     1.0000 0.42140  0.29820  0.91090  Biso   1.000  H
  H644     1.0000 0.57860  0.29820  0.08910  Biso   1.000  H
  H645     1.0000 0.20180  0.41090  0.57860  Biso   1.000  H
  H646     1.0000 0.20180  0.58910  0.42140  Biso   1.000  H
  H647     1.0000 0.79820  0.41090  0.42140  Biso   1.000  H
  H648     1.0000 0.79820  0.58910  0.57860  Biso   1.000  H
  H649     1.0000 0.07860  0.41090  0.20180  Biso   1.000  H
  H650     1.0000 0.92140  0.58910  0.20180  Biso   1.000  H
  H651     1.0000 0.92140  0.41090  0.79820  Biso   1.000  H
  H652     1.0000 0.07860  0.58910  0.79820  Biso   1.000  H
  H653     1.0000 0.70180  0.07860  0.91090  Biso   1.000  H
  H654     1.0000 0.70180  0.92140  0.08910  Biso   1.000  H
  H655     1.0000 0.29820  0.92140  0.91090  Biso   1.000  H
  H656     1.0000 0.29820  0.07860  0.08910  Biso   1.000  H
  H657     1.0000 0.41090  0.70180  0.57860  Biso   1.000  H
  H658     1.0000 0.58910  0.70180  0.42140  Biso   1.000  H
  H659     1.0000 0.41090  0.29820  0.42140  Biso   1.000  H
  H660     1.0000 0.58910  0.29820  0.57860  Biso   1.000  H
  H661     1.0000 0.91090  0.57860  0.70180  Biso   1.000  H
  H662     1.0000 0.08910  0.42140  0.70180  Biso   1.000  H
  H663     1.0000 0.91090  0.42140  0.29820  Biso   1.000  H
  H664     1.0000 0.08910  0.57860  0.29820  Biso   1.000  H
  H665     1.0000 0.57860  0.20180  0.41090  Biso   1.000  H
  H666     1.0000 0.42140  0.20180  0.58910  Biso   1.000  H
  H667     1.0000 0.42140  0.79820  0.41090  Biso   1.000  H
  H668     1.0000 0.57860  0.79820  0.58910  Biso   1.000  H
  H669     1.0000 0.20180  0.91090  0.07860  Biso   1.000  H
  H670     1.0000 0.20180  0.08910  0.92140  Biso   1.000  H
  H671     1.0000 0.79820  0.91090  0.92140  Biso   1.000  H
  H672     1.0000 0.79820  0.08910  0.07860  Biso   1.000  H
  H673     1.0000 0.55740  0.89650  0.18910  Biso   1.000  H
  H674     1.0000 0.44260  0.10350  0.18910  Biso   1.000  H
  H675     1.0000 0.44260  0.89650  0.81090  Biso   1.000  H
  H676     1.0000 0.55740  0.10350  0.81090  Biso   1.000  H
  H677     1.0000 0.18910  0.55740  0.89650  Biso   1.000  H
  H678     1.0000 0.18910  0.44260  0.10350  Biso   1.000  H
  H679     1.0000 0.81090  0.44260  0.89650  Biso   1.000  H
  H680     1.0000 0.81090  0.55740  0.10350  Biso   1.000  H
  H681     1.0000 0.89650  0.18910  0.55740  Biso   1.000  H
  H682     1.0000 0.10350  0.18910  0.44260  Biso   1.000  H
  H683     1.0000 0.89650  0.81090  0.44260  Biso   1.000  H
  H684     1.0000 0.10350  0.81090  0.55740  Biso   1.000  H
  H685     1.0000 0.39650  0.05740  0.68910  Biso   1.000  H
  H686     1.0000 0.60350  0.94260  0.68910  Biso   1.000  H
  H687     1.0000 0.39650  0.94260  0.31090  Biso   1.000  H
  H688     1.0000 0.60350  0.05740  0.31090  Biso   1.000  H
  H689     1.0000 0.05740  0.68910  0.39650  Biso   1.000  H
  H690     1.0000 0.94260  0.68910  0.60350  Biso   1.000  H
  H691     1.0000 0.94260  0.31090  0.39650  Biso   1.000  H
  H692     1.0000 0.05740  0.31090  0.60350  Biso   1.000  H
  H693     1.0000 0.68910  0.39650  0.05740  Biso   1.000  H
  H694     1.0000 0.68910  0.60350  0.94260  Biso   1.000  H
  H695     1.0000 0.31090  0.39650  0.94260  Biso   1.000  H
  H696     1.0000 0.31090  0.60350  0.05740  Biso   1.000  H
  H697     1.0000 0.55740  0.39650  0.68910  Biso   1.000  H
  H698     1.0000 0.44260  0.60350  0.68910  Biso   1.000  H
  H699     1.0000 0.44260  0.39650  0.31090  Biso   1.000  H
  H700     1.0000 0.55740  0.60350  0.31090  Biso   1.000  H
  H701     1.0000 0.18910  0.05740  0.39650  Biso   1.000  H
  H702     1.0000 0.18910  0.94260  0.60350  Biso   1.000  H
  H703     1.0000 0.81090  0.94260  0.39650  Biso   1.000  H
  H704     1.0000 0.81090  0.05740  0.60350  Biso   1.000  H
  H705     1.0000 0.89650  0.68910  0.05740  Biso   1.000  H
  H706     1.0000 0.10350  0.68910  0.94260  Biso   1.000  H
  H707     1.0000 0.89650  0.31090  0.94260  Biso   1.000  H
  H708     1.0000 0.10350  0.31090  0.05740  Biso   1.000  H
  H709     1.0000 0.39650  0.55740  0.18910  Biso   1.000  H
  H710     1.0000 0.60350  0.44260  0.18910  Biso   1.000  H
  H711     1.0000 0.39650  0.44260  0.81090  Biso   1.000  H
  H712     1.0000 0.60350  0.55740  0.81090  Biso   1.000  H
  H713     1.0000 0.05740  0.18910  0.89650  Biso   1.000  H
  H714     1.0000 0.94260  0.18910  0.10350  Biso   1.000  H
  H715     1.0000 0.94260  0.81090  0.89650  Biso   1.000  H
  H716     1.0000 0.05740  0.81090  0.10350  Biso   1.000  H
  H717     1.0000 0.68910  0.89650  0.55740  Biso   1.000  H
  H718     1.0000 0.68910  0.10350  0.44260  Biso   1.000  H
  H719     1.0000 0.31090  0.89650  0.44260  Biso   1.000  H
  H720     1.0000 0.31090  0.10350  0.55740  Biso   1.000  H
  H721     1.0000 0.05740  0.89650  0.68910  Biso   1.000  H
  H722     1.0000 0.94260  0.10350  0.68910  Biso   1.000  H
  H723     1.0000 0.94260  0.89650  0.31090  Biso   1.000  H
  H724     1.0000 0.05740  0.10350  0.31090  Biso   1.000  H
  H725     1.0000 0.68910  0.55740  0.39650  Biso   1.000  H
  H726     1.0000 0.68910  0.44260  0.60350  Biso   1.000  H
  H727     1.0000 0.31090  0.44260  0.39650  Biso   1.000  H
  H728     1.0000 0.31090  0.55740  0.60350  Biso   1.000  H
  H729     1.0000 0.39650  0.18910  0.05740  Biso   1.000  H
  H730     1.0000 0.60350  0.18910  0.94260  Biso   1.000  H
  H731     1.0000 0.39650  0.81090  0.94260  Biso   1.000  H
  H732     1.0000 0.60350  0.81090  0.05740  Biso   1.000  H
  H733     1.0000 0.89650  0.05740  0.18910  Biso   1.000  H
  H734     1.0000 0.10350  0.94260  0.18910  Biso   1.000  H
  H735     1.0000 0.89650  0.94260  0.81090  Biso   1.000  H
  H736     1.0000 0.10350  0.05740  0.81090  Biso   1.000  H
  H737     1.0000 0.55740  0.68910  0.89650  Biso   1.000  H
  H738     1.0000 0.44260  0.68910  0.10350  Biso   1.000  H
  H739     1.0000 0.44260  0.31090  0.89650  Biso   1.000  H
  H740     1.0000 0.55740  0.31090  0.10350  Biso   1.000  H
  H741     1.0000 0.18910  0.39650  0.55740  Biso   1.000  H
  H742     1.0000 0.18910  0.60350  0.44260  Biso   1.000  H
  H743     1.0000 0.81090  0.39650  0.44260  Biso   1.000  H
  H744     1.0000 0.81090  0.60350  0.55740  Biso   1.000  H
  H745     1.0000 0.05740  0.39650  0.18910  Biso   1.000  H
  H746     1.0000 0.94260  0.60350  0.18910  Biso   1.000  H
  H747     1.0000 0.94260  0.39650  0.81090  Biso   1.000  H
  H748     1.0000 0.05740  0.60350  0.81090  Biso   1.000  H
  H749     1.0000 0.68910  0.05740  0.89650  Biso   1.000  H
  H750     1.0000 0.68910  0.94260  0.10350  Biso   1.000  H
  H751     1.0000 0.31090  0.94260  0.89650  Biso   1.000  H
  H752     1.0000 0.31090  0.05740  0.10350  Biso   1.000  H
  H753     1.0000 0.39650  0.68910  0.55740  Biso   1.000  H
  H754     1.0000 0.60350  0.68910  0.44260  Biso   1.000  H
  H755     1.0000 0.39650  0.31090  0.44260  Biso   1.000  H
  H756     1.0000 0.60350  0.31090  0.55740  Biso   1.000  H
  H757     1.0000 0.89650  0.55740  0.68910  Biso   1.000  H
  H758     1.0000 0.10350  0.44260  0.68910  Biso   1.000  H
  H759     1.0000 0.89650  0.44260  0.31090  Biso   1.000  H
  H760     1.0000 0.10350  0.55740  0.31090  Biso   1.000  H
  H761     1.0000 0.55740  0.18910  0.39650  Biso   1.000  H
  H762     1.0000 0.44260  0.18910  0.60350  Biso   1.000  H
  H763     1.0000 0.44260  0.81090  0.39650  Biso   1.000  H
  H764     1.0000 0.55740  0.81090  0.60350  Biso   1.000  H
  H765     1.0000 0.18910  0.89650  0.05740  Biso   1.000  H
  H766     1.0000 0.18910  0.10350  0.94260  Biso   1.000  H
  H767     1.0000 0.81090  0.89650  0.94260  Biso   1.000  H
  H768     1.0000 0.81090  0.10350  0.05740  Biso   1.000  H
  C577     1.0000 0.57441  0.89715  0.14664  Biso   1.000  C
  C578     1.0000 0.42559  0.10285  0.14664  Biso   1.000  C
  C579     1.0000 0.42559  0.89715  0.85336  Biso   1.000  C
  C580     1.0000 0.57441  0.10285  0.85336  Biso   1.000  C
  C581     1.0000 0.14664  0.57441  0.89715  Biso   1.000  C
  C582     1.0000 0.14664  0.42559  0.10285  Biso   1.000  C
  C583     1.0000 0.85336  0.42559  0.89715  Biso   1.000  C
  C584     1.0000 0.85336  0.57441  0.10285  Biso   1.000  C
  C585     1.0000 0.89715  0.14664  0.57441  Biso   1.000  C
  C586     1.0000 0.10285  0.14664  0.42559  Biso   1.000  C
  C587     1.0000 0.89715  0.85336  0.42559  Biso   1.000  C
  C588     1.0000 0.10285  0.85336  0.57441  Biso   1.000  C
  C589     1.0000 0.39715  0.07441  0.64664  Biso   1.000  C
  C590     1.0000 0.60285  0.92559  0.64664  Biso   1.000  C
  C591     1.0000 0.39715  0.92559  0.35336  Biso   1.000  C
  C592     1.0000 0.60285  0.07441  0.35336  Biso   1.000  C
  C593     1.0000 0.07441  0.64664  0.39715  Biso   1.000  C
  C594     1.0000 0.92559  0.64664  0.60285  Biso   1.000  C
  C595     1.0000 0.92559  0.35336  0.39715  Biso   1.000  C
  C596     1.0000 0.07441  0.35336  0.60285  Biso   1.000  C
  C597     1.0000 0.64664  0.39715  0.07441  Biso   1.000  C
  C598     1.0000 0.64664  0.60285  0.92559  Biso   1.000  C
  C599     1.0000 0.35336  0.39715  0.92559  Biso   1.000  C
  C600     1.0000 0.35336  0.60285  0.07441  Biso   1.000  C
  C601     1.0000 0.57441  0.39715  0.64664  Biso   1.000  C
  C602     1.0000 0.42559  0.60285  0.64664  Biso   1.000  C
  C603     1.0000 0.42559  0.39715  0.35336  Biso   1.000  C
  C604     1.0000 0.57441  0.60285  0.35336  Biso   1.000  C
  C605     1.0000 0.14664  0.07441  0.39715  Biso   1.000  C
  C606     1.0000 0.14664  0.92559  0.60285  Biso   1.000  C
  C607     1.0000 0.85336  0.92559  0.39715  Biso   1.000  C
  C608     1.0000 0.85336  0.07441  0.60285  Biso   1.000  C
  C609     1.0000 0.89715  0.64664  0.07441  Biso   1.000  C
  C610     1.0000 0.10285  0.64664  0.92559  Biso   1.000  C
  C611     1.0000 0.89715  0.35336  0.92559  Biso   1.000  C
  C612     1.0000 0.10285  0.35336  0.07441  Biso   1.000  C
  C613     1.0000 0.39715  0.57441  0.14664  Biso   1.000  C
  C614     1.0000 0.60285  0.42559  0.14664  Biso   1.000  C
  C615     1.0000 0.39715  0.42559  0.85336  Biso   1.000  C
  C616     1.0000 0.60285  0.57441  0.85336  Biso   1.000  C
  C617     1.0000 0.07441  0.14664  0.89715  Biso   1.000  C
  C618     1.0000 0.92559  0.14664  0.10285  Biso   1.000  C
  C619     1.0000 0.92559  0.85336  0.89715  Biso   1.000  C
  C620     1.0000 0.07441  0.85336  0.10285  Biso   1.000  C
  C621     1.0000 0.64664  0.89715  0.57441  Biso   1.000  C
  C622     1.0000 0.64664  0.10285  0.42559  Biso   1.000  C
  C623     1.0000 0.35336  0.89715  0.42559  Biso   1.000  C
  C624     1.0000 0.35336  0.10285  0.57441  Biso   1.000  C
  C625     1.0000 0.07441  0.89715  0.64664  Biso   1.000  C
  C626     1.0000 0.92559  0.10285  0.64664  Biso   1.000  C
  C627     1.0000 0.92559  0.89715  0.35336  Biso   1.000  C
  C628     1.0000 0.07441  0.10285  0.35336  Biso   1.000  C
  C629     1.0000 0.64664  0.57441  0.39715  Biso   1.000  C
  C630     1.0000 0.64664  0.42559  0.60285  Biso   1.000  C
  C631     1.0000 0.35336  0.42559  0.39715  Biso   1.000  C
  C632     1.0000 0.35336  0.57441  0.60285  Biso   1.000  C
  C633     1.0000 0.39715  0.14664  0.07441  Biso   1.000  C
  C634     1.0000 0.60285  0.14664  0.92559  Biso   1.000  C
  C635     1.0000 0.39715  0.85336  0.92559  Biso   1.000  C
  C636     1.0000 0.60285  0.85336  0.07441  Biso   1.000  C
  C637     1.0000 0.89715  0.07441  0.14664  Biso   1.000  C
  C638     1.0000 0.10285  0.92559  0.14664  Biso   1.000  C
  C639     1.0000 0.89715  0.92559  0.85336  Biso   1.000  C
  C640     1.0000 0.10285  0.07441  0.85336  Biso   1.000  C
  C641     1.0000 0.57441  0.64664  0.89715  Biso   1.000  C
  C642     1.0000 0.42559  0.64664  0.10285  Biso   1.000  C
  C643     1.0000 0.42559  0.35336  0.89715  Biso   1.000  C
  C644     1.0000 0.57441  0.35336  0.10285  Biso   1.000  C
  C645     1.0000 0.14664  0.39715  0.57441  Biso   1.000  C
  C646     1.0000 0.14664  0.60285  0.42559  Biso   1.000  C
  C647     1.0000 0.85336  0.39715  0.42559  Biso   1.000  C
  C648     1.0000 0.85336  0.60285  0.57441  Biso   1.000  C
  C649     1.0000 0.07441  0.39715  0.14664  Biso   1.000  C
  C650     1.0000 0.92559  0.60285  0.14664  Biso   1.000  C
  C651     1.0000 0.92559  0.39715  0.85336  Biso   1.000  C
  C652     1.0000 0.07441  0.60285  0.85336  Biso   1.000  C
  C653     1.0000 0.64664  0.07441  0.89715  Biso   1.000  C
  C654     1.0000 0.64664  0.92559  0.10285  Biso   1.000  C
  C655     1.0000 0.35336  0.92559  0.89715  Biso   1.000  C
  C656     1.0000 0.35336  0.07441  0.10285  Biso   1.000  C
  C657     1.0000 0.39715  0.64664  0.57441  Biso   1.000  C
  C658     1.0000 0.60285  0.64664  0.42559  Biso   1.000  C
  C659     1.0000 0.39715  0.35336  0.42559  Biso   1.000  C
  C660     1.0000 0.60285  0.35336  0.57441  Biso   1.000  C
  C661     1.0000 0.89715  0.57441  0.64664  Biso   1.000  C
  C662     1.0000 0.10285  0.42559  0.64664  Biso   1.000  C
  C663     1.0000 0.89715  0.42559  0.35336  Biso   1.000  C
  C664     1.0000 0.10285  0.57441  0.35336  Biso   1.000  C
  C665     1.0000 0.57441  0.14664  0.39715  Biso   1.000  C
  C666     1.0000 0.42559  0.14664  0.60285  Biso   1.000  C
  C667     1.0000 0.42559  0.85336  0.39715  Biso   1.000  C
  C668     1.0000 0.57441  0.85336  0.60285  Biso   1.000  C
  C669     1.0000 0.14664  0.89715  0.07441  Biso   1.000  C
  C670     1.0000 0.14664  0.10285  0.92559  Biso   1.000  C
  C671     1.0000 0.85336  0.89715  0.92559  Biso   1.000  C
  C672     1.0000 0.85336  0.10285  0.07441  Biso   1.000  C
  C673     1.0000 0.59149  0.89546  0.12612  Biso   1.000  C
  C674     1.0000 0.40851  0.10454  0.12612  Biso   1.000  C
  C675     1.0000 0.40851  0.89546  0.87388  Biso   1.000  C
  C676     1.0000 0.59149  0.10454  0.87388  Biso   1.000  C
  C677     1.0000 0.12612  0.59149  0.89546  Biso   1.000  C
  C678     1.0000 0.12612  0.40851  0.10454  Biso   1.000  C
  C679     1.0000 0.87388  0.40851  0.89546  Biso   1.000  C
  C680     1.0000 0.87388  0.59149  0.10454  Biso   1.000  C
  C681     1.0000 0.89546  0.12612  0.59149  Biso   1.000  C
  C682     1.0000 0.10454  0.12612  0.40851  Biso   1.000  C
  C683     1.0000 0.89546  0.87388  0.40851  Biso   1.000  C
  C684     1.0000 0.10454  0.87388  0.59149  Biso   1.000  C
  C685     1.0000 0.39546  0.09149  0.62612  Biso   1.000  C
  C686     1.0000 0.60454  0.90851  0.62612  Biso   1.000  C
  C687     1.0000 0.39546  0.90851  0.37388  Biso   1.000  C
  C688     1.0000 0.60454  0.09149  0.37388  Biso   1.000  C
  C689     1.0000 0.09149  0.62612  0.39546  Biso   1.000  C
  C690     1.0000 0.90851  0.62612  0.60454  Biso   1.000  C
  C691     1.0000 0.90851  0.37388  0.39546  Biso   1.000  C
  C692     1.0000 0.09149  0.37388  0.60454  Biso   1.000  C
  C693     1.0000 0.62612  0.39546  0.09149  Biso   1.000  C
  C694     1.0000 0.62612  0.60454  0.90851  Biso   1.000  C
  C695     1.0000 0.37388  0.39546  0.90851  Biso   1.000  C
  C696     1.0000 0.37388  0.60454  0.09149  Biso   1.000  C
  C697     1.0000 0.59149  0.39546  0.62612  Biso   1.000  C
  C698     1.0000 0.40851  0.60454  0.62612  Biso   1.000  C
  C699     1.0000 0.40851  0.39546  0.37388  Biso   1.000  C
  C700     1.0000 0.59149  0.60454  0.37388  Biso   1.000  C
  C701     1.0000 0.12612  0.09149  0.39546  Biso   1.000  C
  C702     1.0000 0.12612  0.90851  0.60454  Biso   1.000  C
  C703     1.0000 0.87388  0.90851  0.39546  Biso   1.000  C
  C704     1.0000 0.87388  0.09149  0.60454  Biso   1.000  C
  C705     1.0000 0.89546  0.62612  0.09149  Biso   1.000  C
  C706     1.0000 0.10454  0.62612  0.90851  Biso   1.000  C
  C707     1.0000 0.89546  0.37388  0.90851  Biso   1.000  C
  C708     1.0000 0.10454  0.37388  0.09149  Biso   1.000  C
  C709     1.0000 0.39546  0.59149  0.12612  Biso   1.000  C
  C710     1.0000 0.60454  0.40851  0.12612  Biso   1.000  C
  C711     1.0000 0.39546  0.40851  0.87388  Biso   1.000  C
  C712     1.0000 0.60454  0.59149  0.87388  Biso   1.000  C
  C713     1.0000 0.09149  0.12612  0.89546  Biso   1.000  C
  C714     1.0000 0.90851  0.12612  0.10454  Biso   1.000  C
  C715     1.0000 0.90851  0.87388  0.89546  Biso   1.000  C
  C716     1.0000 0.09149  0.87388  0.10454  Biso   1.000  C
  C717     1.0000 0.62612  0.89546  0.59149  Biso   1.000  C
  C718     1.0000 0.62612  0.10454  0.40851  Biso   1.000  C
  C719     1.0000 0.37388  0.89546  0.40851  Biso   1.000  C
  C720     1.0000 0.37388  0.10454  0.59149  Biso   1.000  C
  C721     1.0000 0.09149  0.89546  0.62612  Biso   1.000  C
  C722     1.0000 0.90851  0.10454  0.62612  Biso   1.000  C
  C723     1.0000 0.90851  0.89546  0.37388  Biso   1.000  C
  C724     1.0000 0.09149  0.10454  0.37388  Biso   1.000  C
  C725     1.0000 0.62612  0.59149  0.39546  Biso   1.000  C
  C726     1.0000 0.62612  0.40851  0.60454  Biso   1.000  C
  C727     1.0000 0.37388  0.40851  0.39546  Biso   1.000  C
  C728     1.0000 0.37388  0.59149  0.60454  Biso   1.000  C
  C729     1.0000 0.39546  0.12612  0.09149  Biso   1.000  C
  C730     1.0000 0.60454  0.12612  0.90851  Biso   1.000  C
  C731     1.0000 0.39546  0.87388  0.90851  Biso   1.000  C
  C732     1.0000 0.60454  0.87388  0.09149  Biso   1.000  C
  C733     1.0000 0.89546  0.09149  0.12612  Biso   1.000  C
  C734     1.0000 0.10454  0.90851  0.12612  Biso   1.000  C
  C735     1.0000 0.89546  0.90851  0.87388  Biso   1.000  C
  C736     1.0000 0.10454  0.09149  0.87388  Biso   1.000  C
  C737     1.0000 0.59149  0.62612  0.89546  Biso   1.000  C
  C738     1.0000 0.40851  0.62612  0.10454  Biso   1.000  C
  C739     1.0000 0.40851  0.37388  0.89546  Biso   1.000  C
  C740     1.0000 0.59149  0.37388  0.10454  Biso   1.000  C
  C741     1.0000 0.12612  0.39546  0.59149  Biso   1.000  C
  C742     1.0000 0.12612  0.60454  0.40851  Biso   1.000  C
  C743     1.0000 0.87388  0.39546  0.40851  Biso   1.000  C
  C744     1.0000 0.87388  0.60454  0.59149  Biso   1.000  C
  C745     1.0000 0.09149  0.39546  0.12612  Biso   1.000  C
  C746     1.0000 0.90851  0.60454  0.12612  Biso   1.000  C
  C747     1.0000 0.90851  0.39546  0.87388  Biso   1.000  C
  C748     1.0000 0.09149  0.60454  0.87388  Biso   1.000  C
  C749     1.0000 0.62612  0.09149  0.89546  Biso   1.000  C
  C750     1.0000 0.62612  0.90851  0.10454  Biso   1.000  C
  C751     1.0000 0.37388  0.90851  0.89546  Biso   1.000  C
  C752     1.0000 0.37388  0.09149  0.10454  Biso   1.000  C
  C753     1.0000 0.39546  0.62612  0.59149  Biso   1.000  C
  C754     1.0000 0.60454  0.62612  0.40851  Biso   1.000  C
  C755     1.0000 0.39546  0.37388  0.40851  Biso   1.000  C
  C756     1.0000 0.60454  0.37388  0.59149  Biso   1.000  C
  C757     1.0000 0.89546  0.59149  0.62612  Biso   1.000  C
  C758     1.0000 0.10454  0.40851  0.62612  Biso   1.000  C
  C759     1.0000 0.89546  0.40851  0.37388  Biso   1.000  C
  C760     1.0000 0.10454  0.59149  0.37388  Biso   1.000  C
  C761     1.0000 0.59149  0.12612  0.39546  Biso   1.000  C
  C762     1.0000 0.40851  0.12612  0.60454  Biso   1.000  C
  C763     1.0000 0.40851  0.87388  0.39546  Biso   1.000  C
  C764     1.0000 0.59149  0.87388  0.60454  Biso   1.000  C
  C765     1.0000 0.12612  0.89546  0.09149  Biso   1.000  C
  C766     1.0000 0.12612  0.10454  0.90851  Biso   1.000  C
  C767     1.0000 0.87388  0.89546  0.90851  Biso   1.000  C
  C768     1.0000 0.87388  0.10454  0.09149  Biso   1.000  C
  C769     1.0000 0.58866  0.87687  0.11054  Biso   1.000  C
  C770     1.0000 0.41134  0.12313  0.11054  Biso   1.000  C
  C771     1.0000 0.41134  0.87687  0.88946  Biso   1.000  C
  C772     1.0000 0.58866  0.12313  0.88946  Biso   1.000  C
  C773     1.0000 0.11054  0.58866  0.87687  Biso   1.000  C
  C774     1.0000 0.11054  0.41134  0.12313  Biso   1.000  C
  C775     1.0000 0.88946  0.41134  0.87687  Biso   1.000  C
  C776     1.0000 0.88946  0.58866  0.12313  Biso   1.000  C
  C777     1.0000 0.87687  0.11054  0.58866  Biso   1.000  C
  C778     1.0000 0.12313  0.11054  0.41134  Biso   1.000  C
  C779     1.0000 0.87687  0.88946  0.41134  Biso   1.000  C
  C780     1.0000 0.12313  0.88946  0.58866  Biso   1.000  C
  C781     1.0000 0.37687  0.08866  0.61054  Biso   1.000  C
  C782     1.0000 0.62313  0.91134  0.61054  Biso   1.000  C
  C783     1.0000 0.37687  0.91134  0.38946  Biso   1.000  C
  C784     1.0000 0.62313  0.08866  0.38946  Biso   1.000  C
  C785     1.0000 0.08866  0.61054  0.37687  Biso   1.000  C
  C786     1.0000 0.91134  0.61054  0.62313  Biso   1.000  C
  C787     1.0000 0.91134  0.38946  0.37687  Biso   1.000  C
  C788     1.0000 0.08866  0.38946  0.62313  Biso   1.000  C
  C789     1.0000 0.61054  0.37687  0.08866  Biso   1.000  C
  C790     1.0000 0.61054  0.62313  0.91134  Biso   1.000  C
  C791     1.0000 0.38946  0.37687  0.91134  Biso   1.000  C
  C792     1.0000 0.38946  0.62313  0.08866  Biso   1.000  C
  C793     1.0000 0.58866  0.37687  0.61054  Biso   1.000  C
  C794     1.0000 0.41134  0.62313  0.61054  Biso   1.000  C
  C795     1.0000 0.41134  0.37687  0.38946  Biso   1.000  C
  C796     1.0000 0.58866  0.62313  0.38946  Biso   1.000  C
  C797     1.0000 0.11054  0.08866  0.37687  Biso   1.000  C
  C798     1.0000 0.11054  0.91134  0.62313  Biso   1.000  C
  C799     1.0000 0.88946  0.91134  0.37687  Biso   1.000  C
  C800     1.0000 0.88946  0.08866  0.62313  Biso   1.000  C
  C801     1.0000 0.87687  0.61054  0.08866  Biso   1.000  C
  C802     1.0000 0.12313  0.61054  0.91134  Biso   1.000  C
  C803     1.0000 0.87687  0.38946  0.91134  Biso   1.000  C
  C804     1.0000 0.12313  0.38946  0.08866  Biso   1.000  C
  C805     1.0000 0.37687  0.58866  0.11054  Biso   1.000  C
  C806     1.0000 0.62313  0.41134  0.11054  Biso   1.000  C
  C807     1.0000 0.37687  0.41134  0.88946  Biso   1.000  C
  C808     1.0000 0.62313  0.58866  0.88946  Biso   1.000  C
  C809     1.0000 0.08866  0.11054  0.87687  Biso   1.000  C
  C810     1.0000 0.91134  0.11054  0.12313  Biso   1.000  C
  C811     1.0000 0.91134  0.88946  0.87687  Biso   1.000  C
  C812     1.0000 0.08866  0.88946  0.12313  Biso   1.000  C
  C813     1.0000 0.61054  0.87687  0.58866  Biso   1.000  C
  C814     1.0000 0.61054  0.12313  0.41134  Biso   1.000  C
  C815     1.0000 0.38946  0.87687  0.41134  Biso   1.000  C
  C816     1.0000 0.38946  0.12313  0.58866  Biso   1.000  C
  C817     1.0000 0.08866  0.87687  0.61054  Biso   1.000  C
  C818     1.0000 0.91134  0.12313  0.61054  Biso   1.000  C
  C819     1.0000 0.91134  0.87687  0.38946  Biso   1.000  C
  C820     1.0000 0.08866  0.12313  0.38946  Biso   1.000  C
  C821     1.0000 0.61054  0.58866  0.37687  Biso   1.000  C
  C822     1.0000 0.61054  0.41134  0.62313  Biso   1.000  C
  C823     1.0000 0.38946  0.41134  0.37687  Biso   1.000  C
  C824     1.0000 0.38946  0.58866  0.62313  Biso   1.000  C
  C825     1.0000 0.37687  0.11054  0.08866  Biso   1.000  C
  C826     1.0000 0.62313  0.11054  0.91134  Biso   1.000  C
  C827     1.0000 0.37687  0.88946  0.91134  Biso   1.000  C
  C828     1.0000 0.62313  0.88946  0.08866  Biso   1.000  C
  C829     1.0000 0.87687  0.08866  0.11054  Biso   1.000  C
  C830     1.0000 0.12313  0.91134  0.11054  Biso   1.000  C
  C831     1.0000 0.87687  0.91134  0.88946  Biso   1.000  C
  C832     1.0000 0.12313  0.08866  0.88946  Biso   1.000  C
  C833     1.0000 0.58866  0.61054  0.87687  Biso   1.000  C
  C834     1.0000 0.41134  0.61054  0.12313  Biso   1.000  C
  C835     1.0000 0.41134  0.38946  0.87687  Biso   1.000  C
  C836     1.0000 0.58866  0.38946  0.12313  Biso   1.000  C
  C837     1.0000 0.11054  0.37687  0.58866  Biso   1.000  C
  C838     1.0000 0.11054  0.62313  0.41134  Biso   1.000  C
  C839     1.0000 0.88946  0.37687  0.41134  Biso   1.000  C
  C840     1.0000 0.88946  0.62313  0.58866  Biso   1.000  C
  C841     1.0000 0.08866  0.37687  0.11054  Biso   1.000  C
  C842     1.0000 0.91134  0.62313  0.11054  Biso   1.000  C
  C843     1.0000 0.91134  0.37687  0.88946  Biso   1.000  C
  C844     1.0000 0.08866  0.62313  0.88946  Biso   1.000  C
  C845     1.0000 0.61054  0.08866  0.87687  Biso   1.000  C
  C846     1.0000 0.61054  0.91134  0.12313  Biso   1.000  C
  C847     1.0000 0.38946  0.91134  0.87687  Biso   1.000  C
  C848     1.0000 0.38946  0.08866  0.12313  Biso   1.000  C
  C849     1.0000 0.37687  0.61054  0.58866  Biso   1.000  C
  C850     1.0000 0.62313  0.61054  0.41134  Biso   1.000  C
  C851     1.0000 0.37687  0.38946  0.41134  Biso   1.000  C
  C852     1.0000 0.62313  0.38946  0.58866  Biso   1.000  C
  C853     1.0000 0.87687  0.58866  0.61054  Biso   1.000  C
  C854     1.0000 0.12313  0.41134  0.61054  Biso   1.000  C
  C855     1.0000 0.87687  0.41134  0.38946  Biso   1.000  C
  C856     1.0000 0.12313  0.58866  0.38946  Biso   1.000  C
  C857     1.0000 0.58866  0.11054  0.37687  Biso   1.000  C
  C858     1.0000 0.41134  0.11054  0.62313  Biso   1.000  C
  C859     1.0000 0.41134  0.88946  0.37687  Biso   1.000  C
  C860     1.0000 0.58866  0.88946  0.62313  Biso   1.000  C
  C861     1.0000 0.11054  0.87687  0.08866  Biso   1.000  C
  C862     1.0000 0.11054  0.12313  0.91134  Biso   1.000  C
  C863     1.0000 0.88946  0.87687  0.91134  Biso   1.000  C
  C864     1.0000 0.88946  0.12313  0.08866  Biso   1.000  C
  H769     1.0000 0.57590  0.86590  0.11270  Biso   1.000  H
  H770     1.0000 0.42410  0.13410  0.11270  Biso   1.000  H
  H771     1.0000 0.42410  0.86590  0.88730  Biso   1.000  H
  H772     1.0000 0.57590  0.13410  0.88730  Biso   1.000  H
  H773     1.0000 0.11270  0.57590  0.86590  Biso   1.000  H
  H774     1.0000 0.11270  0.42410  0.13410  Biso   1.000  H
  H775     1.0000 0.88730  0.42410  0.86590  Biso   1.000  H
  H776     1.0000 0.88730  0.57590  0.13410  Biso   1.000  H
  H777     1.0000 0.86590  0.11270  0.57590  Biso   1.000  H
  H778     1.0000 0.13410  0.11270  0.42410  Biso   1.000  H
  H779     1.0000 0.86590  0.88730  0.42410  Biso   1.000  H
  H780     1.0000 0.13410  0.88730  0.57590  Biso   1.000  H
  H781     1.0000 0.36590  0.07590  0.61270  Biso   1.000  H
  H782     1.0000 0.63410  0.92410  0.61270  Biso   1.000  H
  H783     1.0000 0.36590  0.92410  0.38730  Biso   1.000  H
  H784     1.0000 0.63410  0.07590  0.38730  Biso   1.000  H
  H785     1.0000 0.07590  0.61270  0.36590  Biso   1.000  H
  H786     1.0000 0.92410  0.61270  0.63410  Biso   1.000  H
  H787     1.0000 0.92410  0.38730  0.36590  Biso   1.000  H
  H788     1.0000 0.07590  0.38730  0.63410  Biso   1.000  H
  H789     1.0000 0.61270  0.36590  0.07590  Biso   1.000  H
  H790     1.0000 0.61270  0.63410  0.92410  Biso   1.000  H
  H791     1.0000 0.38730  0.36590  0.92410  Biso   1.000  H
  H792     1.0000 0.38730  0.63410  0.07590  Biso   1.000  H
  H793     1.0000 0.57590  0.36590  0.61270  Biso   1.000  H
  H794     1.0000 0.42410  0.63410  0.61270  Biso   1.000  H
  H795     1.0000 0.42410  0.36590  0.38730  Biso   1.000  H
  H796     1.0000 0.57590  0.63410  0.38730  Biso   1.000  H
  H797     1.0000 0.11270  0.07590  0.36590  Biso   1.000  H
  H798     1.0000 0.11270  0.92410  0.63410  Biso   1.000  H
  H799     1.0000 0.88730  0.92410  0.36590  Biso   1.000  H
  H800     1.0000 0.88730  0.07590  0.63410  Biso   1.000  H
  H801     1.0000 0.86590  0.61270  0.07590  Biso   1.000  H
  H802     1.0000 0.13410  0.61270  0.92410  Biso   1.000  H
  H803     1.0000 0.86590  0.38730  0.92410  Biso   1.000  H
  H804     1.0000 0.13410  0.38730  0.07590  Biso   1.000  H
  H805     1.0000 0.36590  0.57590  0.11270  Biso   1.000  H
  H806     1.0000 0.63410  0.42410  0.11270  Biso   1.000  H
  H807     1.0000 0.36590  0.42410  0.88730  Biso   1.000  H
  H808     1.0000 0.63410  0.57590  0.88730  Biso   1.000  H
  H809     1.0000 0.07590  0.11270  0.86590  Biso   1.000  H
  H810     1.0000 0.92410  0.11270  0.13410  Biso   1.000  H
  H811     1.0000 0.92410  0.88730  0.86590  Biso   1.000  H
  H812     1.0000 0.07590  0.88730  0.13410  Biso   1.000  H
  H813     1.0000 0.61270  0.86590  0.57590  Biso   1.000  H
  H814     1.0000 0.61270  0.13410  0.42410  Biso   1.000  H
  H815     1.0000 0.38730  0.86590  0.42410  Biso   1.000  H
  H816     1.0000 0.38730  0.13410  0.57590  Biso   1.000  H
  H817     1.0000 0.07590  0.86590  0.61270  Biso   1.000  H
  H818     1.0000 0.92410  0.13410  0.61270  Biso   1.000  H
  H819     1.0000 0.92410  0.86590  0.38730  Biso   1.000  H
  H820     1.0000 0.07590  0.13410  0.38730  Biso   1.000  H
  H821     1.0000 0.61270  0.57590  0.36590  Biso   1.000  H
  H822     1.0000 0.61270  0.42410  0.63410  Biso   1.000  H
  H823     1.0000 0.38730  0.42410  0.36590  Biso   1.000  H
  H824     1.0000 0.38730  0.57590  0.63410  Biso   1.000  H
  H825     1.0000 0.36590  0.11270  0.07590  Biso   1.000  H
  H826     1.0000 0.63410  0.11270  0.92410  Biso   1.000  H
  H827     1.0000 0.36590  0.88730  0.92410  Biso   1.000  H
  H828     1.0000 0.63410  0.88730  0.07590  Biso   1.000  H
  H829     1.0000 0.86590  0.07590  0.11270  Biso   1.000  H
  H830     1.0000 0.13410  0.92410  0.11270  Biso   1.000  H
  H831     1.0000 0.86590  0.92410  0.88730  Biso   1.000  H
  H832     1.0000 0.13410  0.07590  0.88730  Biso   1.000  H
  H833     1.0000 0.57590  0.61270  0.86590  Biso   1.000  H
  H834     1.0000 0.42410  0.61270  0.13410  Biso   1.000  H
  H835     1.0000 0.42410  0.38730  0.86590  Biso   1.000  H
  H836     1.0000 0.57590  0.38730  0.13410  Biso   1.000  H
  H837     1.0000 0.11270  0.36590  0.57590  Biso   1.000  H
  H838     1.0000 0.11270  0.63410  0.42410  Biso   1.000  H
  H839     1.0000 0.88730  0.36590  0.42410  Biso   1.000  H
  H840     1.0000 0.88730  0.63410  0.57590  Biso   1.000  H
  H841     1.0000 0.07590  0.36590  0.11270  Biso   1.000  H
  H842     1.0000 0.92410  0.63410  0.11270  Biso   1.000  H
  H843     1.0000 0.92410  0.36590  0.88730  Biso   1.000  H
  H844     1.0000 0.07590  0.63410  0.88730  Biso   1.000  H
  H845     1.0000 0.61270  0.07590  0.86590  Biso   1.000  H
  H846     1.0000 0.61270  0.92410  0.13410  Biso   1.000  H
  H847     1.0000 0.38730  0.92410  0.86590  Biso   1.000  H
  H848     1.0000 0.38730  0.07590  0.13410  Biso   1.000  H
  H849     1.0000 0.36590  0.61270  0.57590  Biso   1.000  H
  H850     1.0000 0.63410  0.61270  0.42410  Biso   1.000  H
  H851     1.0000 0.36590  0.38730  0.42410  Biso   1.000  H
  H852     1.0000 0.63410  0.38730  0.57590  Biso   1.000  H
  H853     1.0000 0.86590  0.57590  0.61270  Biso   1.000  H
  H854     1.0000 0.13410  0.42410  0.61270  Biso   1.000  H
  H855     1.0000 0.86590  0.42410  0.38730  Biso   1.000  H
  H856     1.0000 0.13410  0.57590  0.38730  Biso   1.000  H
  H857     1.0000 0.57590  0.11270  0.36590  Biso   1.000  H
  H858     1.0000 0.42410  0.11270  0.63410  Biso   1.000  H
  H859     1.0000 0.42410  0.88730  0.36590  Biso   1.000  H
  H860     1.0000 0.57590  0.88730  0.63410  Biso   1.000  H
  H861     1.0000 0.11270  0.86590  0.07590  Biso   1.000  H
  H862     1.0000 0.11270  0.13410  0.92410  Biso   1.000  H
  H863     1.0000 0.88730  0.86590  0.92410  Biso   1.000  H
  H864     1.0000 0.88730  0.13410  0.07590  Biso   1.000  H
  C865     1.0000 0.47355  0.95848  0.20593  Biso   1.000  C
  C866     1.0000 0.52645  0.04152  0.20593  Biso   1.000  C
  C867     1.0000 0.52645  0.95848  0.79407  Biso   1.000  C
  C868     1.0000 0.47355  0.04152  0.79407  Biso   1.000  C
  C869     1.0000 0.20593  0.47355  0.95848  Biso   1.000  C
  C870     1.0000 0.20593  0.52645  0.04152  Biso   1.000  C
  C871     1.0000 0.79407  0.52645  0.95848  Biso   1.000  C
  C872     1.0000 0.79407  0.47355  0.04152  Biso   1.000  C
  C873     1.0000 0.95848  0.20593  0.47355  Biso   1.000  C
  C874     1.0000 0.04152  0.20593  0.52645  Biso   1.000  C
  C875     1.0000 0.95848  0.79407  0.52645  Biso   1.000  C
  C876     1.0000 0.04152  0.79407  0.47355  Biso   1.000  C
  C877     1.0000 0.45848  0.97355  0.70593  Biso   1.000  C
  C878     1.0000 0.54152  0.02645  0.70593  Biso   1.000  C
  C879     1.0000 0.45848  0.02645  0.29407  Biso   1.000  C
  C880     1.0000 0.54152  0.97355  0.29407  Biso   1.000  C
  C881     1.0000 0.97355  0.70593  0.45848  Biso   1.000  C
  C882     1.0000 0.02645  0.70593  0.54152  Biso   1.000  C
  C883     1.0000 0.02645  0.29407  0.45848  Biso   1.000  C
  C884     1.0000 0.97355  0.29407  0.54152  Biso   1.000  C
  C885     1.0000 0.70593  0.45848  0.97355  Biso   1.000  C
  C886     1.0000 0.70593  0.54152  0.02645  Biso   1.000  C
  C887     1.0000 0.29407  0.45848  0.02645  Biso   1.000  C
  C888     1.0000 0.29407  0.54152  0.97355  Biso   1.000  C
  C889     1.0000 0.47355  0.45848  0.70593  Biso   1.000  C
  C890     1.0000 0.52645  0.54152  0.70593  Biso   1.000  C
  C891     1.0000 0.52645  0.45848  0.29407  Biso   1.000  C
  C892     1.0000 0.47355  0.54152  0.29407  Biso   1.000  C
  C893     1.0000 0.20593  0.97355  0.45848  Biso   1.000  C
  C894     1.0000 0.20593  0.02645  0.54152  Biso   1.000  C
  C895     1.0000 0.79407  0.02645  0.45848  Biso   1.000  C
  C896     1.0000 0.79407  0.97355  0.54152  Biso   1.000  C
  C897     1.0000 0.95848  0.70593  0.97355  Biso   1.000  C
  C898     1.0000 0.04152  0.70593  0.02645  Biso   1.000  C
  C899     1.0000 0.95848  0.29407  0.02645  Biso   1.000  C
  C900     1.0000 0.04152  0.29407  0.97355  Biso   1.000  C
  C901     1.0000 0.45848  0.47355  0.20593  Biso   1.000  C
  C902     1.0000 0.54152  0.52645  0.20593  Biso   1.000  C
  C903     1.0000 0.45848  0.52645  0.79407  Biso   1.000  C
  C904     1.0000 0.54152  0.47355  0.79407  Biso   1.000  C
  C905     1.0000 0.97355  0.20593  0.95848  Biso   1.000  C
  C906     1.0000 0.02645  0.20593  0.04152  Biso   1.000  C
  C907     1.0000 0.02645  0.79407  0.95848  Biso   1.000  C
  C908     1.0000 0.97355  0.79407  0.04152  Biso   1.000  C
  C909     1.0000 0.70593  0.95848  0.47355  Biso   1.000  C
  C910     1.0000 0.70593  0.04152  0.52645  Biso   1.000  C
  C911     1.0000 0.29407  0.95848  0.52645  Biso   1.000  C
  C912     1.0000 0.29407  0.04152  0.47355  Biso   1.000  C
  C913     1.0000 0.97355  0.95848  0.70593  Biso   1.000  C
  C914     1.0000 0.02645  0.04152  0.70593  Biso   1.000  C
  C915     1.0000 0.02645  0.95848  0.29407  Biso   1.000  C
  C916     1.0000 0.97355  0.04152  0.29407  Biso   1.000  C
  C917     1.0000 0.70593  0.47355  0.45848  Biso   1.000  C
  C918     1.0000 0.70593  0.52645  0.54152  Biso   1.000  C
  C919     1.0000 0.29407  0.52645  0.45848  Biso   1.000  C
  C920     1.0000 0.29407  0.47355  0.54152  Biso   1.000  C
  C921     1.0000 0.45848  0.20593  0.97355  Biso   1.000  C
  C922     1.0000 0.54152  0.20593  0.02645  Biso   1.000  C
  C923     1.0000 0.45848  0.79407  0.02645  Biso   1.000  C
  C924     1.0000 0.54152  0.79407  0.97355  Biso   1.000  C
  C925     1.0000 0.95848  0.97355  0.20593  Biso   1.000  C
  C926     1.0000 0.04152  0.02645  0.20593  Biso   1.000  C
  C927     1.0000 0.95848  0.02645  0.79407  Biso   1.000  C
  C928     1.0000 0.04152  0.97355  0.79407  Biso   1.000  C
  C929     1.0000 0.47355  0.70593  0.95848  Biso   1.000  C
  C930     1.0000 0.52645  0.70593  0.04152  Biso   1.000  C
  C931     1.0000 0.52645  0.29407  0.95848  Biso   1.000  C
  C932     1.0000 0.47355  0.29407  0.04152  Biso   1.000  C
  C933     1.0000 0.20593  0.45848  0.47355  Biso   1.000  C
  C934     1.0000 0.20593  0.54152  0.52645  Biso   1.000  C
  C935     1.0000 0.79407  0.45848  0.52645  Biso   1.000  C
  C936     1.0000 0.79407  0.54152  0.47355  Biso   1.000  C
  C937     1.0000 0.97355  0.45848  0.20593  Biso   1.000  C
  C938     1.0000 0.02645  0.54152  0.20593  Biso   1.000  C
  C939     1.0000 0.02645  0.45848  0.79407  Biso   1.000  C
  C940     1.0000 0.97355  0.54152  0.79407  Biso   1.000  C
  C941     1.0000 0.70593  0.97355  0.95848  Biso   1.000  C
  C942     1.0000 0.70593  0.02645  0.04152  Biso   1.000  C
  C943     1.0000 0.29407  0.02645  0.95848  Biso   1.000  C
  C944     1.0000 0.29407  0.97355  0.04152  Biso   1.000  C
  C945     1.0000 0.45848  0.70593  0.47355  Biso   1.000  C
  C946     1.0000 0.54152  0.70593  0.52645  Biso   1.000  C
  C947     1.0000 0.45848  0.29407  0.52645  Biso   1.000  C
  C948     1.0000 0.54152  0.29407  0.47355  Biso   1.000  C
  C949     1.0000 0.95848  0.47355  0.70593  Biso   1.000  C
  C950     1.0000 0.04152  0.52645  0.70593  Biso   1.000  C
  C951     1.0000 0.95848  0.52645  0.29407  Biso   1.000  C
  C952     1.0000 0.04152  0.47355  0.29407  Biso   1.000  C
  C953     1.0000 0.47355  0.20593  0.45848  Biso   1.000  C
  C954     1.0000 0.52645  0.20593  0.54152  Biso   1.000  C
  C955     1.0000 0.52645  0.79407  0.45848  Biso   1.000  C
  C956     1.0000 0.47355  0.79407  0.54152  Biso   1.000  C
  C957     1.0000 0.20593  0.95848  0.97355  Biso   1.000  C
  C958     1.0000 0.20593  0.04152  0.02645  Biso   1.000  C
  C959     1.0000 0.79407  0.95848  0.02645  Biso   1.000  C
  C960     1.0000 0.79407  0.04152  0.97355  Biso   1.000  C
  H865     1.0000 0.48540  0.95910  0.21810  Biso   1.000  H
  H866     1.0000 0.51460  0.04090  0.21810  Biso   1.000  H
  H867     1.0000 0.51460  0.95910  0.78190  Biso   1.000  H
  H868     1.0000 0.48540  0.04090  0.78190  Biso   1.000  H
  H869     1.0000 0.21810  0.48540  0.95910  Biso   1.000  H
  H870     1.0000 0.21810  0.51460  0.04090  Biso   1.000  H
  H871     1.0000 0.78190  0.51460  0.95910  Biso   1.000  H
  H872     1.0000 0.78190  0.48540  0.04090  Biso   1.000  H
  H873     1.0000 0.95910  0.21810  0.48540  Biso   1.000  H
  H874     1.0000 0.04090  0.21810  0.51460  Biso   1.000  H
  H875     1.0000 0.95910  0.78190  0.51460  Biso   1.000  H
  H876     1.0000 0.04090  0.78190  0.48540  Biso   1.000  H
  H877     1.0000 0.45910  0.98540  0.71810  Biso   1.000  H
  H878     1.0000 0.54090  0.01460  0.71810  Biso   1.000  H
  H879     1.0000 0.45910  0.01460  0.28190  Biso   1.000  H
  H880     1.0000 0.54090  0.98540  0.28190  Biso   1.000  H
  H881     1.0000 0.98540  0.71810  0.45910  Biso   1.000  H
  H882     1.0000 0.01460  0.71810  0.54090  Biso   1.000  H
  H883     1.0000 0.01460  0.28190  0.45910  Biso   1.000  H
  H884     1.0000 0.98540  0.28190  0.54090  Biso   1.000  H
  H885     1.0000 0.71810  0.45910  0.98540  Biso   1.000  H
  H886     1.0000 0.71810  0.54090  0.01460  Biso   1.000  H
  H887     1.0000 0.28190  0.45910  0.01460  Biso   1.000  H
  H888     1.0000 0.28190  0.54090  0.98540  Biso   1.000  H
  H889     1.0000 0.48540  0.45910  0.71810  Biso   1.000  H
  H890     1.0000 0.51460  0.54090  0.71810  Biso   1.000  H
  H891     1.0000 0.51460  0.45910  0.28190  Biso   1.000  H
  H892     1.0000 0.48540  0.54090  0.28190  Biso   1.000  H
  H893     1.0000 0.21810  0.98540  0.45910  Biso   1.000  H
  H894     1.0000 0.21810  0.01460  0.54090  Biso   1.000  H
  H895     1.0000 0.78190  0.01460  0.45910  Biso   1.000  H
  H896     1.0000 0.78190  0.98540  0.54090  Biso   1.000  H
  H897     1.0000 0.95910  0.71810  0.98540  Biso   1.000  H
  H898     1.0000 0.04090  0.71810  0.01460  Biso   1.000  H
  H899     1.0000 0.95910  0.28190  0.01460  Biso   1.000  H
  H900     1.0000 0.04090  0.28190  0.98540  Biso   1.000  H
  H901     1.0000 0.45910  0.48540  0.21810  Biso   1.000  H
  H902     1.0000 0.54090  0.51460  0.21810  Biso   1.000  H
  H903     1.0000 0.45910  0.51460  0.78190  Biso   1.000  H
  H904     1.0000 0.54090  0.48540  0.78190  Biso   1.000  H
  H905     1.0000 0.98540  0.21810  0.95910  Biso   1.000  H
  H906     1.0000 0.01460  0.21810  0.04090  Biso   1.000  H
  H907     1.0000 0.01460  0.78190  0.95910  Biso   1.000  H
  H908     1.0000 0.98540  0.78190  0.04090  Biso   1.000  H
  H909     1.0000 0.71810  0.95910  0.48540  Biso   1.000  H
  H910     1.0000 0.71810  0.04090  0.51460  Biso   1.000  H
  H911     1.0000 0.28190  0.95910  0.51460  Biso   1.000  H
  H912     1.0000 0.28190  0.04090  0.48540  Biso   1.000  H
  H913     1.0000 0.98540  0.95910  0.71810  Biso   1.000  H
  H914     1.0000 0.01460  0.04090  0.71810  Biso   1.000  H
  H915     1.0000 0.01460  0.95910  0.28190  Biso   1.000  H
  H916     1.0000 0.98540  0.04090  0.28190  Biso   1.000  H
  H917     1.0000 0.71810  0.48540  0.45910  Biso   1.000  H
  H918     1.0000 0.71810  0.51460  0.54090  Biso   1.000  H
  H919     1.0000 0.28190  0.51460  0.45910  Biso   1.000  H
  H920     1.0000 0.28190  0.48540  0.54090  Biso   1.000  H
  H921     1.0000 0.45910  0.21810  0.98540  Biso   1.000  H
  H922     1.0000 0.54090  0.21810  0.01460  Biso   1.000  H
  H923     1.0000 0.45910  0.78190  0.01460  Biso   1.000  H
  H924     1.0000 0.54090  0.78190  0.98540  Biso   1.000  H
  H925     1.0000 0.95910  0.98540  0.21810  Biso   1.000  H
  H926     1.0000 0.04090  0.01460  0.21810  Biso   1.000  H
  H927     1.0000 0.95910  0.01460  0.78190  Biso   1.000  H
  H928     1.0000 0.04090  0.98540  0.78190  Biso   1.000  H
  H929     1.0000 0.48540  0.71810  0.95910  Biso   1.000  H
  H930     1.0000 0.51460  0.71810  0.04090  Biso   1.000  H
  H931     1.0000 0.51460  0.28190  0.95910  Biso   1.000  H
  H932     1.0000 0.48540  0.28190  0.04090  Biso   1.000  H
  H933     1.0000 0.21810  0.45910  0.48540  Biso   1.000  H
  H934     1.0000 0.21810  0.54090  0.51460  Biso   1.000  H
  H935     1.0000 0.78190  0.45910  0.51460  Biso   1.000  H
  H936     1.0000 0.78190  0.54090  0.48540  Biso   1.000  H
  H937     1.0000 0.98540  0.45910  0.21810  Biso   1.000  H
  H938     1.0000 0.01460  0.54090  0.21810  Biso   1.000  H
  H939     1.0000 0.01460  0.45910  0.78190  Biso   1.000  H
  H940     1.0000 0.98540  0.54090  0.78190  Biso   1.000  H
  H941     1.0000 0.71810  0.98540  0.95910  Biso   1.000  H
  H942     1.0000 0.71810  0.01460  0.04090  Biso   1.000  H
  H943     1.0000 0.28190  0.01460  0.95910  Biso   1.000  H
  H944     1.0000 0.28190  0.98540  0.04090  Biso   1.000  H
  H945     1.0000 0.45910  0.71810  0.48540  Biso   1.000  H
  H946     1.0000 0.54090  0.71810  0.51460  Biso   1.000  H
  H947     1.0000 0.45910  0.28190  0.51460  Biso   1.000  H
  H948     1.0000 0.54090  0.28190  0.48540  Biso   1.000  H
  H949     1.0000 0.95910  0.48540  0.71810  Biso   1.000  H
  H950     1.0000 0.04090  0.51460  0.71810  Biso   1.000  H
  H951     1.0000 0.95910  0.51460  0.28190  Biso   1.000  H
  H952     1.0000 0.04090  0.48540  0.28190  Biso   1.000  H
  H953     1.0000 0.48540  0.21810  0.45910  Biso   1.000  H
  H954     1.0000 0.51460  0.21810  0.54090  Biso   1.000  H
  H955     1.0000 0.51460  0.78190  0.45910  Biso   1.000  H
  H956     1.0000 0.48540  0.78190  0.54090  Biso   1.000  H
  H957     1.0000 0.21810  0.95910  0.98540  Biso   1.000  H
  H958     1.0000 0.21810  0.04090  0.01460  Biso   1.000  H
  H959     1.0000 0.78190  0.95910  0.01460  Biso   1.000  H
  H960     1.0000 0.78190  0.04090  0.98540  Biso   1.000  H
  C961     1.0000 0.45722  0.94008  0.20627  Biso   1.000  C
  C962     1.0000 0.54278  0.05992  0.20627  Biso   1.000  C
  C963     1.0000 0.54278  0.94008  0.79373  Biso   1.000  C
  C964     1.0000 0.45722  0.05992  0.79373  Biso   1.000  C
  C965     1.0000 0.20627  0.45722  0.94008  Biso   1.000  C
  C966     1.0000 0.20627  0.54278  0.05992  Biso   1.000  C
  C967     1.0000 0.79373  0.54278  0.94008  Biso   1.000  C
  C968     1.0000 0.79373  0.45722  0.05992  Biso   1.000  C
  C969     1.0000 0.94008  0.20627  0.45722  Biso   1.000  C
  C970     1.0000 0.05992  0.20627  0.54278  Biso   1.000  C
  C971     1.0000 0.94008  0.79373  0.54278  Biso   1.000  C
  C972     1.0000 0.05992  0.79373  0.45722  Biso   1.000  C
  C973     1.0000 0.44008  0.95722  0.70627  Biso   1.000  C
  C974     1.0000 0.55992  0.04278  0.70627  Biso   1.000  C
  C975     1.0000 0.44008  0.04278  0.29373  Biso   1.000  C
  C976     1.0000 0.55992  0.95722  0.29373  Biso   1.000  C
  C977     1.0000 0.95722  0.70627  0.44008  Biso   1.000  C
  C978     1.0000 0.04278  0.70627  0.55992  Biso   1.000  C
  C979     1.0000 0.04278  0.29373  0.44008  Biso   1.000  C
  C980     1.0000 0.95722  0.29373  0.55992  Biso   1.000  C
  C981     1.0000 0.70627  0.44008  0.95722  Biso   1.000  C
  C982     1.0000 0.70627  0.55992  0.04278  Biso   1.000  C
  C983     1.0000 0.29373  0.44008  0.04278  Biso   1.000  C
  C984     1.0000 0.29373  0.55992  0.95722  Biso   1.000  C
  C985     1.0000 0.45722  0.44008  0.70627  Biso   1.000  C
  C986     1.0000 0.54278  0.55992  0.70627  Biso   1.000  C
  C987     1.0000 0.54278  0.44008  0.29373  Biso   1.000  C
  C988     1.0000 0.45722  0.55992  0.29373  Biso   1.000  C
  C989     1.0000 0.20627  0.95722  0.44008  Biso   1.000  C
  C990     1.0000 0.20627  0.04278  0.55992  Biso   1.000  C
  C991     1.0000 0.79373  0.04278  0.44008  Biso   1.000  C
  C992     1.0000 0.79373  0.95722  0.55992  Biso   1.000  C
  C993     1.0000 0.94008  0.70627  0.95722  Biso   1.000  C
  C994     1.0000 0.05992  0.70627  0.04278  Biso   1.000  C
  C995     1.0000 0.94008  0.29373  0.04278  Biso   1.000  C
  C996     1.0000 0.05992  0.29373  0.95722  Biso   1.000  C
  C997     1.0000 0.44008  0.45722  0.20627  Biso   1.000  C
  C998     1.0000 0.55992  0.54278  0.20627  Biso   1.000  C
  C999     1.0000 0.44008  0.54278  0.79373  Biso   1.000  C
  C1000    1.0000 0.55992  0.45722  0.79373  Biso   1.000  C
  C1001    1.0000 0.95722  0.20627  0.94008  Biso   1.000  C
  C1002    1.0000 0.04278  0.20627  0.05992  Biso   1.000  C
  C1003    1.0000 0.04278  0.79373  0.94008  Biso   1.000  C
  C1004    1.0000 0.95722  0.79373  0.05992  Biso   1.000  C
  C1005    1.0000 0.70627  0.94008  0.45722  Biso   1.000  C
  C1006    1.0000 0.70627  0.05992  0.54278  Biso   1.000  C
  C1007    1.0000 0.29373  0.94008  0.54278  Biso   1.000  C
  C1008    1.0000 0.29373  0.05992  0.45722  Biso   1.000  C
  C1009    1.0000 0.95722  0.94008  0.70627  Biso   1.000  C
  C1010    1.0000 0.04278  0.05992  0.70627  Biso   1.000  C
  C1011    1.0000 0.04278  0.94008  0.29373  Biso   1.000  C
  C1012    1.0000 0.95722  0.05992  0.29373  Biso   1.000  C
  C1013    1.0000 0.70627  0.45722  0.44008  Biso   1.000  C
  C1014    1.0000 0.70627  0.54278  0.55992  Biso   1.000  C
  C1015    1.0000 0.29373  0.54278  0.44008  Biso   1.000  C
  C1016    1.0000 0.29373  0.45722  0.55992  Biso   1.000  C
  C1017    1.0000 0.44008  0.20627  0.95722  Biso   1.000  C
  C1018    1.0000 0.55992  0.20627  0.04278  Biso   1.000  C
  C1019    1.0000 0.44008  0.79373  0.04278  Biso   1.000  C
  C1020    1.0000 0.55992  0.79373  0.95722  Biso   1.000  C
  C1021    1.0000 0.94008  0.95722  0.20627  Biso   1.000  C
  C1022    1.0000 0.05992  0.04278  0.20627  Biso   1.000  C
  C1023    1.0000 0.94008  0.04278  0.79373  Biso   1.000  C
  C1024    1.0000 0.05992  0.95722  0.79373  Biso   1.000  C
  C1025    1.0000 0.45722  0.70627  0.94008  Biso   1.000  C
  C1026    1.0000 0.54278  0.70627  0.05992  Biso   1.000  C
  C1027    1.0000 0.54278  0.29373  0.94008  Biso   1.000  C
  C1028    1.0000 0.45722  0.29373  0.05992  Biso   1.000  C
  C1029    1.0000 0.20627  0.44008  0.45722  Biso   1.000  C
  C1030    1.0000 0.20627  0.55992  0.54278  Biso   1.000  C
  C1031    1.0000 0.79373  0.44008  0.54278  Biso   1.000  C
  C1032    1.0000 0.79373  0.55992  0.45722  Biso   1.000  C
  C1033    1.0000 0.95722  0.44008  0.20627  Biso   1.000  C
  C1034    1.0000 0.04278  0.55992  0.20627  Biso   1.000  C
  C1035    1.0000 0.04278  0.44008  0.79373  Biso   1.000  C
  C1036    1.0000 0.95722  0.55992  0.79373  Biso   1.000  C
  C1037    1.0000 0.70627  0.95722  0.94008  Biso   1.000  C
  C1038    1.0000 0.70627  0.04278  0.05992  Biso   1.000  C
  C1039    1.0000 0.29373  0.04278  0.94008  Biso   1.000  C
  C1040    1.0000 0.29373  0.95722  0.05992  Biso   1.000  C
  C1041    1.0000 0.44008  0.70627  0.45722  Biso   1.000  C
  C1042    1.0000 0.55992  0.70627  0.54278  Biso   1.000  C
  C1043    1.0000 0.44008  0.29373  0.54278  Biso   1.000  C
  C1044    1.0000 0.55992  0.29373  0.45722  Biso   1.000  C
  C1045    1.0000 0.94008  0.45722  0.70627  Biso   1.000  C
  C1046    1.0000 0.05992  0.54278  0.70627  Biso   1.000  C
  C1047    1.0000 0.94008  0.54278  0.29373  Biso   1.000  C
  C1048    1.0000 0.05992  0.45722  0.29373  Biso   1.000  C
  C1049    1.0000 0.45722  0.20627  0.44008  Biso   1.000  C
  C1050    1.0000 0.54278  0.20627  0.55992  Biso   1.000  C
  C1051    1.0000 0.54278  0.79373  0.44008  Biso   1.000  C
  C1052    1.0000 0.45722  0.79373  0.55992  Biso   1.000  C
  C1053    1.0000 0.20627  0.94008  0.95722  Biso   1.000  C
  C1054    1.0000 0.20627  0.05992  0.04278  Biso   1.000  C
  C1055    1.0000 0.79373  0.94008  0.04278  Biso   1.000  C
  C1056    1.0000 0.79373  0.05992  0.95722  Biso   1.000  C
  H961     1.0000 0.45790  0.92830  0.21850  Biso   1.000  H
  H962     1.0000 0.54210  0.07170  0.21850  Biso   1.000  H
  H963     1.0000 0.54210  0.92830  0.78150  Biso   1.000  H
  H964     1.0000 0.45790  0.07170  0.78150  Biso   1.000  H
  H965     1.0000 0.21850  0.45790  0.92830  Biso   1.000  H
  H966     1.0000 0.21850  0.54210  0.07170  Biso   1.000  H
  H967     1.0000 0.78150  0.54210  0.92830  Biso   1.000  H
  H968     1.0000 0.78150  0.45790  0.07170  Biso   1.000  H
  H969     1.0000 0.92830  0.21850  0.45790  Biso   1.000  H
  H970     1.0000 0.07170  0.21850  0.54210  Biso   1.000  H
  H971     1.0000 0.92830  0.78150  0.54210  Biso   1.000  H
  H972     1.0000 0.07170  0.78150  0.45790  Biso   1.000  H
  H973     1.0000 0.42830  0.95790  0.71850  Biso   1.000  H
  H974     1.0000 0.57170  0.04210  0.71850  Biso   1.000  H
  H975     1.0000 0.42830  0.04210  0.28150  Biso   1.000  H
  H976     1.0000 0.57170  0.95790  0.28150  Biso   1.000  H
  H977     1.0000 0.95790  0.71850  0.42830  Biso   1.000  H
  H978     1.0000 0.04210  0.71850  0.57170  Biso   1.000  H
  H979     1.0000 0.04210  0.28150  0.42830  Biso   1.000  H
  H980     1.0000 0.95790  0.28150  0.57170  Biso   1.000  H
  H981     1.0000 0.71850  0.42830  0.95790  Biso   1.000  H
  H982     1.0000 0.71850  0.57170  0.04210  Biso   1.000  H
  H983     1.0000 0.28150  0.42830  0.04210  Biso   1.000  H
  H984     1.0000 0.28150  0.57170  0.95790  Biso   1.000  H
  H985     1.0000 0.45790  0.42830  0.71850  Biso   1.000  H
  H986     1.0000 0.54210  0.57170  0.71850  Biso   1.000  H
  H987     1.0000 0.54210  0.42830  0.28150  Biso   1.000  H
  H988     1.0000 0.45790  0.57170  0.28150  Biso   1.000  H
  H989     1.0000 0.21850  0.95790  0.42830  Biso   1.000  H
  H990     1.0000 0.21850  0.04210  0.57170  Biso   1.000  H
  H991     1.0000 0.78150  0.04210  0.42830  Biso   1.000  H
  H992     1.0000 0.78150  0.95790  0.57170  Biso   1.000  H
  H993     1.0000 0.92830  0.71850  0.95790  Biso   1.000  H
  H994     1.0000 0.07170  0.71850  0.04210  Biso   1.000  H
  H995     1.0000 0.92830  0.28150  0.04210  Biso   1.000  H
  H996     1.0000 0.07170  0.28150  0.95790  Biso   1.000  H
  H997     1.0000 0.42830  0.45790  0.21850  Biso   1.000  H
  H998     1.0000 0.57170  0.54210  0.21850  Biso   1.000  H
  H999     1.0000 0.42830  0.54210  0.78150  Biso   1.000  H
  H1000    1.0000 0.57170  0.45790  0.78150  Biso   1.000  H
  H1001    1.0000 0.95790  0.21850  0.92830  Biso   1.000  H
  H1002    1.0000 0.04210  0.21850  0.07170  Biso   1.000  H
  H1003    1.0000 0.04210  0.78150  0.92830  Biso   1.000  H
  H1004    1.0000 0.95790  0.78150  0.07170  Biso   1.000  H
  H1005    1.0000 0.71850  0.92830  0.45790  Biso   1.000  H
  H1006    1.0000 0.71850  0.07170  0.54210  Biso   1.000  H
  H1007    1.0000 0.28150  0.92830  0.54210  Biso   1.000  H
  H1008    1.0000 0.28150  0.07170  0.45790  Biso   1.000  H
  H1009    1.0000 0.95790  0.92830  0.71850  Biso   1.000  H
  H1010    1.0000 0.04210  0.07170  0.71850  Biso   1.000  H
  H1011    1.0000 0.04210  0.92830  0.28150  Biso   1.000  H
  H1012    1.0000 0.95790  0.07170  0.28150  Biso   1.000  H
  H1013    1.0000 0.71850  0.45790  0.42830  Biso   1.000  H
  H1014    1.0000 0.71850  0.54210  0.57170  Biso   1.000  H
  H1015    1.0000 0.28150  0.54210  0.42830  Biso   1.000  H
  H1016    1.0000 0.28150  0.45790  0.57170  Biso   1.000  H
  H1017    1.0000 0.42830  0.21850  0.95790  Biso   1.000  H
  H1018    1.0000 0.57170  0.21850  0.04210  Biso   1.000  H
  H1019    1.0000 0.42830  0.78150  0.04210  Biso   1.000  H
  H1020    1.0000 0.57170  0.78150  0.95790  Biso   1.000  H
  H1021    1.0000 0.92830  0.95790  0.21850  Biso   1.000  H
  H1022    1.0000 0.07170  0.04210  0.21850  Biso   1.000  H
  H1023    1.0000 0.92830  0.04210  0.78150  Biso   1.000  H
  H1024    1.0000 0.07170  0.95790  0.78150  Biso   1.000  H
  H1025    1.0000 0.45790  0.71850  0.92830  Biso   1.000  H
  H1026    1.0000 0.54210  0.71850  0.07170  Biso   1.000  H
  H1027    1.0000 0.54210  0.28150  0.92830  Biso   1.000  H
  H1028    1.0000 0.45790  0.28150  0.07170  Biso   1.000  H
  H1029    1.0000 0.21850  0.42830  0.45790  Biso   1.000  H
  H1030    1.0000 0.21850  0.57170  0.54210  Biso   1.000  H
  H1031    1.0000 0.78150  0.42830  0.54210  Biso   1.000  H
  H1032    1.0000 0.78150  0.57170  0.45790  Biso   1.000  H
  H1033    1.0000 0.95790  0.42830  0.21850  Biso   1.000  H
  H1034    1.0000 0.04210  0.57170  0.21850  Biso   1.000  H
  H1035    1.0000 0.04210  0.42830  0.78150  Biso   1.000  H
  H1036    1.0000 0.95790  0.57170  0.78150  Biso   1.000  H
  H1037    1.0000 0.71850  0.95790  0.92830  Biso   1.000  H
  H1038    1.0000 0.71850  0.04210  0.07170  Biso   1.000  H
  H1039    1.0000 0.28150  0.04210  0.92830  Biso   1.000  H
  H1040    1.0000 0.28150  0.95790  0.07170  Biso   1.000  H
  H1041    1.0000 0.42830  0.71850  0.45790  Biso   1.000  H
  H1042    1.0000 0.57170  0.71850  0.54210  Biso   1.000  H
  H1043    1.0000 0.42830  0.28150  0.54210  Biso   1.000  H
  H1044    1.0000 0.57170  0.28150  0.45790  Biso   1.000  H
  H1045    1.0000 0.92830  0.45790  0.71850  Biso   1.000  H
  H1046    1.0000 0.07170  0.54210  0.71850  Biso   1.000  H
  H1047    1.0000 0.92830  0.54210  0.28150  Biso   1.000  H
  H1048    1.0000 0.07170  0.45790  0.28150  Biso   1.000  H
  H1049    1.0000 0.45790  0.21850  0.42830  Biso   1.000  H
  H1050    1.0000 0.54210  0.21850  0.57170  Biso   1.000  H
  H1051    1.0000 0.54210  0.78150  0.42830  Biso   1.000  H
  H1052    1.0000 0.45790  0.78150  0.57170  Biso   1.000  H
  H1053    1.0000 0.21850  0.92830  0.95790  Biso   1.000  H
  H1054    1.0000 0.21850  0.07170  0.04210  Biso   1.000  H
  H1055    1.0000 0.78150  0.92830  0.04210  Biso   1.000  H
  H1056    1.0000 0.78150  0.07170  0.95790  Biso   1.000  H
  C1057    1.0000 0.43999  0.93882  0.18893  Biso   1.000  C
  C1058    1.0000 0.56001  0.06118  0.18893  Biso   1.000  C
  C1059    1.0000 0.56001  0.93882  0.81107  Biso   1.000  C
  C1060    1.0000 0.43999  0.06118  0.81107  Biso   1.000  C
  C1061    1.0000 0.18893  0.43999  0.93882  Biso   1.000  C
  C1062    1.0000 0.18893  0.56001  0.06118  Biso   1.000  C
  C1063    1.0000 0.81107  0.56001  0.93882  Biso   1.000  C
  C1064    1.0000 0.81107  0.43999  0.06118  Biso   1.000  C
  C1065    1.0000 0.93882  0.18893  0.43999  Biso   1.000  C
  C1066    1.0000 0.06118  0.18893  0.56001  Biso   1.000  C
  C1067    1.0000 0.93882  0.81107  0.56001  Biso   1.000  C
  C1068    1.0000 0.06118  0.81107  0.43999  Biso   1.000  C
  C1069    1.0000 0.43882  0.93999  0.68893  Biso   1.000  C
  C1070    1.0000 0.56118  0.06001  0.68893  Biso   1.000  C
  C1071    1.0000 0.43882  0.06001  0.31107  Biso   1.000  C
  C1072    1.0000 0.56118  0.93999  0.31107  Biso   1.000  C
  C1073    1.0000 0.93999  0.68893  0.43882  Biso   1.000  C
  C1074    1.0000 0.06001  0.68893  0.56118  Biso   1.000  C
  C1075    1.0000 0.06001  0.31107  0.43882  Biso   1.000  C
  C1076    1.0000 0.93999  0.31107  0.56118  Biso   1.000  C
  C1077    1.0000 0.68893  0.43882  0.93999  Biso   1.000  C
  C1078    1.0000 0.68893  0.56118  0.06001  Biso   1.000  C
  C1079    1.0000 0.31107  0.43882  0.06001  Biso   1.000  C
  C1080    1.0000 0.31107  0.56118  0.93999  Biso   1.000  C
  C1081    1.0000 0.43999  0.43882  0.68893  Biso   1.000  C
  C1082    1.0000 0.56001  0.56118  0.68893  Biso   1.000  C
  C1083    1.0000 0.56001  0.43882  0.31107  Biso   1.000  C
  C1084    1.0000 0.43999  0.56118  0.31107  Biso   1.000  C
  C1085    1.0000 0.18893  0.93999  0.43882  Biso   1.000  C
  C1086    1.0000 0.18893  0.06001  0.56118  Biso   1.000  C
  C1087    1.0000 0.81107  0.06001  0.43882  Biso   1.000  C
  C1088    1.0000 0.81107  0.93999  0.56118  Biso   1.000  C
  C1089    1.0000 0.93882  0.68893  0.93999  Biso   1.000  C
  C1090    1.0000 0.06118  0.68893  0.06001  Biso   1.000  C
  C1091    1.0000 0.93882  0.31107  0.06001  Biso   1.000  C
  C1092    1.0000 0.06118  0.31107  0.93999  Biso   1.000  C
  C1093    1.0000 0.43882  0.43999  0.18893  Biso   1.000  C
  C1094    1.0000 0.56118  0.56001  0.18893  Biso   1.000  C
  C1095    1.0000 0.43882  0.56001  0.81107  Biso   1.000  C
  C1096    1.0000 0.56118  0.43999  0.81107  Biso   1.000  C
  C1097    1.0000 0.93999  0.18893  0.93882  Biso   1.000  C
  C1098    1.0000 0.06001  0.18893  0.06118  Biso   1.000  C
  C1099    1.0000 0.06001  0.81107  0.93882  Biso   1.000  C
  C1100    1.0000 0.93999  0.81107  0.06118  Biso   1.000  C
  C1101    1.0000 0.68893  0.93882  0.43999  Biso   1.000  C
  C1102    1.0000 0.68893  0.06118  0.56001  Biso   1.000  C
  C1103    1.0000 0.31107  0.93882  0.56001  Biso   1.000  C
  C1104    1.0000 0.31107  0.06118  0.43999  Biso   1.000  C
  C1105    1.0000 0.93999  0.93882  0.68893  Biso   1.000  C
  C1106    1.0000 0.06001  0.06118  0.68893  Biso   1.000  C
  C1107    1.0000 0.06001  0.93882  0.31107  Biso   1.000  C
  C1108    1.0000 0.93999  0.06118  0.31107  Biso   1.000  C
  C1109    1.0000 0.68893  0.43999  0.43882  Biso   1.000  C
  C1110    1.0000 0.68893  0.56001  0.56118  Biso   1.000  C
  C1111    1.0000 0.31107  0.56001  0.43882  Biso   1.000  C
  C1112    1.0000 0.31107  0.43999  0.56118  Biso   1.000  C
  C1113    1.0000 0.43882  0.18893  0.93999  Biso   1.000  C
  C1114    1.0000 0.56118  0.18893  0.06001  Biso   1.000  C
  C1115    1.0000 0.43882  0.81107  0.06001  Biso   1.000  C
  C1116    1.0000 0.56118  0.81107  0.93999  Biso   1.000  C
  C1117    1.0000 0.93882  0.93999  0.18893  Biso   1.000  C
  C1118    1.0000 0.06118  0.06001  0.18893  Biso   1.000  C
  C1119    1.0000 0.93882  0.06001  0.81107  Biso   1.000  C
  C1120    1.0000 0.06118  0.93999  0.81107  Biso   1.000  C
  C1121    1.0000 0.43999  0.68893  0.93882  Biso   1.000  C
  C1122    1.0000 0.56001  0.68893  0.06118  Biso   1.000  C
  C1123    1.0000 0.56001  0.31107  0.93882  Biso   1.000  C
  C1124    1.0000 0.43999  0.31107  0.06118  Biso   1.000  C
  C1125    1.0000 0.18893  0.43882  0.43999  Biso   1.000  C
  C1126    1.0000 0.18893  0.56118  0.56001  Biso   1.000  C
  C1127    1.0000 0.81107  0.43882  0.56001  Biso   1.000  C
  C1128    1.0000 0.81107  0.56118  0.43999  Biso   1.000  C
  C1129    1.0000 0.93999  0.43882  0.18893  Biso   1.000  C
  C1130    1.0000 0.06001  0.56118  0.18893  Biso   1.000  C
  C1131    1.0000 0.06001  0.43882  0.81107  Biso   1.000  C
  C1132    1.0000 0.93999  0.56118  0.81107  Biso   1.000  C
  C1133    1.0000 0.68893  0.93999  0.93882  Biso   1.000  C
  C1134    1.0000 0.68893  0.06001  0.06118  Biso   1.000  C
  C1135    1.0000 0.31107  0.06001  0.93882  Biso   1.000  C
  C1136    1.0000 0.31107  0.93999  0.06118  Biso   1.000  C
  C1137    1.0000 0.43882  0.68893  0.43999  Biso   1.000  C
  C1138    1.0000 0.56118  0.68893  0.56001  Biso   1.000  C
  C1139    1.0000 0.43882  0.31107  0.56001  Biso   1.000  C
  C1140    1.0000 0.56118  0.31107  0.43999  Biso   1.000  C
  C1141    1.0000 0.93882  0.43999  0.68893  Biso   1.000  C
  C1142    1.0000 0.06118  0.56001  0.68893  Biso   1.000  C
  C1143    1.0000 0.93882  0.56001  0.31107  Biso   1.000  C
  C1144    1.0000 0.06118  0.43999  0.31107  Biso   1.000  C
  C1145    1.0000 0.43999  0.18893  0.43882  Biso   1.000  C
  C1146    1.0000 0.56001  0.18893  0.56118  Biso   1.000  C
  C1147    1.0000 0.56001  0.81107  0.43882  Biso   1.000  C
  C1148    1.0000 0.43999  0.81107  0.56118  Biso   1.000  C
  C1149    1.0000 0.18893  0.93882  0.93999  Biso   1.000  C
  C1150    1.0000 0.18893  0.06118  0.06001  Biso   1.000  C
  C1151    1.0000 0.81107  0.93882  0.06001  Biso   1.000  C
  C1152    1.0000 0.81107  0.06118  0.93999  Biso   1.000  C
  C1153    1.0000 0.43918  0.95683  0.17162  Biso   1.000  C
  C1154    1.0000 0.56082  0.04317  0.17162  Biso   1.000  C
  C1155    1.0000 0.56082  0.95683  0.82838  Biso   1.000  C
  C1156    1.0000 0.43918  0.04317  0.82838  Biso   1.000  C
  C1157    1.0000 0.17162  0.43918  0.95683  Biso   1.000  C
  C1158    1.0000 0.17162  0.56082  0.04317  Biso   1.000  C
  C1159    1.0000 0.82838  0.56082  0.95683  Biso   1.000  C
  C1160    1.0000 0.82838  0.43918  0.04317  Biso   1.000  C
  C1161    1.0000 0.95683  0.17162  0.43918  Biso   1.000  C
  C1162    1.0000 0.04317  0.17162  0.56082  Biso   1.000  C
  C1163    1.0000 0.95683  0.82838  0.56082  Biso   1.000  C
  C1164    1.0000 0.04317  0.82838  0.43918  Biso   1.000  C
  C1165    1.0000 0.45683  0.93918  0.67162  Biso   1.000  C
  C1166    1.0000 0.54317  0.06082  0.67162  Biso   1.000  C
  C1167    1.0000 0.45683  0.06082  0.32838  Biso   1.000  C
  C1168    1.0000 0.54317  0.93918  0.32838  Biso   1.000  C
  C1169    1.0000 0.93918  0.67162  0.45683  Biso   1.000  C
  C1170    1.0000 0.06082  0.67162  0.54317  Biso   1.000  C
  C1171    1.0000 0.06082  0.32838  0.45683  Biso   1.000  C
  C1172    1.0000 0.93918  0.32838  0.54317  Biso   1.000  C
  C1173    1.0000 0.67162  0.45683  0.93918  Biso   1.000  C
  C1174    1.0000 0.67162  0.54317  0.06082  Biso   1.000  C
  C1175    1.0000 0.32838  0.45683  0.06082  Biso   1.000  C
  C1176    1.0000 0.32838  0.54317  0.93918  Biso   1.000  C
  C1177    1.0000 0.43918  0.45683  0.67162  Biso   1.000  C
  C1178    1.0000 0.56082  0.54317  0.67162  Biso   1.000  C
  C1179    1.0000 0.56082  0.45683  0.32838  Biso   1.000  C
  C1180    1.0000 0.43918  0.54317  0.32838  Biso   1.000  C
  C1181    1.0000 0.17162  0.93918  0.45683  Biso   1.000  C
  C1182    1.0000 0.17162  0.06082  0.54317  Biso   1.000  C
  C1183    1.0000 0.82838  0.06082  0.45683  Biso   1.000  C
  C1184    1.0000 0.82838  0.93918  0.54317  Biso   1.000  C
  C1185    1.0000 0.95683  0.67162  0.93918  Biso   1.000  C
  C1186    1.0000 0.04317  0.67162  0.06082  Biso   1.000  C
  C1187    1.0000 0.95683  0.32838  0.06082  Biso   1.000  C
  C1188    1.0000 0.04317  0.32838  0.93918  Biso   1.000  C
  C1189    1.0000 0.45683  0.43918  0.17162  Biso   1.000  C
  C1190    1.0000 0.54317  0.56082  0.17162  Biso   1.000  C
  C1191    1.0000 0.45683  0.56082  0.82838  Biso   1.000  C
  C1192    1.0000 0.54317  0.43918  0.82838  Biso   1.000  C
  C1193    1.0000 0.93918  0.17162  0.95683  Biso   1.000  C
  C1194    1.0000 0.06082  0.17162  0.04317  Biso   1.000  C
  C1195    1.0000 0.06082  0.82838  0.95683  Biso   1.000  C
  C1196    1.0000 0.93918  0.82838  0.04317  Biso   1.000  C
  C1197    1.0000 0.67162  0.95683  0.43918  Biso   1.000  C
  C1198    1.0000 0.67162  0.04317  0.56082  Biso   1.000  C
  C1199    1.0000 0.32838  0.95683  0.56082  Biso   1.000  C
  C1200    1.0000 0.32838  0.04317  0.43918  Biso   1.000  C
  C1201    1.0000 0.93918  0.95683  0.67162  Biso   1.000  C
  C1202    1.0000 0.06082  0.04317  0.67162  Biso   1.000  C
  C1203    1.0000 0.06082  0.95683  0.32838  Biso   1.000  C
  C1204    1.0000 0.93918  0.04317  0.32838  Biso   1.000  C
  C1205    1.0000 0.67162  0.43918  0.45683  Biso   1.000  C
  C1206    1.0000 0.67162  0.56082  0.54317  Biso   1.000  C
  C1207    1.0000 0.32838  0.56082  0.45683  Biso   1.000  C
  C1208    1.0000 0.32838  0.43918  0.54317  Biso   1.000  C
  C1209    1.0000 0.45683  0.17162  0.93918  Biso   1.000  C
  C1210    1.0000 0.54317  0.17162  0.06082  Biso   1.000  C
  C1211    1.0000 0.45683  0.82838  0.06082  Biso   1.000  C
  C1212    1.0000 0.54317  0.82838  0.93918  Biso   1.000  C
  C1213    1.0000 0.95683  0.93918  0.17162  Biso   1.000  C
  C1214    1.0000 0.04317  0.06082  0.17162  Biso   1.000  C
  C1215    1.0000 0.95683  0.06082  0.82838  Biso   1.000  C
  C1216    1.0000 0.04317  0.93918  0.82838  Biso   1.000  C
  C1217    1.0000 0.43918  0.67162  0.95683  Biso   1.000  C
  C1218    1.0000 0.56082  0.67162  0.04317  Biso   1.000  C
  C1219    1.0000 0.56082  0.32838  0.95683  Biso   1.000  C
  C1220    1.0000 0.43918  0.32838  0.04317  Biso   1.000  C
  C1221    1.0000 0.17162  0.45683  0.43918  Biso   1.000  C
  C1222    1.0000 0.17162  0.54317  0.56082  Biso   1.000  C
  C1223    1.0000 0.82838  0.45683  0.56082  Biso   1.000  C
  C1224    1.0000 0.82838  0.54317  0.43918  Biso   1.000  C
  C1225    1.0000 0.93918  0.45683  0.17162  Biso   1.000  C
  C1226    1.0000 0.06082  0.54317  0.17162  Biso   1.000  C
  C1227    1.0000 0.06082  0.45683  0.82838  Biso   1.000  C
  C1228    1.0000 0.93918  0.54317  0.82838  Biso   1.000  C
  C1229    1.0000 0.67162  0.93918  0.95683  Biso   1.000  C
  C1230    1.0000 0.67162  0.06082  0.04317  Biso   1.000  C
  C1231    1.0000 0.32838  0.06082  0.95683  Biso   1.000  C
  C1232    1.0000 0.32838  0.93918  0.04317  Biso   1.000  C
  C1233    1.0000 0.45683  0.67162  0.43918  Biso   1.000  C
  C1234    1.0000 0.54317  0.67162  0.56082  Biso   1.000  C
  C1235    1.0000 0.45683  0.32838  0.56082  Biso   1.000  C
  C1236    1.0000 0.54317  0.32838  0.43918  Biso   1.000  C
  C1237    1.0000 0.95683  0.43918  0.67162  Biso   1.000  C
  C1238    1.0000 0.04317  0.56082  0.67162  Biso   1.000  C
  C1239    1.0000 0.95683  0.56082  0.32838  Biso   1.000  C
  C1240    1.0000 0.04317  0.43918  0.32838  Biso   1.000  C
  C1241    1.0000 0.43918  0.17162  0.45683  Biso   1.000  C
  C1242    1.0000 0.56082  0.17162  0.54317  Biso   1.000  C
  C1243    1.0000 0.56082  0.82838  0.45683  Biso   1.000  C
  C1244    1.0000 0.43918  0.82838  0.54317  Biso   1.000  C
  C1245    1.0000 0.17162  0.95683  0.93918  Biso   1.000  C
  C1246    1.0000 0.17162  0.04317  0.06082  Biso   1.000  C
  C1247    1.0000 0.82838  0.95683  0.06082  Biso   1.000  C
  C1248    1.0000 0.82838  0.04317  0.93918  Biso   1.000  C
  H1057    1.0000 0.42750  0.95670  0.15930  Biso   1.000  H
  H1058    1.0000 0.57250  0.04330  0.15930  Biso   1.000  H
  H1059    1.0000 0.57250  0.95670  0.84070  Biso   1.000  H
  H1060    1.0000 0.42750  0.04330  0.84070  Biso   1.000  H
  H1061    1.0000 0.15930  0.42750  0.95670  Biso   1.000  H
  H1062    1.0000 0.15930  0.57250  0.04330  Biso   1.000  H
  H1063    1.0000 0.84070  0.57250  0.95670  Biso   1.000  H
  H1064    1.0000 0.84070  0.42750  0.04330  Biso   1.000  H
  H1065    1.0000 0.95670  0.15930  0.42750  Biso   1.000  H
  H1066    1.0000 0.04330  0.15930  0.57250  Biso   1.000  H
  H1067    1.0000 0.95670  0.84070  0.57250  Biso   1.000  H
  H1068    1.0000 0.04330  0.84070  0.42750  Biso   1.000  H
  H1069    1.0000 0.45670  0.92750  0.65930  Biso   1.000  H
  H1070    1.0000 0.54330  0.07250  0.65930  Biso   1.000  H
  H1071    1.0000 0.45670  0.07250  0.34070  Biso   1.000  H
  H1072    1.0000 0.54330  0.92750  0.34070  Biso   1.000  H
  H1073    1.0000 0.92750  0.65930  0.45670  Biso   1.000  H
  H1074    1.0000 0.07250  0.65930  0.54330  Biso   1.000  H
  H1075    1.0000 0.07250  0.34070  0.45670  Biso   1.000  H
  H1076    1.0000 0.92750  0.34070  0.54330  Biso   1.000  H
  H1077    1.0000 0.65930  0.45670  0.92750  Biso   1.000  H
  H1078    1.0000 0.65930  0.54330  0.07250  Biso   1.000  H
  H1079    1.0000 0.34070  0.45670  0.07250  Biso   1.000  H
  H1080    1.0000 0.34070  0.54330  0.92750  Biso   1.000  H
  H1081    1.0000 0.42750  0.45670  0.65930  Biso   1.000  H
  H1082    1.0000 0.57250  0.54330  0.65930  Biso   1.000  H
  H1083    1.0000 0.57250  0.45670  0.34070  Biso   1.000  H
  H1084    1.0000 0.42750  0.54330  0.34070  Biso   1.000  H
  H1085    1.0000 0.15930  0.92750  0.45670  Biso   1.000  H
  H1086    1.0000 0.15930  0.07250  0.54330  Biso   1.000  H
  H1087    1.0000 0.84070  0.07250  0.45670  Biso   1.000  H
  H1088    1.0000 0.84070  0.92750  0.54330  Biso   1.000  H
  H1089    1.0000 0.95670  0.65930  0.92750  Biso   1.000  H
  H1090    1.0000 0.04330  0.65930  0.07250  Biso   1.000  H
  H1091    1.0000 0.95670  0.34070  0.07250  Biso   1.000  H
  H1092    1.0000 0.04330  0.34070  0.92750  Biso   1.000  H
  H1093    1.0000 0.45670  0.42750  0.15930  Biso   1.000  H
  H1094    1.0000 0.54330  0.57250  0.15930  Biso   1.000  H
  H1095    1.0000 0.45670  0.57250  0.84070  Biso   1.000  H
  H1096    1.0000 0.54330  0.42750  0.84070  Biso   1.000  H
  H1097    1.0000 0.92750  0.15930  0.95670  Biso   1.000  H
  H1098    1.0000 0.07250  0.15930  0.04330  Biso   1.000  H
  H1099    1.0000 0.07250  0.84070  0.95670  Biso   1.000  H
  H1100    1.0000 0.92750  0.84070  0.04330  Biso   1.000  H
  H1101    1.0000 0.65930  0.95670  0.42750  Biso   1.000  H
  H1102    1.0000 0.65930  0.04330  0.57250  Biso   1.000  H
  H1103    1.0000 0.34070  0.95670  0.57250  Biso   1.000  H
  H1104    1.0000 0.34070  0.04330  0.42750  Biso   1.000  H
  H1105    1.0000 0.92750  0.95670  0.65930  Biso   1.000  H
  H1106    1.0000 0.07250  0.04330  0.65930  Biso   1.000  H
  H1107    1.0000 0.07250  0.95670  0.34070  Biso   1.000  H
  H1108    1.0000 0.92750  0.04330  0.34070  Biso   1.000  H
  H1109    1.0000 0.65930  0.42750  0.45670  Biso   1.000  H
  H1110    1.0000 0.65930  0.57250  0.54330  Biso   1.000  H
  H1111    1.0000 0.34070  0.57250  0.45670  Biso   1.000  H
  H1112    1.0000 0.34070  0.42750  0.54330  Biso   1.000  H
  H1113    1.0000 0.45670  0.15930  0.92750  Biso   1.000  H
  H1114    1.0000 0.54330  0.15930  0.07250  Biso   1.000  H
  H1115    1.0000 0.45670  0.84070  0.07250  Biso   1.000  H
  H1116    1.0000 0.54330  0.84070  0.92750  Biso   1.000  H
  H1117    1.0000 0.95670  0.92750  0.15930  Biso   1.000  H
  H1118    1.0000 0.04330  0.07250  0.15930  Biso   1.000  H
  H1119    1.0000 0.95670  0.07250  0.84070  Biso   1.000  H
  H1120    1.0000 0.04330  0.92750  0.84070  Biso   1.000  H
  H1121    1.0000 0.42750  0.65930  0.95670  Biso   1.000  H
  H1122    1.0000 0.57250  0.65930  0.04330  Biso   1.000  H
  H1123    1.0000 0.57250  0.34070  0.95670  Biso   1.000  H
  H1124    1.0000 0.42750  0.34070  0.04330  Biso   1.000  H
  H1125    1.0000 0.15930  0.45670  0.42750  Biso   1.000  H
  H1126    1.0000 0.15930  0.54330  0.57250  Biso   1.000  H
  H1127    1.0000 0.84070  0.45670  0.57250  Biso   1.000  H
  H1128    1.0000 0.84070  0.54330  0.42750  Biso   1.000  H
  H1129    1.0000 0.92750  0.45670  0.15930  Biso   1.000  H
  H1130    1.0000 0.07250  0.54330  0.15930  Biso   1.000  H
  H1131    1.0000 0.07250  0.45670  0.84070  Biso   1.000  H
  H1132    1.0000 0.92750  0.54330  0.84070  Biso   1.000  H
  H1133    1.0000 0.65930  0.92750  0.95670  Biso   1.000  H
  H1134    1.0000 0.65930  0.07250  0.04330  Biso   1.000  H
  H1135    1.0000 0.34070  0.07250  0.95670  Biso   1.000  H
  H1136    1.0000 0.34070  0.92750  0.04330  Biso   1.000  H
  H1137    1.0000 0.45670  0.65930  0.42750  Biso   1.000  H
  H1138    1.0000 0.54330  0.65930  0.57250  Biso   1.000  H
  H1139    1.0000 0.45670  0.34070  0.57250  Biso   1.000  H
  H1140    1.0000 0.54330  0.34070  0.42750  Biso   1.000  H
  H1141    1.0000 0.95670  0.42750  0.65930  Biso   1.000  H
  H1142    1.0000 0.04330  0.57250  0.65930  Biso   1.000  H
  H1143    1.0000 0.95670  0.57250  0.34070  Biso   1.000  H
  H1144    1.0000 0.04330  0.42750  0.34070  Biso   1.000  H
  H1145    1.0000 0.42750  0.15930  0.45670  Biso   1.000  H
  H1146    1.0000 0.57250  0.15930  0.54330  Biso   1.000  H
  H1147    1.0000 0.57250  0.84070  0.45670  Biso   1.000  H
  H1148    1.0000 0.42750  0.84070  0.54330  Biso   1.000  H
  H1149    1.0000 0.15930  0.95670  0.92750  Biso   1.000  H
  H1150    1.0000 0.15930  0.04330  0.07250  Biso   1.000  H
  H1151    1.0000 0.84070  0.95670  0.07250  Biso   1.000  H
  H1152    1.0000 0.84070  0.04330  0.92750  Biso   1.000  H
  C1249    1.0000 0.45595  0.97478  0.17301  Biso   1.000  C
  C1250    1.0000 0.54405  0.02522  0.17301  Biso   1.000  C
  C1251    1.0000 0.54405  0.97478  0.82699  Biso   1.000  C
  C1252    1.0000 0.45595  0.02522  0.82699  Biso   1.000  C
  C1253    1.0000 0.17301  0.45595  0.97478  Biso   1.000  C
  C1254    1.0000 0.17301  0.54405  0.02522  Biso   1.000  C
  C1255    1.0000 0.82699  0.54405  0.97478  Biso   1.000  C
  C1256    1.0000 0.82699  0.45595  0.02522  Biso   1.000  C
  C1257    1.0000 0.97478  0.17301  0.45595  Biso   1.000  C
  C1258    1.0000 0.02522  0.17301  0.54405  Biso   1.000  C
  C1259    1.0000 0.97478  0.82699  0.54405  Biso   1.000  C
  C1260    1.0000 0.02522  0.82699  0.45595  Biso   1.000  C
  C1261    1.0000 0.47478  0.95595  0.67301  Biso   1.000  C
  C1262    1.0000 0.52522  0.04405  0.67301  Biso   1.000  C
  C1263    1.0000 0.47478  0.04405  0.32699  Biso   1.000  C
  C1264    1.0000 0.52522  0.95595  0.32699  Biso   1.000  C
  C1265    1.0000 0.95595  0.67301  0.47478  Biso   1.000  C
  C1266    1.0000 0.04405  0.67301  0.52522  Biso   1.000  C
  C1267    1.0000 0.04405  0.32699  0.47478  Biso   1.000  C
  C1268    1.0000 0.95595  0.32699  0.52522  Biso   1.000  C
  C1269    1.0000 0.67301  0.47478  0.95595  Biso   1.000  C
  C1270    1.0000 0.67301  0.52522  0.04405  Biso   1.000  C
  C1271    1.0000 0.32699  0.47478  0.04405  Biso   1.000  C
  C1272    1.0000 0.32699  0.52522  0.95595  Biso   1.000  C
  C1273    1.0000 0.45595  0.47478  0.67301  Biso   1.000  C
  C1274    1.0000 0.54405  0.52522  0.67301  Biso   1.000  C
  C1275    1.0000 0.54405  0.47478  0.32699  Biso   1.000  C
  C1276    1.0000 0.45595  0.52522  0.32699  Biso   1.000  C
  C1277    1.0000 0.17301  0.95595  0.47478  Biso   1.000  C
  C1278    1.0000 0.17301  0.04405  0.52522  Biso   1.000  C
  C1279    1.0000 0.82699  0.04405  0.47478  Biso   1.000  C
  C1280    1.0000 0.82699  0.95595  0.52522  Biso   1.000  C
  C1281    1.0000 0.97478  0.67301  0.95595  Biso   1.000  C
  C1282    1.0000 0.02522  0.67301  0.04405  Biso   1.000  C
  C1283    1.0000 0.97478  0.32699  0.04405  Biso   1.000  C
  C1284    1.0000 0.02522  0.32699  0.95595  Biso   1.000  C
  C1285    1.0000 0.47478  0.45595  0.17301  Biso   1.000  C
  C1286    1.0000 0.52522  0.54405  0.17301  Biso   1.000  C
  C1287    1.0000 0.47478  0.54405  0.82699  Biso   1.000  C
  C1288    1.0000 0.52522  0.45595  0.82699  Biso   1.000  C
  C1289    1.0000 0.95595  0.17301  0.97478  Biso   1.000  C
  C1290    1.0000 0.04405  0.17301  0.02522  Biso   1.000  C
  C1291    1.0000 0.04405  0.82699  0.97478  Biso   1.000  C
  C1292    1.0000 0.95595  0.82699  0.02522  Biso   1.000  C
  C1293    1.0000 0.67301  0.97478  0.45595  Biso   1.000  C
  C1294    1.0000 0.67301  0.02522  0.54405  Biso   1.000  C
  C1295    1.0000 0.32699  0.97478  0.54405  Biso   1.000  C
  C1296    1.0000 0.32699  0.02522  0.45595  Biso   1.000  C
  C1297    1.0000 0.95595  0.97478  0.67301  Biso   1.000  C
  C1298    1.0000 0.04405  0.02522  0.67301  Biso   1.000  C
  C1299    1.0000 0.04405  0.97478  0.32699  Biso   1.000  C
  C1300    1.0000 0.95595  0.02522  0.32699  Biso   1.000  C
  C1301    1.0000 0.67301  0.45595  0.47478  Biso   1.000  C
  C1302    1.0000 0.67301  0.54405  0.52522  Biso   1.000  C
  C1303    1.0000 0.32699  0.54405  0.47478  Biso   1.000  C
  C1304    1.0000 0.32699  0.45595  0.52522  Biso   1.000  C
  C1305    1.0000 0.47478  0.17301  0.95595  Biso   1.000  C
  C1306    1.0000 0.52522  0.17301  0.04405  Biso   1.000  C
  C1307    1.0000 0.47478  0.82699  0.04405  Biso   1.000  C
  C1308    1.0000 0.52522  0.82699  0.95595  Biso   1.000  C
  C1309    1.0000 0.97478  0.95595  0.17301  Biso   1.000  C
  C1310    1.0000 0.02522  0.04405  0.17301  Biso   1.000  C
  C1311    1.0000 0.97478  0.04405  0.82699  Biso   1.000  C
  C1312    1.0000 0.02522  0.95595  0.82699  Biso   1.000  C
  C1313    1.0000 0.45595  0.67301  0.97478  Biso   1.000  C
  C1314    1.0000 0.54405  0.67301  0.02522  Biso   1.000  C
  C1315    1.0000 0.54405  0.32699  0.97478  Biso   1.000  C
  C1316    1.0000 0.45595  0.32699  0.02522  Biso   1.000  C
  C1317    1.0000 0.17301  0.47478  0.45595  Biso   1.000  C
  C1318    1.0000 0.17301  0.52522  0.54405  Biso   1.000  C
  C1319    1.0000 0.82699  0.47478  0.54405  Biso   1.000  C
  C1320    1.0000 0.82699  0.52522  0.45595  Biso   1.000  C
  C1321    1.0000 0.95595  0.47478  0.17301  Biso   1.000  C
  C1322    1.0000 0.04405  0.52522  0.17301  Biso   1.000  C
  C1323    1.0000 0.04405  0.47478  0.82699  Biso   1.000  C
  C1324    1.0000 0.95595  0.52522  0.82699  Biso   1.000  C
  C1325    1.0000 0.67301  0.95595  0.97478  Biso   1.000  C
  C1326    1.0000 0.67301  0.04405  0.02522  Biso   1.000  C
  C1327    1.0000 0.32699  0.04405  0.97478  Biso   1.000  C
  C1328    1.0000 0.32699  0.95595  0.02522  Biso   1.000  C
  C1329    1.0000 0.47478  0.67301  0.45595  Biso   1.000  C
  C1330    1.0000 0.52522  0.67301  0.54405  Biso   1.000  C
  C1331    1.0000 0.47478  0.32699  0.54405  Biso   1.000  C
  C1332    1.0000 0.52522  0.32699  0.45595  Biso   1.000  C
  C1333    1.0000 0.97478  0.45595  0.67301  Biso   1.000  C
  C1334    1.0000 0.02522  0.54405  0.67301  Biso   1.000  C
  C1335    1.0000 0.97478  0.54405  0.32699  Biso   1.000  C
  C1336    1.0000 0.02522  0.45595  0.32699  Biso   1.000  C
  C1337    1.0000 0.45595  0.17301  0.47478  Biso   1.000  C
  C1338    1.0000 0.54405  0.17301  0.52522  Biso   1.000  C
  C1339    1.0000 0.54405  0.82699  0.47478  Biso   1.000  C
  C1340    1.0000 0.45595  0.82699  0.52522  Biso   1.000  C
  C1341    1.0000 0.17301  0.97478  0.95595  Biso   1.000  C
  C1342    1.0000 0.17301  0.02522  0.04405  Biso   1.000  C
  C1343    1.0000 0.82699  0.97478  0.04405  Biso   1.000  C
  C1344    1.0000 0.82699  0.02522  0.95595  Biso   1.000  C
  H1153    1.0000 0.45510  0.98750  0.16180  Biso   1.000  H
  H1154    1.0000 0.54490  0.01250  0.16180  Biso   1.000  H
  H1155    1.0000 0.54490  0.98750  0.83820  Biso   1.000  H
  H1156    1.0000 0.45510  0.01250  0.83820  Biso   1.000  H
  H1157    1.0000 0.16180  0.45510  0.98750  Biso   1.000  H
  H1158    1.0000 0.16180  0.54490  0.01250  Biso   1.000  H
  H1159    1.0000 0.83820  0.54490  0.98750  Biso   1.000  H
  H1160    1.0000 0.83820  0.45510  0.01250  Biso   1.000  H
  H1161    1.0000 0.98750  0.16180  0.45510  Biso   1.000  H
  H1162    1.0000 0.01250  0.16180  0.54490  Biso   1.000  H
  H1163    1.0000 0.98750  0.83820  0.54490  Biso   1.000  H
  H1164    1.0000 0.01250  0.83820  0.45510  Biso   1.000  H
  H1165    1.0000 0.48750  0.95510  0.66180  Biso   1.000  H
  H1166    1.0000 0.51250  0.04490  0.66180  Biso   1.000  H
  H1167    1.0000 0.48750  0.04490  0.33820  Biso   1.000  H
  H1168    1.0000 0.51250  0.95510  0.33820  Biso   1.000  H
  H1169    1.0000 0.95510  0.66180  0.48750  Biso   1.000  H
  H1170    1.0000 0.04490  0.66180  0.51250  Biso   1.000  H
  H1171    1.0000 0.04490  0.33820  0.48750  Biso   1.000  H
  H1172    1.0000 0.95510  0.33820  0.51250  Biso   1.000  H
  H1173    1.0000 0.66180  0.48750  0.95510  Biso   1.000  H
  H1174    1.0000 0.66180  0.51250  0.04490  Biso   1.000  H
  H1175    1.0000 0.33820  0.48750  0.04490  Biso   1.000  H
  H1176    1.0000 0.33820  0.51250  0.95510  Biso   1.000  H
  H1177    1.0000 0.45510  0.48750  0.66180  Biso   1.000  H
  H1178    1.0000 0.54490  0.51250  0.66180  Biso   1.000  H
  H1179    1.0000 0.54490  0.48750  0.33820  Biso   1.000  H
  H1180    1.0000 0.45510  0.51250  0.33820  Biso   1.000  H
  H1181    1.0000 0.16180  0.95510  0.48750  Biso   1.000  H
  H1182    1.0000 0.16180  0.04490  0.51250  Biso   1.000  H
  H1183    1.0000 0.83820  0.04490  0.48750  Biso   1.000  H
  H1184    1.0000 0.83820  0.95510  0.51250  Biso   1.000  H
  H1185    1.0000 0.98750  0.66180  0.95510  Biso   1.000  H
  H1186    1.0000 0.01250  0.66180  0.04490  Biso   1.000  H
  H1187    1.0000 0.98750  0.33820  0.04490  Biso   1.000  H
  H1188    1.0000 0.01250  0.33820  0.95510  Biso   1.000  H
  H1189    1.0000 0.48750  0.45510  0.16180  Biso   1.000  H
  H1190    1.0000 0.51250  0.54490  0.16180  Biso   1.000  H
  H1191    1.0000 0.48750  0.54490  0.83820  Biso   1.000  H
  H1192    1.0000 0.51250  0.45510  0.83820  Biso   1.000  H
  H1193    1.0000 0.95510  0.16180  0.98750  Biso   1.000  H
  H1194    1.0000 0.04490  0.16180  0.01250  Biso   1.000  H
  H1195    1.0000 0.04490  0.83820  0.98750  Biso   1.000  H
  H1196    1.0000 0.95510  0.83820  0.01250  Biso   1.000  H
  H1197    1.0000 0.66180  0.98750  0.45510  Biso   1.000  H
  H1198    1.0000 0.66180  0.01250  0.54490  Biso   1.000  H
  H1199    1.0000 0.33820  0.98750  0.54490  Biso   1.000  H
  H1200    1.0000 0.33820  0.01250  0.45510  Biso   1.000  H
  H1201    1.0000 0.95510  0.98750  0.66180  Biso   1.000  H
  H1202    1.0000 0.04490  0.01250  0.66180  Biso   1.000  H
  H1203    1.0000 0.04490  0.98750  0.33820  Biso   1.000  H
  H1204    1.0000 0.95510  0.01250  0.33820  Biso   1.000  H
  H1205    1.0000 0.66180  0.45510  0.48750  Biso   1.000  H
  H1206    1.0000 0.66180  0.54490  0.51250  Biso   1.000  H
  H1207    1.0000 0.33820  0.54490  0.48750  Biso   1.000  H
  H1208    1.0000 0.33820  0.45510  0.51250  Biso   1.000  H
  H1209    1.0000 0.48750  0.16180  0.95510  Biso   1.000  H
  H1210    1.0000 0.51250  0.16180  0.04490  Biso   1.000  H
  H1211    1.0000 0.48750  0.83820  0.04490  Biso   1.000  H
  H1212    1.0000 0.51250  0.83820  0.95510  Biso   1.000  H
  H1213    1.0000 0.98750  0.95510  0.16180  Biso   1.000  H
  H1214    1.0000 0.01250  0.04490  0.16180  Biso   1.000  H
  H1215    1.0000 0.98750  0.04490  0.83820  Biso   1.000  H
  H1216    1.0000 0.01250  0.95510  0.83820  Biso   1.000  H
  H1217    1.0000 0.45510  0.66180  0.98750  Biso   1.000  H
  H1218    1.0000 0.54490  0.66180  0.01250  Biso   1.000  H
  H1219    1.0000 0.54490  0.33820  0.98750  Biso   1.000  H
  H1220    1.0000 0.45510  0.33820  0.01250  Biso   1.000  H
  H1221    1.0000 0.16180  0.48750  0.45510  Biso   1.000  H
  H1222    1.0000 0.16180  0.51250  0.54490  Biso   1.000  H
  H1223    1.0000 0.83820  0.48750  0.54490  Biso   1.000  H
  H1224    1.0000 0.83820  0.51250  0.45510  Biso   1.000  H
  H1225    1.0000 0.95510  0.48750  0.16180  Biso   1.000  H
  H1226    1.0000 0.04490  0.51250  0.16180  Biso   1.000  H
  H1227    1.0000 0.04490  0.48750  0.83820  Biso   1.000  H
  H1228    1.0000 0.95510  0.51250  0.83820  Biso   1.000  H
  H1229    1.0000 0.66180  0.95510  0.98750  Biso   1.000  H
  H1230    1.0000 0.66180  0.04490  0.01250  Biso   1.000  H
  H1231    1.0000 0.33820  0.04490  0.98750  Biso   1.000  H
  H1232    1.0000 0.33820  0.95510  0.01250  Biso   1.000  H
  H1233    1.0000 0.48750  0.66180  0.45510  Biso   1.000  H
  H1234    1.0000 0.51250  0.66180  0.54490  Biso   1.000  H
  H1235    1.0000 0.48750  0.33820  0.54490  Biso   1.000  H
  H1236    1.0000 0.51250  0.33820  0.45510  Biso   1.000  H
  H1237    1.0000 0.98750  0.45510  0.66180  Biso   1.000  H
  H1238    1.0000 0.01250  0.54490  0.66180  Biso   1.000  H
  H1239    1.0000 0.98750  0.54490  0.33820  Biso   1.000  H
  H1240    1.0000 0.01250  0.45510  0.33820  Biso   1.000  H
  H1241    1.0000 0.45510  0.16180  0.48750  Biso   1.000  H
  H1242    1.0000 0.54490  0.16180  0.51250  Biso   1.000  H
  H1243    1.0000 0.54490  0.83820  0.48750  Biso   1.000  H
  H1244    1.0000 0.45510  0.83820  0.51250  Biso   1.000  H
  H1245    1.0000 0.16180  0.98750  0.95510  Biso   1.000  H
  H1246    1.0000 0.16180  0.01250  0.04490  Biso   1.000  H
  H1247    1.0000 0.83820  0.98750  0.04490  Biso   1.000  H
  H1248    1.0000 0.83820  0.01250  0.95510  Biso   1.000  H
  C1345    1.0000 0.42200  0.91841  0.18906  Biso   1.000  C
  C1346    1.0000 0.57800  0.08159  0.18906  Biso   1.000  C
  C1347    1.0000 0.57800  0.91841  0.81094  Biso   1.000  C
  C1348    1.0000 0.42200  0.08159  0.81094  Biso   1.000  C
  C1349    1.0000 0.18906  0.42200  0.91841  Biso   1.000  C
  C1350    1.0000 0.18906  0.57800  0.08159  Biso   1.000  C
  C1351    1.0000 0.81094  0.57800  0.91841  Biso   1.000  C
  C1352    1.0000 0.81094  0.42200  0.08159  Biso   1.000  C
  C1353    1.0000 0.91841  0.18906  0.42200  Biso   1.000  C
  C1354    1.0000 0.08159  0.18906  0.57800  Biso   1.000  C
  C1355    1.0000 0.91841  0.81094  0.57800  Biso   1.000  C
  C1356    1.0000 0.08159  0.81094  0.42200  Biso   1.000  C
  C1357    1.0000 0.41841  0.92200  0.68906  Biso   1.000  C
  C1358    1.0000 0.58159  0.07800  0.68906  Biso   1.000  C
  C1359    1.0000 0.41841  0.07800  0.31094  Biso   1.000  C
  C1360    1.0000 0.58159  0.92200  0.31094  Biso   1.000  C
  C1361    1.0000 0.92200  0.68906  0.41841  Biso   1.000  C
  C1362    1.0000 0.07800  0.68906  0.58159  Biso   1.000  C
  C1363    1.0000 0.07800  0.31094  0.41841  Biso   1.000  C
  C1364    1.0000 0.92200  0.31094  0.58159  Biso   1.000  C
  C1365    1.0000 0.68906  0.41841  0.92200  Biso   1.000  C
  C1366    1.0000 0.68906  0.58159  0.07800  Biso   1.000  C
  C1367    1.0000 0.31094  0.41841  0.07800  Biso   1.000  C
  C1368    1.0000 0.31094  0.58159  0.92200  Biso   1.000  C
  C1369    1.0000 0.42200  0.41841  0.68906  Biso   1.000  C
  C1370    1.0000 0.57800  0.58159  0.68906  Biso   1.000  C
  C1371    1.0000 0.57800  0.41841  0.31094  Biso   1.000  C
  C1372    1.0000 0.42200  0.58159  0.31094  Biso   1.000  C
  C1373    1.0000 0.18906  0.92200  0.41841  Biso   1.000  C
  C1374    1.0000 0.18906  0.07800  0.58159  Biso   1.000  C
  C1375    1.0000 0.81094  0.07800  0.41841  Biso   1.000  C
  C1376    1.0000 0.81094  0.92200  0.58159  Biso   1.000  C
  C1377    1.0000 0.91841  0.68906  0.92200  Biso   1.000  C
  C1378    1.0000 0.08159  0.68906  0.07800  Biso   1.000  C
  C1379    1.0000 0.91841  0.31094  0.07800  Biso   1.000  C
  C1380    1.0000 0.08159  0.31094  0.92200  Biso   1.000  C
  C1381    1.0000 0.41841  0.42200  0.18906  Biso   1.000  C
  C1382    1.0000 0.58159  0.57800  0.18906  Biso   1.000  C
  C1383    1.0000 0.41841  0.57800  0.81094  Biso   1.000  C
  C1384    1.0000 0.58159  0.42200  0.81094  Biso   1.000  C
  C1385    1.0000 0.92200  0.18906  0.91841  Biso   1.000  C
  C1386    1.0000 0.07800  0.18906  0.08159  Biso   1.000  C
  C1387    1.0000 0.07800  0.81094  0.91841  Biso   1.000  C
  C1388    1.0000 0.92200  0.81094  0.08159  Biso   1.000  C
  C1389    1.0000 0.68906  0.91841  0.42200  Biso   1.000  C
  C1390    1.0000 0.68906  0.08159  0.57800  Biso   1.000  C
  C1391    1.0000 0.31094  0.91841  0.57800  Biso   1.000  C
  C1392    1.0000 0.31094  0.08159  0.42200  Biso   1.000  C
  C1393    1.0000 0.92200  0.91841  0.68906  Biso   1.000  C
  C1394    1.0000 0.07800  0.08159  0.68906  Biso   1.000  C
  C1395    1.0000 0.07800  0.91841  0.31094  Biso   1.000  C
  C1396    1.0000 0.92200  0.08159  0.31094  Biso   1.000  C
  C1397    1.0000 0.68906  0.42200  0.41841  Biso   1.000  C
  C1398    1.0000 0.68906  0.57800  0.58159  Biso   1.000  C
  C1399    1.0000 0.31094  0.57800  0.41841  Biso   1.000  C
  C1400    1.0000 0.31094  0.42200  0.58159  Biso   1.000  C
  C1401    1.0000 0.41841  0.18906  0.92200  Biso   1.000  C
  C1402    1.0000 0.58159  0.18906  0.07800  Biso   1.000  C
  C1403    1.0000 0.41841  0.81094  0.07800  Biso   1.000  C
  C1404    1.0000 0.58159  0.81094  0.92200  Biso   1.000  C
  C1405    1.0000 0.91841  0.92200  0.18906  Biso   1.000  C
  C1406    1.0000 0.08159  0.07800  0.18906  Biso   1.000  C
  C1407    1.0000 0.91841  0.07800  0.81094  Biso   1.000  C
  C1408    1.0000 0.08159  0.92200  0.81094  Biso   1.000  C
  C1409    1.0000 0.42200  0.68906  0.91841  Biso   1.000  C
  C1410    1.0000 0.57800  0.68906  0.08159  Biso   1.000  C
  C1411    1.0000 0.57800  0.31094  0.91841  Biso   1.000  C
  C1412    1.0000 0.42200  0.31094  0.08159  Biso   1.000  C
  C1413    1.0000 0.18906  0.41841  0.42200  Biso   1.000  C
  C1414    1.0000 0.18906  0.58159  0.57800  Biso   1.000  C
  C1415    1.0000 0.81094  0.41841  0.57800  Biso   1.000  C
  C1416    1.0000 0.81094  0.58159  0.42200  Biso   1.000  C
  C1417    1.0000 0.92200  0.41841  0.18906  Biso   1.000  C
  C1418    1.0000 0.07800  0.58159  0.18906  Biso   1.000  C
  C1419    1.0000 0.07800  0.41841  0.81094  Biso   1.000  C
  C1420    1.0000 0.92200  0.58159  0.81094  Biso   1.000  C
  C1421    1.0000 0.68906  0.92200  0.91841  Biso   1.000  C
  C1422    1.0000 0.68906  0.07800  0.08159  Biso   1.000  C
  C1423    1.0000 0.31094  0.07800  0.91841  Biso   1.000  C
  C1424    1.0000 0.31094  0.92200  0.08159  Biso   1.000  C
  C1425    1.0000 0.41841  0.68906  0.42200  Biso   1.000  C
  C1426    1.0000 0.58159  0.68906  0.57800  Biso   1.000  C
  C1427    1.0000 0.41841  0.31094  0.57800  Biso   1.000  C
  C1428    1.0000 0.58159  0.31094  0.42200  Biso   1.000  C
  C1429    1.0000 0.91841  0.42200  0.68906  Biso   1.000  C
  C1430    1.0000 0.08159  0.57800  0.68906  Biso   1.000  C
  C1431    1.0000 0.91841  0.57800  0.31094  Biso   1.000  C
  C1432    1.0000 0.08159  0.42200  0.31094  Biso   1.000  C
  C1433    1.0000 0.42200  0.18906  0.41841  Biso   1.000  C
  C1434    1.0000 0.57800  0.18906  0.58159  Biso   1.000  C
  C1435    1.0000 0.57800  0.81094  0.41841  Biso   1.000  C
  C1436    1.0000 0.42200  0.81094  0.58159  Biso   1.000  C
  C1437    1.0000 0.18906  0.91841  0.92200  Biso   1.000  C
  C1438    1.0000 0.18906  0.08159  0.07800  Biso   1.000  C
  C1439    1.0000 0.81094  0.91841  0.07800  Biso   1.000  C
  C1440    1.0000 0.81094  0.08159  0.92200  Biso   1.000  C
  H1249    1.0000 0.43030  0.90360  0.19400  Biso   1.000  H
  H1250    1.0000 0.56970  0.09640  0.19400  Biso   1.000  H
  H1251    1.0000 0.56970  0.90360  0.80600  Biso   1.000  H
  H1252    1.0000 0.43030  0.09640  0.80600  Biso   1.000  H
  H1253    1.0000 0.19400  0.43030  0.90360  Biso   1.000  H
  H1254    1.0000 0.19400  0.56970  0.09640  Biso   1.000  H
  H1255    1.0000 0.80600  0.56970  0.90360  Biso   1.000  H
  H1256    1.0000 0.80600  0.43030  0.09640  Biso   1.000  H
  H1257    1.0000 0.90360  0.19400  0.43030  Biso   1.000  H
  H1258    1.0000 0.09640  0.19400  0.56970  Biso   1.000  H
  H1259    1.0000 0.90360  0.80600  0.56970  Biso   1.000  H
  H1260    1.0000 0.09640  0.80600  0.43030  Biso   1.000  H
  H1261    1.0000 0.40360  0.93030  0.69400  Biso   1.000  H
  H1262    1.0000 0.59640  0.06970  0.69400  Biso   1.000  H
  H1263    1.0000 0.40360  0.06970  0.30600  Biso   1.000  H
  H1264    1.0000 0.59640  0.93030  0.30600  Biso   1.000  H
  H1265    1.0000 0.93030  0.69400  0.40360  Biso   1.000  H
  H1266    1.0000 0.06970  0.69400  0.59640  Biso   1.000  H
  H1267    1.0000 0.06970  0.30600  0.40360  Biso   1.000  H
  H1268    1.0000 0.93030  0.30600  0.59640  Biso   1.000  H
  H1269    1.0000 0.69400  0.40360  0.93030  Biso   1.000  H
  H1270    1.0000 0.69400  0.59640  0.06970  Biso   1.000  H
  H1271    1.0000 0.30600  0.40360  0.06970  Biso   1.000  H
  H1272    1.0000 0.30600  0.59640  0.93030  Biso   1.000  H
  H1273    1.0000 0.43030  0.40360  0.69400  Biso   1.000  H
  H1274    1.0000 0.56970  0.59640  0.69400  Biso   1.000  H
  H1275    1.0000 0.56970  0.40360  0.30600  Biso   1.000  H
  H1276    1.0000 0.43030  0.59640  0.30600  Biso   1.000  H
  H1277    1.0000 0.19400  0.93030  0.40360  Biso   1.000  H
  H1278    1.0000 0.19400  0.06970  0.59640  Biso   1.000  H
  H1279    1.0000 0.80600  0.06970  0.40360  Biso   1.000  H
  H1280    1.0000 0.80600  0.93030  0.59640  Biso   1.000  H
  H1281    1.0000 0.90360  0.69400  0.93030  Biso   1.000  H
  H1282    1.0000 0.09640  0.69400  0.06970  Biso   1.000  H
  H1283    1.0000 0.90360  0.30600  0.06970  Biso   1.000  H
  H1284    1.0000 0.09640  0.30600  0.93030  Biso   1.000  H
  H1285    1.0000 0.40360  0.43030  0.19400  Biso   1.000  H
  H1286    1.0000 0.59640  0.56970  0.19400  Biso   1.000  H
  H1287    1.0000 0.40360  0.56970  0.80600  Biso   1.000  H
  H1288    1.0000 0.59640  0.43030  0.80600  Biso   1.000  H
  H1289    1.0000 0.93030  0.19400  0.90360  Biso   1.000  H
  H1290    1.0000 0.06970  0.19400  0.09640  Biso   1.000  H
  H1291    1.0000 0.06970  0.80600  0.90360  Biso   1.000  H
  H1292    1.0000 0.93030  0.80600  0.09640  Biso   1.000  H
  H1293    1.0000 0.69400  0.90360  0.43030  Biso   1.000  H
  H1294    1.0000 0.69400  0.09640  0.56970  Biso   1.000  H
  H1295    1.0000 0.30600  0.90360  0.56970  Biso   1.000  H
  H1296    1.0000 0.30600  0.09640  0.43030  Biso   1.000  H
  H1297    1.0000 0.93030  0.90360  0.69400  Biso   1.000  H
  H1298    1.0000 0.06970  0.09640  0.69400  Biso   1.000  H
  H1299    1.0000 0.06970  0.90360  0.30600  Biso   1.000  H
  H1300    1.0000 0.93030  0.09640  0.30600  Biso   1.000  H
  H1301    1.0000 0.69400  0.43030  0.40360  Biso   1.000  H
  H1302    1.0000 0.69400  0.56970  0.59640  Biso   1.000  H
  H1303    1.0000 0.30600  0.56970  0.40360  Biso   1.000  H
  H1304    1.0000 0.30600  0.43030  0.59640  Biso   1.000  H
  H1305    1.0000 0.40360  0.19400  0.93030  Biso   1.000  H
  H1306    1.0000 0.59640  0.19400  0.06970  Biso   1.000  H
  H1307    1.0000 0.40360  0.80600  0.06970  Biso   1.000  H
  H1308    1.0000 0.59640  0.80600  0.93030  Biso   1.000  H
  H1309    1.0000 0.90360  0.93030  0.19400  Biso   1.000  H
  H1310    1.0000 0.09640  0.06970  0.19400  Biso   1.000  H
  H1311    1.0000 0.90360  0.06970  0.80600  Biso   1.000  H
  H1312    1.0000 0.09640  0.93030  0.80600  Biso   1.000  H
  H1313    1.0000 0.43030  0.69400  0.90360  Biso   1.000  H
  H1314    1.0000 0.56970  0.69400  0.09640  Biso   1.000  H
  H1315    1.0000 0.56970  0.30600  0.90360  Biso   1.000  H
  H1316    1.0000 0.43030  0.30600  0.09640  Biso   1.000  H
  H1317    1.0000 0.19400  0.40360  0.43030  Biso   1.000  H
  H1318    1.0000 0.19400  0.59640  0.56970  Biso   1.000  H
  H1319    1.0000 0.80600  0.40360  0.56970  Biso   1.000  H
  H1320    1.0000 0.80600  0.59640  0.43030  Biso   1.000  H
  H1321    1.0000 0.93030  0.40360  0.19400  Biso   1.000  H
  H1322    1.0000 0.06970  0.59640  0.19400  Biso   1.000  H
  H1323    1.0000 0.06970  0.40360  0.80600  Biso   1.000  H
  H1324    1.0000 0.93030  0.59640  0.80600  Biso   1.000  H
  H1325    1.0000 0.69400  0.93030  0.90360  Biso   1.000  H
  H1326    1.0000 0.69400  0.06970  0.09640  Biso   1.000  H
  H1327    1.0000 0.30600  0.06970  0.90360  Biso   1.000  H
  H1328    1.0000 0.30600  0.93030  0.09640  Biso   1.000  H
  H1329    1.0000 0.40360  0.69400  0.43030  Biso   1.000  H
  H1330    1.0000 0.59640  0.69400  0.56970  Biso   1.000  H
  H1331    1.0000 0.40360  0.30600  0.56970  Biso   1.000  H
  H1332    1.0000 0.59640  0.30600  0.43030  Biso   1.000  H
  H1333    1.0000 0.90360  0.43030  0.69400  Biso   1.000  H
  H1334    1.0000 0.09640  0.56970  0.69400  Biso   1.000  H
  H1335    1.0000 0.90360  0.56970  0.30600  Biso   1.000  H
  H1336    1.0000 0.09640  0.43030  0.30600  Biso   1.000  H
  H1337    1.0000 0.43030  0.19400  0.40360  Biso   1.000  H
  H1338    1.0000 0.56970  0.19400  0.59640  Biso   1.000  H
  H1339    1.0000 0.56970  0.80600  0.40360  Biso   1.000  H
  H1340    1.0000 0.43030  0.80600  0.59640  Biso   1.000  H
  H1341    1.0000 0.19400  0.90360  0.93030  Biso   1.000  H
  H1342    1.0000 0.19400  0.09640  0.06970  Biso   1.000  H
  H1343    1.0000 0.80600  0.90360  0.06970  Biso   1.000  H
  H1344    1.0000 0.80600  0.09640  0.93030  Biso   1.000  H
  H1345    1.0000 0.40960  0.92190  0.20120  Biso   1.000  H
  H1346    1.0000 0.59040  0.07810  0.20120  Biso   1.000  H
  H1347    1.0000 0.59040  0.92190  0.79880  Biso   1.000  H
  H1348    1.0000 0.40960  0.07810  0.79880  Biso   1.000  H
  H1349    1.0000 0.20120  0.40960  0.92190  Biso   1.000  H
  H1350    1.0000 0.20120  0.59040  0.07810  Biso   1.000  H
  H1351    1.0000 0.79880  0.59040  0.92190  Biso   1.000  H
  H1352    1.0000 0.79880  0.40960  0.07810  Biso   1.000  H
  H1353    1.0000 0.92190  0.20120  0.40960  Biso   1.000  H
  H1354    1.0000 0.07810  0.20120  0.59040  Biso   1.000  H
  H1355    1.0000 0.92190  0.79880  0.59040  Biso   1.000  H
  H1356    1.0000 0.07810  0.79880  0.40960  Biso   1.000  H
  H1357    1.0000 0.42190  0.90960  0.70120  Biso   1.000  H
  H1358    1.0000 0.57810  0.09040  0.70120  Biso   1.000  H
  H1359    1.0000 0.42190  0.09040  0.29880  Biso   1.000  H
  H1360    1.0000 0.57810  0.90960  0.29880  Biso   1.000  H
  H1361    1.0000 0.90960  0.70120  0.42190  Biso   1.000  H
  H1362    1.0000 0.09040  0.70120  0.57810  Biso   1.000  H
  H1363    1.0000 0.09040  0.29880  0.42190  Biso   1.000  H
  H1364    1.0000 0.90960  0.29880  0.57810  Biso   1.000  H
  H1365    1.0000 0.70120  0.42190  0.90960  Biso   1.000  H
  H1366    1.0000 0.70120  0.57810  0.09040  Biso   1.000  H
  H1367    1.0000 0.29880  0.42190  0.09040  Biso   1.000  H
  H1368    1.0000 0.29880  0.57810  0.90960  Biso   1.000  H
  H1369    1.0000 0.40960  0.42190  0.70120  Biso   1.000  H
  H1370    1.0000 0.59040  0.57810  0.70120  Biso   1.000  H
  H1371    1.0000 0.59040  0.42190  0.29880  Biso   1.000  H
  H1372    1.0000 0.40960  0.57810  0.29880  Biso   1.000  H
  H1373    1.0000 0.20120  0.90960  0.42190  Biso   1.000  H
  H1374    1.0000 0.20120  0.09040  0.57810  Biso   1.000  H
  H1375    1.0000 0.79880  0.09040  0.42190  Biso   1.000  H
  H1376    1.0000 0.79880  0.90960  0.57810  Biso   1.000  H
  H1377    1.0000 0.92190  0.70120  0.90960  Biso   1.000  H
  H1378    1.0000 0.07810  0.70120  0.09040  Biso   1.000  H
  H1379    1.0000 0.92190  0.29880  0.09040  Biso   1.000  H
  H1380    1.0000 0.07810  0.29880  0.90960  Biso   1.000  H
  H1381    1.0000 0.42190  0.40960  0.20120  Biso   1.000  H
  H1382    1.0000 0.57810  0.59040  0.20120  Biso   1.000  H
  H1383    1.0000 0.42190  0.59040  0.79880  Biso   1.000  H
  H1384    1.0000 0.57810  0.40960  0.79880  Biso   1.000  H
  H1385    1.0000 0.90960  0.20120  0.92190  Biso   1.000  H
  H1386    1.0000 0.09040  0.20120  0.07810  Biso   1.000  H
  H1387    1.0000 0.09040  0.79880  0.92190  Biso   1.000  H
  H1388    1.0000 0.90960  0.79880  0.07810  Biso   1.000  H
  H1389    1.0000 0.70120  0.92190  0.40960  Biso   1.000  H
  H1390    1.0000 0.70120  0.07810  0.59040  Biso   1.000  H
  H1391    1.0000 0.29880  0.92190  0.59040  Biso   1.000  H
  H1392    1.0000 0.29880  0.07810  0.40960  Biso   1.000  H
  H1393    1.0000 0.90960  0.92190  0.70120  Biso   1.000  H
  H1394    1.0000 0.09040  0.07810  0.70120  Biso   1.000  H
  H1395    1.0000 0.09040  0.92190  0.29880  Biso   1.000  H
  H1396    1.0000 0.90960  0.07810  0.29880  Biso   1.000  H
  H1397    1.0000 0.70120  0.40960  0.42190  Biso   1.000  H
  H1398    1.0000 0.70120  0.59040  0.57810  Biso   1.000  H
  H1399    1.0000 0.29880  0.59040  0.42190  Biso   1.000  H
  H1400    1.0000 0.29880  0.40960  0.57810  Biso   1.000  H
  H1401    1.0000 0.42190  0.20120  0.90960  Biso   1.000  H
  H1402    1.0000 0.57810  0.20120  0.09040  Biso   1.000  H
  H1403    1.0000 0.42190  0.79880  0.09040  Biso   1.000  H
  H1404    1.0000 0.57810  0.79880  0.90960  Biso   1.000  H
  H1405    1.0000 0.92190  0.90960  0.20120  Biso   1.000  H
  H1406    1.0000 0.07810  0.09040  0.20120  Biso   1.000  H
  H1407    1.0000 0.92190  0.09040  0.79880  Biso   1.000  H
  H1408    1.0000 0.07810  0.90960  0.79880  Biso   1.000  H
  H1409    1.0000 0.40960  0.70120  0.92190  Biso   1.000  H
  H1410    1.0000 0.59040  0.70120  0.07810  Biso   1.000  H
  H1411    1.0000 0.59040  0.29880  0.92190  Biso   1.000  H
  H1412    1.0000 0.40960  0.29880  0.07810  Biso   1.000  H
  H1413    1.0000 0.20120  0.42190  0.40960  Biso   1.000  H
  H1414    1.0000 0.20120  0.57810  0.59040  Biso   1.000  H
  H1415    1.0000 0.79880  0.42190  0.59040  Biso   1.000  H
  H1416    1.0000 0.79880  0.57810  0.40960  Biso   1.000  H
  H1417    1.0000 0.90960  0.42190  0.20120  Biso   1.000  H
  H1418    1.0000 0.09040  0.57810  0.20120  Biso   1.000  H
  H1419    1.0000 0.09040  0.42190  0.79880  Biso   1.000  H
  H1420    1.0000 0.90960  0.57810  0.79880  Biso   1.000  H
  H1421    1.0000 0.70120  0.90960  0.92190  Biso   1.000  H
  H1422    1.0000 0.70120  0.09040  0.07810  Biso   1.000  H
  H1423    1.0000 0.29880  0.09040  0.92190  Biso   1.000  H
  H1424    1.0000 0.29880  0.90960  0.07810  Biso   1.000  H
  H1425    1.0000 0.42190  0.70120  0.40960  Biso   1.000  H
  H1426    1.0000 0.57810  0.70120  0.59040  Biso   1.000  H
  H1427    1.0000 0.42190  0.29880  0.59040  Biso   1.000  H
  H1428    1.0000 0.57810  0.29880  0.40960  Biso   1.000  H
  H1429    1.0000 0.92190  0.40960  0.70120  Biso   1.000  H
  H1430    1.0000 0.07810  0.59040  0.70120  Biso   1.000  H
  H1431    1.0000 0.92190  0.59040  0.29880  Biso   1.000  H
  H1432    1.0000 0.07810  0.40960  0.29880  Biso   1.000  H
  H1433    1.0000 0.40960  0.20120  0.42190  Biso   1.000  H
  H1434    1.0000 0.59040  0.20120  0.57810  Biso   1.000  H
  H1435    1.0000 0.59040  0.79880  0.42190  Biso   1.000  H
  H1436    1.0000 0.40960  0.79880  0.57810  Biso   1.000  H
  H1437    1.0000 0.20120  0.92190  0.90960  Biso   1.000  H
  H1438    1.0000 0.20120  0.07810  0.09040  Biso   1.000  H
  H1439    1.0000 0.79880  0.92190  0.09040  Biso   1.000  H
  H1440    1.0000 0.79880  0.07810  0.90960  Biso   1.000  H
  C1441    1.0000 0.42190  0.90373  0.14852  Biso   1.000  C
  C1442    1.0000 0.57810  0.09627  0.14852  Biso   1.000  C
  C1443    1.0000 0.57810  0.90373  0.85148  Biso   1.000  C
  C1444    1.0000 0.42190  0.09627  0.85148  Biso   1.000  C
  C1445    1.0000 0.14852  0.42190  0.90373  Biso   1.000  C
  C1446    1.0000 0.14852  0.57810  0.09627  Biso   1.000  C
  C1447    1.0000 0.85148  0.57810  0.90373  Biso   1.000  C
  C1448    1.0000 0.85148  0.42190  0.09627  Biso   1.000  C
  C1449    1.0000 0.90373  0.14852  0.42190  Biso   1.000  C
  C1450    1.0000 0.09627  0.14852  0.57810  Biso   1.000  C
  C1451    1.0000 0.90373  0.85148  0.57810  Biso   1.000  C
  C1452    1.0000 0.09627  0.85148  0.42190  Biso   1.000  C
  C1453    1.0000 0.40373  0.92190  0.64852  Biso   1.000  C
  C1454    1.0000 0.59627  0.07810  0.64852  Biso   1.000  C
  C1455    1.0000 0.40373  0.07810  0.35148  Biso   1.000  C
  C1456    1.0000 0.59627  0.92190  0.35148  Biso   1.000  C
  C1457    1.0000 0.92190  0.64852  0.40373  Biso   1.000  C
  C1458    1.0000 0.07810  0.64852  0.59627  Biso   1.000  C
  C1459    1.0000 0.07810  0.35148  0.40373  Biso   1.000  C
  C1460    1.0000 0.92190  0.35148  0.59627  Biso   1.000  C
  C1461    1.0000 0.64852  0.40373  0.92190  Biso   1.000  C
  C1462    1.0000 0.64852  0.59627  0.07810  Biso   1.000  C
  C1463    1.0000 0.35148  0.40373  0.07810  Biso   1.000  C
  C1464    1.0000 0.35148  0.59627  0.92190  Biso   1.000  C
  C1465    1.0000 0.42190  0.40373  0.64852  Biso   1.000  C
  C1466    1.0000 0.57810  0.59627  0.64852  Biso   1.000  C
  C1467    1.0000 0.57810  0.40373  0.35148  Biso   1.000  C
  C1468    1.0000 0.42190  0.59627  0.35148  Biso   1.000  C
  C1469    1.0000 0.14852  0.92190  0.40373  Biso   1.000  C
  C1470    1.0000 0.14852  0.07810  0.59627  Biso   1.000  C
  C1471    1.0000 0.85148  0.07810  0.40373  Biso   1.000  C
  C1472    1.0000 0.85148  0.92190  0.59627  Biso   1.000  C
  C1473    1.0000 0.90373  0.64852  0.92190  Biso   1.000  C
  C1474    1.0000 0.09627  0.64852  0.07810  Biso   1.000  C
  C1475    1.0000 0.90373  0.35148  0.07810  Biso   1.000  C
  C1476    1.0000 0.09627  0.35148  0.92190  Biso   1.000  C
  C1477    1.0000 0.40373  0.42190  0.14852  Biso   1.000  C
  C1478    1.0000 0.59627  0.57810  0.14852  Biso   1.000  C
  C1479    1.0000 0.40373  0.57810  0.85148  Biso   1.000  C
  C1480    1.0000 0.59627  0.42190  0.85148  Biso   1.000  C
  C1481    1.0000 0.92190  0.14852  0.90373  Biso   1.000  C
  C1482    1.0000 0.07810  0.14852  0.09627  Biso   1.000  C
  C1483    1.0000 0.07810  0.85148  0.90373  Biso   1.000  C
  C1484    1.0000 0.92190  0.85148  0.09627  Biso   1.000  C
  C1485    1.0000 0.64852  0.90373  0.42190  Biso   1.000  C
  C1486    1.0000 0.64852  0.09627  0.57810  Biso   1.000  C
  C1487    1.0000 0.35148  0.90373  0.57810  Biso   1.000  C
  C1488    1.0000 0.35148  0.09627  0.42190  Biso   1.000  C
  C1489    1.0000 0.92190  0.90373  0.64852  Biso   1.000  C
  C1490    1.0000 0.07810  0.09627  0.64852  Biso   1.000  C
  C1491    1.0000 0.07810  0.90373  0.35148  Biso   1.000  C
  C1492    1.0000 0.92190  0.09627  0.35148  Biso   1.000  C
  C1493    1.0000 0.64852  0.42190  0.40373  Biso   1.000  C
  C1494    1.0000 0.64852  0.57810  0.59627  Biso   1.000  C
  C1495    1.0000 0.35148  0.57810  0.40373  Biso   1.000  C
  C1496    1.0000 0.35148  0.42190  0.59627  Biso   1.000  C
  C1497    1.0000 0.40373  0.14852  0.92190  Biso   1.000  C
  C1498    1.0000 0.59627  0.14852  0.07810  Biso   1.000  C
  C1499    1.0000 0.40373  0.85148  0.07810  Biso   1.000  C
  C1500    1.0000 0.59627  0.85148  0.92190  Biso   1.000  C
  C1501    1.0000 0.90373  0.92190  0.14852  Biso   1.000  C
  C1502    1.0000 0.09627  0.07810  0.14852  Biso   1.000  C
  C1503    1.0000 0.90373  0.07810  0.85148  Biso   1.000  C
  C1504    1.0000 0.09627  0.92190  0.85148  Biso   1.000  C
  C1505    1.0000 0.42190  0.64852  0.90373  Biso   1.000  C
  C1506    1.0000 0.57810  0.64852  0.09627  Biso   1.000  C
  C1507    1.0000 0.57810  0.35148  0.90373  Biso   1.000  C
  C1508    1.0000 0.42190  0.35148  0.09627  Biso   1.000  C
  C1509    1.0000 0.14852  0.40373  0.42190  Biso   1.000  C
  C1510    1.0000 0.14852  0.59627  0.57810  Biso   1.000  C
  C1511    1.0000 0.85148  0.40373  0.57810  Biso   1.000  C
  C1512    1.0000 0.85148  0.59627  0.42190  Biso   1.000  C
  C1513    1.0000 0.92190  0.40373  0.14852  Biso   1.000  C
  C1514    1.0000 0.07810  0.59627  0.14852  Biso   1.000  C
  C1515    1.0000 0.07810  0.40373  0.85148  Biso   1.000  C
  C1516    1.0000 0.92190  0.59627  0.85148  Biso   1.000  C
  C1517    1.0000 0.64852  0.92190  0.90373  Biso   1.000  C
  C1518    1.0000 0.64852  0.07810  0.09627  Biso   1.000  C
  C1519    1.0000 0.35148  0.07810  0.90373  Biso   1.000  C
  C1520    1.0000 0.35148  0.92190  0.09627  Biso   1.000  C
  C1521    1.0000 0.40373  0.64852  0.42190  Biso   1.000  C
  C1522    1.0000 0.59627  0.64852  0.57810  Biso   1.000  C
  C1523    1.0000 0.40373  0.35148  0.57810  Biso   1.000  C
  C1524    1.0000 0.59627  0.35148  0.42190  Biso   1.000  C
  C1525    1.0000 0.90373  0.42190  0.64852  Biso   1.000  C
  C1526    1.0000 0.09627  0.57810  0.64852  Biso   1.000  C
  C1527    1.0000 0.90373  0.57810  0.35148  Biso   1.000  C
  C1528    1.0000 0.09627  0.42190  0.35148  Biso   1.000  C
  C1529    1.0000 0.42190  0.14852  0.40373  Biso   1.000  C
  C1530    1.0000 0.57810  0.14852  0.59627  Biso   1.000  C
  C1531    1.0000 0.57810  0.85148  0.40373  Biso   1.000  C
  C1532    1.0000 0.42190  0.85148  0.59627  Biso   1.000  C
  C1533    1.0000 0.14852  0.90373  0.92190  Biso   1.000  C
  C1534    1.0000 0.14852  0.09627  0.07810  Biso   1.000  C
  C1535    1.0000 0.85148  0.90373  0.07810  Biso   1.000  C
  C1536    1.0000 0.85148  0.09627  0.92190  Biso   1.000  C
  C1537    1.0000 0.40722  0.89938  0.12621  Biso   1.000  C
  C1538    1.0000 0.59278  0.10062  0.12621  Biso   1.000  C
  C1539    1.0000 0.59278  0.89938  0.87379  Biso   1.000  C
  C1540    1.0000 0.40722  0.10062  0.87379  Biso   1.000  C
  C1541    1.0000 0.12621  0.40722  0.89938  Biso   1.000  C
  C1542    1.0000 0.12621  0.59278  0.10062  Biso   1.000  C
  C1543    1.0000 0.87379  0.59278  0.89938  Biso   1.000  C
  C1544    1.0000 0.87379  0.40722  0.10062  Biso   1.000  C
  C1545    1.0000 0.89938  0.12621  0.40722  Biso   1.000  C
  C1546    1.0000 0.10062  0.12621  0.59278  Biso   1.000  C
  C1547    1.0000 0.89938  0.87379  0.59278  Biso   1.000  C
  C1548    1.0000 0.10062  0.87379  0.40722  Biso   1.000  C
  C1549    1.0000 0.39938  0.90722  0.62621  Biso   1.000  C
  C1550    1.0000 0.60062  0.09278  0.62621  Biso   1.000  C
  C1551    1.0000 0.39938  0.09278  0.37379  Biso   1.000  C
  C1552    1.0000 0.60062  0.90722  0.37379  Biso   1.000  C
  C1553    1.0000 0.90722  0.62621  0.39938  Biso   1.000  C
  C1554    1.0000 0.09278  0.62621  0.60062  Biso   1.000  C
  C1555    1.0000 0.09278  0.37379  0.39938  Biso   1.000  C
  C1556    1.0000 0.90722  0.37379  0.60062  Biso   1.000  C
  C1557    1.0000 0.62621  0.39938  0.90722  Biso   1.000  C
  C1558    1.0000 0.62621  0.60062  0.09278  Biso   1.000  C
  C1559    1.0000 0.37379  0.39938  0.09278  Biso   1.000  C
  C1560    1.0000 0.37379  0.60062  0.90722  Biso   1.000  C
  C1561    1.0000 0.40722  0.39938  0.62621  Biso   1.000  C
  C1562    1.0000 0.59278  0.60062  0.62621  Biso   1.000  C
  C1563    1.0000 0.59278  0.39938  0.37379  Biso   1.000  C
  C1564    1.0000 0.40722  0.60062  0.37379  Biso   1.000  C
  C1565    1.0000 0.12621  0.90722  0.39938  Biso   1.000  C
  C1566    1.0000 0.12621  0.09278  0.60062  Biso   1.000  C
  C1567    1.0000 0.87379  0.09278  0.39938  Biso   1.000  C
  C1568    1.0000 0.87379  0.90722  0.60062  Biso   1.000  C
  C1569    1.0000 0.89938  0.62621  0.90722  Biso   1.000  C
  C1570    1.0000 0.10062  0.62621  0.09278  Biso   1.000  C
  C1571    1.0000 0.89938  0.37379  0.09278  Biso   1.000  C
  C1572    1.0000 0.10062  0.37379  0.90722  Biso   1.000  C
  C1573    1.0000 0.39938  0.40722  0.12621  Biso   1.000  C
  C1574    1.0000 0.60062  0.59278  0.12621  Biso   1.000  C
  C1575    1.0000 0.39938  0.59278  0.87379  Biso   1.000  C
  C1576    1.0000 0.60062  0.40722  0.87379  Biso   1.000  C
  C1577    1.0000 0.90722  0.12621  0.89938  Biso   1.000  C
  C1578    1.0000 0.09278  0.12621  0.10062  Biso   1.000  C
  C1579    1.0000 0.09278  0.87379  0.89938  Biso   1.000  C
  C1580    1.0000 0.90722  0.87379  0.10062  Biso   1.000  C
  C1581    1.0000 0.62621  0.89938  0.40722  Biso   1.000  C
  C1582    1.0000 0.62621  0.10062  0.59278  Biso   1.000  C
  C1583    1.0000 0.37379  0.89938  0.59278  Biso   1.000  C
  C1584    1.0000 0.37379  0.10062  0.40722  Biso   1.000  C
  C1585    1.0000 0.90722  0.89938  0.62621  Biso   1.000  C
  C1586    1.0000 0.09278  0.10062  0.62621  Biso   1.000  C
  C1587    1.0000 0.09278  0.89938  0.37379  Biso   1.000  C
  C1588    1.0000 0.90722  0.10062  0.37379  Biso   1.000  C
  C1589    1.0000 0.62621  0.40722  0.39938  Biso   1.000  C
  C1590    1.0000 0.62621  0.59278  0.60062  Biso   1.000  C
  C1591    1.0000 0.37379  0.59278  0.39938  Biso   1.000  C
  C1592    1.0000 0.37379  0.40722  0.60062  Biso   1.000  C
  C1593    1.0000 0.39938  0.12621  0.90722  Biso   1.000  C
  C1594    1.0000 0.60062  0.12621  0.09278  Biso   1.000  C
  C1595    1.0000 0.39938  0.87379  0.09278  Biso   1.000  C
  C1596    1.0000 0.60062  0.87379  0.90722  Biso   1.000  C
  C1597    1.0000 0.89938  0.90722  0.12621  Biso   1.000  C
  C1598    1.0000 0.10062  0.09278  0.12621  Biso   1.000  C
  C1599    1.0000 0.89938  0.09278  0.87379  Biso   1.000  C
  C1600    1.0000 0.10062  0.90722  0.87379  Biso   1.000  C
  C1601    1.0000 0.40722  0.62621  0.89938  Biso   1.000  C
  C1602    1.0000 0.59278  0.62621  0.10062  Biso   1.000  C
  C1603    1.0000 0.59278  0.37379  0.89938  Biso   1.000  C
  C1604    1.0000 0.40722  0.37379  0.10062  Biso   1.000  C
  C1605    1.0000 0.12621  0.39938  0.40722  Biso   1.000  C
  C1606    1.0000 0.12621  0.60062  0.59278  Biso   1.000  C
  C1607    1.0000 0.87379  0.39938  0.59278  Biso   1.000  C
  C1608    1.0000 0.87379  0.60062  0.40722  Biso   1.000  C
  C1609    1.0000 0.90722  0.39938  0.12621  Biso   1.000  C
  C1610    1.0000 0.09278  0.60062  0.12621  Biso   1.000  C
  C1611    1.0000 0.09278  0.39938  0.87379  Biso   1.000  C
  C1612    1.0000 0.90722  0.60062  0.87379  Biso   1.000  C
  C1613    1.0000 0.62621  0.90722  0.89938  Biso   1.000  C
  C1614    1.0000 0.62621  0.09278  0.10062  Biso   1.000  C
  C1615    1.0000 0.37379  0.09278  0.89938  Biso   1.000  C
  C1616    1.0000 0.37379  0.90722  0.10062  Biso   1.000  C
  C1617    1.0000 0.39938  0.62621  0.40722  Biso   1.000  C
  C1618    1.0000 0.60062  0.62621  0.59278  Biso   1.000  C
  C1619    1.0000 0.39938  0.37379  0.59278  Biso   1.000  C
  C1620    1.0000 0.60062  0.37379  0.40722  Biso   1.000  C
  C1621    1.0000 0.89938  0.40722  0.62621  Biso   1.000  C
  C1622    1.0000 0.10062  0.59278  0.62621  Biso   1.000  C
  C1623    1.0000 0.89938  0.59278  0.37379  Biso   1.000  C
  C1624    1.0000 0.10062  0.40722  0.37379  Biso   1.000  C
  C1625    1.0000 0.40722  0.12621  0.39938  Biso   1.000  C
  C1626    1.0000 0.59278  0.12621  0.60062  Biso   1.000  C
  C1627    1.0000 0.59278  0.87379  0.39938  Biso   1.000  C
  C1628    1.0000 0.40722  0.87379  0.60062  Biso   1.000  C
  C1629    1.0000 0.12621  0.89938  0.90722  Biso   1.000  C
  C1630    1.0000 0.12621  0.10062  0.09278  Biso   1.000  C
  C1631    1.0000 0.87379  0.89938  0.09278  Biso   1.000  C
  C1632    1.0000 0.87379  0.10062  0.90722  Biso   1.000  C
  C1633    1.0000 0.38761  0.91329  0.12006  Biso   1.000  C
  C1634    1.0000 0.61239  0.08671  0.12006  Biso   1.000  C
  C1635    1.0000 0.61239  0.91329  0.87994  Biso   1.000  C
  C1636    1.0000 0.38761  0.08671  0.87994  Biso   1.000  C
  C1637    1.0000 0.12006  0.38761  0.91329  Biso   1.000  C
  C1638    1.0000 0.12006  0.61239  0.08671  Biso   1.000  C
  C1639    1.0000 0.87994  0.61239  0.91329  Biso   1.000  C
  C1640    1.0000 0.87994  0.38761  0.08671  Biso   1.000  C
  C1641    1.0000 0.91329  0.12006  0.38761  Biso   1.000  C
  C1642    1.0000 0.08671  0.12006  0.61239  Biso   1.000  C
  C1643    1.0000 0.91329  0.87994  0.61239  Biso   1.000  C
  C1644    1.0000 0.08671  0.87994  0.38761  Biso   1.000  C
  C1645    1.0000 0.41329  0.88761  0.62006  Biso   1.000  C
  C1646    1.0000 0.58671  0.11239  0.62006  Biso   1.000  C
  C1647    1.0000 0.41329  0.11239  0.37994  Biso   1.000  C
  C1648    1.0000 0.58671  0.88761  0.37994  Biso   1.000  C
  C1649    1.0000 0.88761  0.62006  0.41329  Biso   1.000  C
  C1650    1.0000 0.11239  0.62006  0.58671  Biso   1.000  C
  C1651    1.0000 0.11239  0.37994  0.41329  Biso   1.000  C
  C1652    1.0000 0.88761  0.37994  0.58671  Biso   1.000  C
  C1653    1.0000 0.62006  0.41329  0.88761  Biso   1.000  C
  C1654    1.0000 0.62006  0.58671  0.11239  Biso   1.000  C
  C1655    1.0000 0.37994  0.41329  0.11239  Biso   1.000  C
  C1656    1.0000 0.37994  0.58671  0.88761  Biso   1.000  C
  C1657    1.0000 0.38761  0.41329  0.62006  Biso   1.000  C
  C1658    1.0000 0.61239  0.58671  0.62006  Biso   1.000  C
  C1659    1.0000 0.61239  0.41329  0.37994  Biso   1.000  C
  C1660    1.0000 0.38761  0.58671  0.37994  Biso   1.000  C
  C1661    1.0000 0.12006  0.88761  0.41329  Biso   1.000  C
  C1662    1.0000 0.12006  0.11239  0.58671  Biso   1.000  C
  C1663    1.0000 0.87994  0.11239  0.41329  Biso   1.000  C
  C1664    1.0000 0.87994  0.88761  0.58671  Biso   1.000  C
  C1665    1.0000 0.91329  0.62006  0.88761  Biso   1.000  C
  C1666    1.0000 0.08671  0.62006  0.11239  Biso   1.000  C
  C1667    1.0000 0.91329  0.37994  0.11239  Biso   1.000  C
  C1668    1.0000 0.08671  0.37994  0.88761  Biso   1.000  C
  C1669    1.0000 0.41329  0.38761  0.12006  Biso   1.000  C
  C1670    1.0000 0.58671  0.61239  0.12006  Biso   1.000  C
  C1671    1.0000 0.41329  0.61239  0.87994  Biso   1.000  C
  C1672    1.0000 0.58671  0.38761  0.87994  Biso   1.000  C
  C1673    1.0000 0.88761  0.12006  0.91329  Biso   1.000  C
  C1674    1.0000 0.11239  0.12006  0.08671  Biso   1.000  C
  C1675    1.0000 0.11239  0.87994  0.91329  Biso   1.000  C
  C1676    1.0000 0.88761  0.87994  0.08671  Biso   1.000  C
  C1677    1.0000 0.62006  0.91329  0.38761  Biso   1.000  C
  C1678    1.0000 0.62006  0.08671  0.61239  Biso   1.000  C
  C1679    1.0000 0.37994  0.91329  0.61239  Biso   1.000  C
  C1680    1.0000 0.37994  0.08671  0.38761  Biso   1.000  C
  C1681    1.0000 0.88761  0.91329  0.62006  Biso   1.000  C
  C1682    1.0000 0.11239  0.08671  0.62006  Biso   1.000  C
  C1683    1.0000 0.11239  0.91329  0.37994  Biso   1.000  C
  C1684    1.0000 0.88761  0.08671  0.37994  Biso   1.000  C
  C1685    1.0000 0.62006  0.38761  0.41329  Biso   1.000  C
  C1686    1.0000 0.62006  0.61239  0.58671  Biso   1.000  C
  C1687    1.0000 0.37994  0.61239  0.41329  Biso   1.000  C
  C1688    1.0000 0.37994  0.38761  0.58671  Biso   1.000  C
  C1689    1.0000 0.41329  0.12006  0.88761  Biso   1.000  C
  C1690    1.0000 0.58671  0.12006  0.11239  Biso   1.000  C
  C1691    1.0000 0.41329  0.87994  0.11239  Biso   1.000  C
  C1692    1.0000 0.58671  0.87994  0.88761  Biso   1.000  C
  C1693    1.0000 0.91329  0.88761  0.12006  Biso   1.000  C
  C1694    1.0000 0.08671  0.11239  0.12006  Biso   1.000  C
  C1695    1.0000 0.91329  0.11239  0.87994  Biso   1.000  C
  C1696    1.0000 0.08671  0.88761  0.87994  Biso   1.000  C
  C1697    1.0000 0.38761  0.62006  0.91329  Biso   1.000  C
  C1698    1.0000 0.61239  0.62006  0.08671  Biso   1.000  C
  C1699    1.0000 0.61239  0.37994  0.91329  Biso   1.000  C
  C1700    1.0000 0.38761  0.37994  0.08671  Biso   1.000  C
  C1701    1.0000 0.12006  0.41329  0.38761  Biso   1.000  C
  C1702    1.0000 0.12006  0.58671  0.61239  Biso   1.000  C
  C1703    1.0000 0.87994  0.41329  0.61239  Biso   1.000  C
  C1704    1.0000 0.87994  0.58671  0.38761  Biso   1.000  C
  C1705    1.0000 0.88761  0.41329  0.12006  Biso   1.000  C
  C1706    1.0000 0.11239  0.58671  0.12006  Biso   1.000  C
  C1707    1.0000 0.11239  0.41329  0.87994  Biso   1.000  C
  C1708    1.0000 0.88761  0.58671  0.87994  Biso   1.000  C
  C1709    1.0000 0.62006  0.88761  0.91329  Biso   1.000  C
  C1710    1.0000 0.62006  0.11239  0.08671  Biso   1.000  C
  C1711    1.0000 0.37994  0.11239  0.91329  Biso   1.000  C
  C1712    1.0000 0.37994  0.88761  0.08671  Biso   1.000  C
  C1713    1.0000 0.41329  0.62006  0.38761  Biso   1.000  C
  C1714    1.0000 0.58671  0.62006  0.61239  Biso   1.000  C
  C1715    1.0000 0.41329  0.37994  0.61239  Biso   1.000  C
  C1716    1.0000 0.58671  0.37994  0.38761  Biso   1.000  C
  C1717    1.0000 0.91329  0.38761  0.62006  Biso   1.000  C
  C1718    1.0000 0.08671  0.61239  0.62006  Biso   1.000  C
  C1719    1.0000 0.91329  0.61239  0.37994  Biso   1.000  C
  C1720    1.0000 0.08671  0.38761  0.37994  Biso   1.000  C
  C1721    1.0000 0.38761  0.12006  0.41329  Biso   1.000  C
  C1722    1.0000 0.61239  0.12006  0.58671  Biso   1.000  C
  C1723    1.0000 0.61239  0.87994  0.41329  Biso   1.000  C
  C1724    1.0000 0.38761  0.87994  0.58671  Biso   1.000  C
  C1725    1.0000 0.12006  0.91329  0.88761  Biso   1.000  C
  C1726    1.0000 0.12006  0.08671  0.11239  Biso   1.000  C
  C1727    1.0000 0.87994  0.91329  0.11239  Biso   1.000  C
  C1728    1.0000 0.87994  0.08671  0.88761  Biso   1.000  C
  H1441    1.0000 0.38370  0.92700  0.12930  Biso   1.000  H
  H1442    1.0000 0.61630  0.07300  0.12930  Biso   1.000  H
  H1443    1.0000 0.61630  0.92700  0.87070  Biso   1.000  H
  H1444    1.0000 0.38370  0.07300  0.87070  Biso   1.000  H
  H1445    1.0000 0.12930  0.38370  0.92700  Biso   1.000  H
  H1446    1.0000 0.12930  0.61630  0.07300  Biso   1.000  H
  H1447    1.0000 0.87070  0.61630  0.92700  Biso   1.000  H
  H1448    1.0000 0.87070  0.38370  0.07300  Biso   1.000  H
  H1449    1.0000 0.92700  0.12930  0.38370  Biso   1.000  H
  H1450    1.0000 0.07300  0.12930  0.61630  Biso   1.000  H
  H1451    1.0000 0.92700  0.87070  0.61630  Biso   1.000  H
  H1452    1.0000 0.07300  0.87070  0.38370  Biso   1.000  H
  H1453    1.0000 0.42700  0.88370  0.62930  Biso   1.000  H
  H1454    1.0000 0.57300  0.11630  0.62930  Biso   1.000  H
  H1455    1.0000 0.42700  0.11630  0.37070  Biso   1.000  H
  H1456    1.0000 0.57300  0.88370  0.37070  Biso   1.000  H
  H1457    1.0000 0.88370  0.62930  0.42700  Biso   1.000  H
  H1458    1.0000 0.11630  0.62930  0.57300  Biso   1.000  H
  H1459    1.0000 0.11630  0.37070  0.42700  Biso   1.000  H
  H1460    1.0000 0.88370  0.37070  0.57300  Biso   1.000  H
  H1461    1.0000 0.62930  0.42700  0.88370  Biso   1.000  H
  H1462    1.0000 0.62930  0.57300  0.11630  Biso   1.000  H
  H1463    1.0000 0.37070  0.42700  0.11630  Biso   1.000  H
  H1464    1.0000 0.37070  0.57300  0.88370  Biso   1.000  H
  H1465    1.0000 0.38370  0.42700  0.62930  Biso   1.000  H
  H1466    1.0000 0.61630  0.57300  0.62930  Biso   1.000  H
  H1467    1.0000 0.61630  0.42700  0.37070  Biso   1.000  H
  H1468    1.0000 0.38370  0.57300  0.37070  Biso   1.000  H
  H1469    1.0000 0.12930  0.88370  0.42700  Biso   1.000  H
  H1470    1.0000 0.12930  0.11630  0.57300  Biso   1.000  H
  H1471    1.0000 0.87070  0.11630  0.42700  Biso   1.000  H
  H1472    1.0000 0.87070  0.88370  0.57300  Biso   1.000  H
  H1473    1.0000 0.92700  0.62930  0.88370  Biso   1.000  H
  H1474    1.0000 0.07300  0.62930  0.11630  Biso   1.000  H
  H1475    1.0000 0.92700  0.37070  0.11630  Biso   1.000  H
  H1476    1.0000 0.07300  0.37070  0.88370  Biso   1.000  H
  H1477    1.0000 0.42700  0.38370  0.12930  Biso   1.000  H
  H1478    1.0000 0.57300  0.61630  0.12930  Biso   1.000  H
  H1479    1.0000 0.42700  0.61630  0.87070  Biso   1.000  H
  H1480    1.0000 0.57300  0.38370  0.87070  Biso   1.000  H
  H1481    1.0000 0.88370  0.12930  0.92700  Biso   1.000  H
  H1482    1.0000 0.11630  0.12930  0.07300  Biso   1.000  H
  H1483    1.0000 0.11630  0.87070  0.92700  Biso   1.000  H
  H1484    1.0000 0.88370  0.87070  0.07300  Biso   1.000  H
  H1485    1.0000 0.62930  0.92700  0.38370  Biso   1.000  H
  H1486    1.0000 0.62930  0.07300  0.61630  Biso   1.000  H
  H1487    1.0000 0.37070  0.92700  0.61630  Biso   1.000  H
  H1488    1.0000 0.37070  0.07300  0.38370  Biso   1.000  H
  H1489    1.0000 0.88370  0.92700  0.62930  Biso   1.000  H
  H1490    1.0000 0.11630  0.07300  0.62930  Biso   1.000  H
  H1491    1.0000 0.11630  0.92700  0.37070  Biso   1.000  H
  H1492    1.0000 0.88370  0.07300  0.37070  Biso   1.000  H
  H1493    1.0000 0.62930  0.38370  0.42700  Biso   1.000  H
  H1494    1.0000 0.62930  0.61630  0.57300  Biso   1.000  H
  H1495    1.0000 0.37070  0.61630  0.42700  Biso   1.000  H
  H1496    1.0000 0.37070  0.38370  0.57300  Biso   1.000  H
  H1497    1.0000 0.42700  0.12930  0.88370  Biso   1.000  H
  H1498    1.0000 0.57300  0.12930  0.11630  Biso   1.000  H
  H1499    1.0000 0.42700  0.87070  0.11630  Biso   1.000  H
  H1500    1.0000 0.57300  0.87070  0.88370  Biso   1.000  H
  H1501    1.0000 0.92700  0.88370  0.12930  Biso   1.000  H
  H1502    1.0000 0.07300  0.11630  0.12930  Biso   1.000  H
  H1503    1.0000 0.92700  0.11630  0.87070  Biso   1.000  H
  H1504    1.0000 0.07300  0.88370  0.87070  Biso   1.000  H
  H1505    1.0000 0.38370  0.62930  0.92700  Biso   1.000  H
  H1506    1.0000 0.61630  0.62930  0.07300  Biso   1.000  H
  H1507    1.0000 0.61630  0.37070  0.92700  Biso   1.000  H
  H1508    1.0000 0.38370  0.37070  0.07300  Biso   1.000  H
  H1509    1.0000 0.12930  0.42700  0.38370  Biso   1.000  H
  H1510    1.0000 0.12930  0.57300  0.61630  Biso   1.000  H
  H1511    1.0000 0.87070  0.42700  0.61630  Biso   1.000  H
  H1512    1.0000 0.87070  0.57300  0.38370  Biso   1.000  H
  H1513    1.0000 0.88370  0.42700  0.12930  Biso   1.000  H
  H1514    1.0000 0.11630  0.57300  0.12930  Biso   1.000  H
  H1515    1.0000 0.11630  0.42700  0.87070  Biso   1.000  H
  H1516    1.0000 0.88370  0.57300  0.87070  Biso   1.000  H
  H1517    1.0000 0.62930  0.88370  0.92700  Biso   1.000  H
  H1518    1.0000 0.62930  0.11630  0.07300  Biso   1.000  H
  H1519    1.0000 0.37070  0.11630  0.92700  Biso   1.000  H
  H1520    1.0000 0.37070  0.88370  0.07300  Biso   1.000  H
  H1521    1.0000 0.42700  0.62930  0.38370  Biso   1.000  H
  H1522    1.0000 0.57300  0.62930  0.61630  Biso   1.000  H
  H1523    1.0000 0.42700  0.37070  0.61630  Biso   1.000  H
  H1524    1.0000 0.57300  0.37070  0.38370  Biso   1.000  H
  H1525    1.0000 0.92700  0.38370  0.62930  Biso   1.000  H
  H1526    1.0000 0.07300  0.61630  0.62930  Biso   1.000  H
  H1527    1.0000 0.92700  0.61630  0.37070  Biso   1.000  H
  H1528    1.0000 0.07300  0.38370  0.37070  Biso   1.000  H
  H1529    1.0000 0.38370  0.12930  0.42700  Biso   1.000  H
  H1530    1.0000 0.61630  0.12930  0.57300  Biso   1.000  H
  H1531    1.0000 0.61630  0.87070  0.42700  Biso   1.000  H
  H1532    1.0000 0.38370  0.87070  0.57300  Biso   1.000  H
  H1533    1.0000 0.12930  0.92700  0.88370  Biso   1.000  H
  H1534    1.0000 0.12930  0.07300  0.11630  Biso   1.000  H
  H1535    1.0000 0.87070  0.92700  0.11630  Biso   1.000  H
  H1536    1.0000 0.87070  0.07300  0.88370  Biso   1.000  H
  Cu49     1.0000 0.25000  0.93657  0.25000  Biso   1.000  Cu
  Cu50     1.0000 0.75000  0.06343  0.25000  Biso   1.000  Cu
  Cu51     1.0000 0.75000  0.93657  0.75000  Biso   1.000  Cu
  Cu52     1.0000 0.25000  0.06343  0.75000  Biso   1.000  Cu
  Cu53     1.0000 0.25000  0.25000  0.93657  Biso   1.000  Cu
  Cu54     1.0000 0.25000  0.75000  0.06343  Biso   1.000  Cu
  Cu55     1.0000 0.75000  0.75000  0.93657  Biso   1.000  Cu
  Cu56     1.0000 0.75000  0.25000  0.06343  Biso   1.000  Cu
  Cu57     1.0000 0.93657  0.25000  0.25000  Biso   1.000  Cu
  Cu58     1.0000 0.06343  0.25000  0.75000  Biso   1.000  Cu
  Cu59     1.0000 0.93657  0.75000  0.75000  Biso   1.000  Cu
  Cu60     1.0000 0.06343  0.75000  0.25000  Biso   1.000  Cu
  Cu61     1.0000 0.43657  0.75000  0.75000  Biso   1.000  Cu
  Cu62     1.0000 0.56343  0.25000  0.75000  Biso   1.000  Cu
  Cu63     1.0000 0.43657  0.25000  0.25000  Biso   1.000  Cu
  Cu64     1.0000 0.56343  0.75000  0.25000  Biso   1.000  Cu
  Cu65     1.0000 0.75000  0.75000  0.43657  Biso   1.000  Cu
  Cu66     1.0000 0.25000  0.75000  0.56343  Biso   1.000  Cu
  Cu67     1.0000 0.25000  0.25000  0.43657  Biso   1.000  Cu
  Cu68     1.0000 0.75000  0.25000  0.56343  Biso   1.000  Cu
  Cu69     1.0000 0.75000  0.43657  0.75000  Biso   1.000  Cu
  Cu70     1.0000 0.75000  0.56343  0.25000  Biso   1.000  Cu
  Cu71     1.0000 0.25000  0.43657  0.25000  Biso   1.000  Cu
  Cu72     1.0000 0.25000  0.56343  0.75000  Biso   1.000  Cu
  Cu73     1.0000 0.25000  0.43657  0.75000  Biso   1.000  Cu
  Cu74     1.0000 0.75000  0.56343  0.75000  Biso   1.000  Cu
  Cu75     1.0000 0.75000  0.43657  0.25000  Biso   1.000  Cu
  Cu76     1.0000 0.25000  0.56343  0.25000  Biso   1.000  Cu
  Cu77     1.0000 0.25000  0.75000  0.43657  Biso   1.000  Cu
  Cu78     1.0000 0.25000  0.25000  0.56343  Biso   1.000  Cu
  Cu79     1.0000 0.75000  0.25000  0.43657  Biso   1.000  Cu
  Cu80     1.0000 0.75000  0.75000  0.56343  Biso   1.000  Cu
  Cu81     1.0000 0.75000  0.25000  0.93657  Biso   1.000  Cu
  Cu82     1.0000 0.25000  0.25000  0.06343  Biso   1.000  Cu
  Cu83     1.0000 0.25000  0.75000  0.93657  Biso   1.000  Cu
  Cu84     1.0000 0.75000  0.75000  0.06343  Biso   1.000  Cu
  Cu85     1.0000 0.75000  0.93657  0.25000  Biso   1.000  Cu
  Cu86     1.0000 0.75000  0.06343  0.75000  Biso   1.000  Cu
  Cu87     1.0000 0.25000  0.93657  0.75000  Biso   1.000  Cu
  Cu88     1.0000 0.25000  0.06343  0.25000  Biso   1.000  Cu
  Cu89     1.0000 0.43657  0.25000  0.75000  Biso   1.000  Cu
  Cu90     1.0000 0.56343  0.25000  0.25000  Biso   1.000  Cu
  Cu91     1.0000 0.43657  0.75000  0.25000  Biso   1.000  Cu
  Cu92     1.0000 0.56343  0.75000  0.75000  Biso   1.000  Cu
  Cu93     1.0000 0.93657  0.75000  0.25000  Biso   1.000  Cu
  Cu94     1.0000 0.06343  0.25000  0.25000  Biso   1.000  Cu
  Cu95     1.0000 0.93657  0.25000  0.75000  Biso   1.000  Cu
  Cu96     1.0000 0.06343  0.75000  0.75000  Biso   1.000  Cu
  O385     1.0000 0.29772  0.88327  0.13182  Biso   1.000  O
  O386     1.0000 0.70228  0.11673  0.13182  Biso   1.000  O
  O387     1.0000 0.70228  0.88327  0.86818  Biso   1.000  O
  O388     1.0000 0.29772  0.11673  0.86818  Biso   1.000  O
  O389     1.0000 0.13182  0.29772  0.88327  Biso   1.000  O
  O390     1.0000 0.13182  0.70228  0.11673  Biso   1.000  O
  O391     1.0000 0.86818  0.70228  0.88327  Biso   1.000  O
  O392     1.0000 0.86818  0.29772  0.11673  Biso   1.000  O
  O393     1.0000 0.88327  0.13182  0.29772  Biso   1.000  O
  O394     1.0000 0.11673  0.13182  0.70228  Biso   1.000  O
  O395     1.0000 0.88327  0.86818  0.70228  Biso   1.000  O
  O396     1.0000 0.11673  0.86818  0.29772  Biso   1.000  O
  O397     1.0000 0.38327  0.79772  0.63182  Biso   1.000  O
  O398     1.0000 0.61673  0.20228  0.63182  Biso   1.000  O
  O399     1.0000 0.38327  0.20228  0.36818  Biso   1.000  O
  O400     1.0000 0.61673  0.79772  0.36818  Biso   1.000  O
  O401     1.0000 0.79772  0.63182  0.38327  Biso   1.000  O
  O402     1.0000 0.20228  0.63182  0.61673  Biso   1.000  O
  O403     1.0000 0.20228  0.36818  0.38327  Biso   1.000  O
  O404     1.0000 0.79772  0.36818  0.61673  Biso   1.000  O
  O405     1.0000 0.63182  0.38327  0.79772  Biso   1.000  O
  O406     1.0000 0.63182  0.61673  0.20228  Biso   1.000  O
  O407     1.0000 0.36818  0.38327  0.20228  Biso   1.000  O
  O408     1.0000 0.36818  0.61673  0.79772  Biso   1.000  O
  O409     1.0000 0.29772  0.38327  0.63182  Biso   1.000  O
  O410     1.0000 0.70228  0.61673  0.63182  Biso   1.000  O
  O411     1.0000 0.70228  0.38327  0.36818  Biso   1.000  O
  O412     1.0000 0.29772  0.61673  0.36818  Biso   1.000  O
  O413     1.0000 0.13182  0.79772  0.38327  Biso   1.000  O
  O414     1.0000 0.13182  0.20228  0.61673  Biso   1.000  O
  O415     1.0000 0.86818  0.20228  0.38327  Biso   1.000  O
  O416     1.0000 0.86818  0.79772  0.61673  Biso   1.000  O
  O417     1.0000 0.88327  0.63182  0.79772  Biso   1.000  O
  O418     1.0000 0.11673  0.63182  0.20228  Biso   1.000  O
  O419     1.0000 0.88327  0.36818  0.20228  Biso   1.000  O
  O420     1.0000 0.11673  0.36818  0.79772  Biso   1.000  O
  O421     1.0000 0.38327  0.29772  0.13182  Biso   1.000  O
  O422     1.0000 0.61673  0.70228  0.13182  Biso   1.000  O
  O423     1.0000 0.38327  0.70228  0.86818  Biso   1.000  O
  O424     1.0000 0.61673  0.29772  0.86818  Biso   1.000  O
  O425     1.0000 0.79772  0.13182  0.88327  Biso   1.000  O
  O426     1.0000 0.20228  0.13182  0.11673  Biso   1.000  O
  O427     1.0000 0.20228  0.86818  0.88327  Biso   1.000  O
  O428     1.0000 0.79772  0.86818  0.11673  Biso   1.000  O
  O429     1.0000 0.63182  0.88327  0.29772  Biso   1.000  O
  O430     1.0000 0.63182  0.11673  0.70228  Biso   1.000  O
  O431     1.0000 0.36818  0.88327  0.70228  Biso   1.000  O
  O432     1.0000 0.36818  0.11673  0.29772  Biso   1.000  O
  O433     1.0000 0.79772  0.88327  0.63182  Biso   1.000  O
  O434     1.0000 0.20228  0.11673  0.63182  Biso   1.000  O
  O435     1.0000 0.20228  0.88327  0.36818  Biso   1.000  O
  O436     1.0000 0.79772  0.11673  0.36818  Biso   1.000  O
  O437     1.0000 0.63182  0.29772  0.38327  Biso   1.000  O
  O438     1.0000 0.63182  0.70228  0.61673  Biso   1.000  O
  O439     1.0000 0.36818  0.70228  0.38327  Biso   1.000  O
  O440     1.0000 0.36818  0.29772  0.61673  Biso   1.000  O
  O441     1.0000 0.38327  0.13182  0.79772  Biso   1.000  O
  O442     1.0000 0.61673  0.13182  0.20228  Biso   1.000  O
  O443     1.0000 0.38327  0.86818  0.20228  Biso   1.000  O
  O444     1.0000 0.61673  0.86818  0.79772  Biso   1.000  O
  O445     1.0000 0.88327  0.79772  0.13182  Biso   1.000  O
  O446     1.0000 0.11673  0.20228  0.13182  Biso   1.000  O
  O447     1.0000 0.88327  0.20228  0.86818  Biso   1.000  O
  O448     1.0000 0.11673  0.79772  0.86818  Biso   1.000  O
  O449     1.0000 0.29772  0.63182  0.88327  Biso   1.000  O
  O450     1.0000 0.70228  0.63182  0.11673  Biso   1.000  O
  O451     1.0000 0.70228  0.36818  0.88327  Biso   1.000  O
  O452     1.0000 0.29772  0.36818  0.11673  Biso   1.000  O
  O453     1.0000 0.13182  0.38327  0.29772  Biso   1.000  O
  O454     1.0000 0.13182  0.61673  0.70228  Biso   1.000  O
  O455     1.0000 0.86818  0.38327  0.70228  Biso   1.000  O
  O456     1.0000 0.86818  0.61673  0.29772  Biso   1.000  O
  O457     1.0000 0.79772  0.38327  0.13182  Biso   1.000  O
  O458     1.0000 0.20228  0.61673  0.13182  Biso   1.000  O
  O459     1.0000 0.20228  0.38327  0.86818  Biso   1.000  O
  O460     1.0000 0.79772  0.61673  0.86818  Biso   1.000  O
  O461     1.0000 0.63182  0.79772  0.88327  Biso   1.000  O
  O462     1.0000 0.63182  0.20228  0.11673  Biso   1.000  O
  O463     1.0000 0.36818  0.20228  0.88327  Biso   1.000  O
  O464     1.0000 0.36818  0.79772  0.11673  Biso   1.000  O
  O465     1.0000 0.38327  0.63182  0.29772  Biso   1.000  O
  O466     1.0000 0.61673  0.63182  0.70228  Biso   1.000  O
  O467     1.0000 0.38327  0.36818  0.70228  Biso   1.000  O
  O468     1.0000 0.61673  0.36818  0.29772  Biso   1.000  O
  O469     1.0000 0.88327  0.29772  0.63182  Biso   1.000  O
  O470     1.0000 0.11673  0.70228  0.63182  Biso   1.000  O
  O471     1.0000 0.88327  0.70228  0.36818  Biso   1.000  O
  O472     1.0000 0.11673  0.29772  0.36818  Biso   1.000  O
  O473     1.0000 0.29772  0.13182  0.38327  Biso   1.000  O
  O474     1.0000 0.70228  0.13182  0.61673  Biso   1.000  O
  O475     1.0000 0.70228  0.86818  0.38327  Biso   1.000  O
  O476     1.0000 0.29772  0.86818  0.61673  Biso   1.000  O
  O477     1.0000 0.13182  0.88327  0.79772  Biso   1.000  O
  O478     1.0000 0.13182  0.11673  0.20228  Biso   1.000  O
  O479     1.0000 0.86818  0.88327  0.20228  Biso   1.000  O
  O480     1.0000 0.86818  0.11673  0.79772  Biso   1.000  O
  O481     1.0000 0.13601  0.88847  0.20082  Biso   1.000  O
  O482     1.0000 0.86399  0.11153  0.20082  Biso   1.000  O
  O483     1.0000 0.86399  0.88847  0.79918  Biso   1.000  O
  O484     1.0000 0.13601  0.11153  0.79918  Biso   1.000  O
  O485     1.0000 0.20082  0.13601  0.88847  Biso   1.000  O
  O486     1.0000 0.20082  0.86399  0.11153  Biso   1.000  O
  O487     1.0000 0.79918  0.86399  0.88847  Biso   1.000  O
  O488     1.0000 0.79918  0.13601  0.11153  Biso   1.000  O
  O489     1.0000 0.88847  0.20082  0.13601  Biso   1.000  O
  O490     1.0000 0.11153  0.20082  0.86399  Biso   1.000  O
  O491     1.0000 0.88847  0.79918  0.86399  Biso   1.000  O
  O492     1.0000 0.11153  0.79918  0.13601  Biso   1.000  O
  O493     1.0000 0.38847  0.63601  0.70082  Biso   1.000  O
  O494     1.0000 0.61153  0.36399  0.70082  Biso   1.000  O
  O495     1.0000 0.38847  0.36399  0.29918  Biso   1.000  O
  O496     1.0000 0.61153  0.63601  0.29918  Biso   1.000  O
  O497     1.0000 0.63601  0.70082  0.38847  Biso   1.000  O
  O498     1.0000 0.36399  0.70082  0.61153  Biso   1.000  O
  O499     1.0000 0.36399  0.29918  0.38847  Biso   1.000  O
  O500     1.0000 0.63601  0.29918  0.61153  Biso   1.000  O
  O501     1.0000 0.70082  0.38847  0.63601  Biso   1.000  O
  O502     1.0000 0.70082  0.61153  0.36399  Biso   1.000  O
  O503     1.0000 0.29918  0.38847  0.36399  Biso   1.000  O
  O504     1.0000 0.29918  0.61153  0.63601  Biso   1.000  O
  O505     1.0000 0.13601  0.38847  0.70082  Biso   1.000  O
  O506     1.0000 0.86399  0.61153  0.70082  Biso   1.000  O
  O507     1.0000 0.86399  0.38847  0.29918  Biso   1.000  O
  O508     1.0000 0.13601  0.61153  0.29918  Biso   1.000  O
  O509     1.0000 0.20082  0.63601  0.38847  Biso   1.000  O
  O510     1.0000 0.20082  0.36399  0.61153  Biso   1.000  O
  O511     1.0000 0.79918  0.36399  0.38847  Biso   1.000  O
  O512     1.0000 0.79918  0.63601  0.61153  Biso   1.000  O
  O513     1.0000 0.88847  0.70082  0.63601  Biso   1.000  O
  O514     1.0000 0.11153  0.70082  0.36399  Biso   1.000  O
  O515     1.0000 0.88847  0.29918  0.36399  Biso   1.000  O
  O516     1.0000 0.11153  0.29918  0.63601  Biso   1.000  O
  O517     1.0000 0.38847  0.13601  0.20082  Biso   1.000  O
  O518     1.0000 0.61153  0.86399  0.20082  Biso   1.000  O
  O519     1.0000 0.38847  0.86399  0.79918  Biso   1.000  O
  O520     1.0000 0.61153  0.13601  0.79918  Biso   1.000  O
  O521     1.0000 0.63601  0.20082  0.88847  Biso   1.000  O
  O522     1.0000 0.36399  0.20082  0.11153  Biso   1.000  O
  O523     1.0000 0.36399  0.79918  0.88847  Biso   1.000  O
  O524     1.0000 0.63601  0.79918  0.11153  Biso   1.000  O
  O525     1.0000 0.70082  0.88847  0.13601  Biso   1.000  O
  O526     1.0000 0.70082  0.11153  0.86399  Biso   1.000  O
  O527     1.0000 0.29918  0.88847  0.86399  Biso   1.000  O
  O528     1.0000 0.29918  0.11153  0.13601  Biso   1.000  O
  O529     1.0000 0.63601  0.88847  0.70082  Biso   1.000  O
  O530     1.0000 0.36399  0.11153  0.70082  Biso   1.000  O
  O531     1.0000 0.36399  0.88847  0.29918  Biso   1.000  O
  O532     1.0000 0.63601  0.11153  0.29918  Biso   1.000  O
  O533     1.0000 0.70082  0.13601  0.38847  Biso   1.000  O
  O534     1.0000 0.70082  0.86399  0.61153  Biso   1.000  O
  O535     1.0000 0.29918  0.86399  0.38847  Biso   1.000  O
  O536     1.0000 0.29918  0.13601  0.61153  Biso   1.000  O
  O537     1.0000 0.38847  0.20082  0.63601  Biso   1.000  O
  O538     1.0000 0.61153  0.20082  0.36399  Biso   1.000  O
  O539     1.0000 0.38847  0.79918  0.36399  Biso   1.000  O
  O540     1.0000 0.61153  0.79918  0.63601  Biso   1.000  O
  O541     1.0000 0.88847  0.63601  0.20082  Biso   1.000  O
  O542     1.0000 0.11153  0.36399  0.20082  Biso   1.000  O
  O543     1.0000 0.88847  0.36399  0.79918  Biso   1.000  O
  O544     1.0000 0.11153  0.63601  0.79918  Biso   1.000  O
  O545     1.0000 0.13601  0.70082  0.88847  Biso   1.000  O
  O546     1.0000 0.86399  0.70082  0.11153  Biso   1.000  O
  O547     1.0000 0.86399  0.29918  0.88847  Biso   1.000  O
  O548     1.0000 0.13601  0.29918  0.11153  Biso   1.000  O
  O549     1.0000 0.20082  0.38847  0.13601  Biso   1.000  O
  O550     1.0000 0.20082  0.61153  0.86399  Biso   1.000  O
  O551     1.0000 0.79918  0.38847  0.86399  Biso   1.000  O
  O552     1.0000 0.79918  0.61153  0.13601  Biso   1.000  O
  O553     1.0000 0.63601  0.38847  0.20082  Biso   1.000  O
  O554     1.0000 0.36399  0.61153  0.20082  Biso   1.000  O
  O555     1.0000 0.36399  0.38847  0.79918  Biso   1.000  O
  O556     1.0000 0.63601  0.61153  0.79918  Biso   1.000  O
  O557     1.0000 0.70082  0.63601  0.88847  Biso   1.000  O
  O558     1.0000 0.70082  0.36399  0.11153  Biso   1.000  O
  O559     1.0000 0.29918  0.36399  0.88847  Biso   1.000  O
  O560     1.0000 0.29918  0.63601  0.11153  Biso   1.000  O
  O561     1.0000 0.38847  0.70082  0.13601  Biso   1.000  O
  O562     1.0000 0.61153  0.70082  0.86399  Biso   1.000  O
  O563     1.0000 0.38847  0.29918  0.86399  Biso   1.000  O
  O564     1.0000 0.61153  0.29918  0.13601  Biso   1.000  O
  O565     1.0000 0.88847  0.13601  0.70082  Biso   1.000  O
  O566     1.0000 0.11153  0.86399  0.70082  Biso   1.000  O
  O567     1.0000 0.88847  0.86399  0.29918  Biso   1.000  O
  O568     1.0000 0.11153  0.13601  0.29918  Biso   1.000  O
  O569     1.0000 0.13601  0.20082  0.38847  Biso   1.000  O
  O570     1.0000 0.86399  0.20082  0.61153  Biso   1.000  O
  O571     1.0000 0.86399  0.79918  0.38847  Biso   1.000  O
  O572     1.0000 0.13601  0.79918  0.61153  Biso   1.000  O
  O573     1.0000 0.20082  0.88847  0.63601  Biso   1.000  O
  O574     1.0000 0.20082  0.11153  0.36399  Biso   1.000  O
  O575     1.0000 0.79918  0.88847  0.36399  Biso   1.000  O
  O576     1.0000 0.79918  0.11153  0.63601  Biso   1.000  O
  N409     1.0000 0.26837  0.93619  0.21884  Biso   1.000  N
  N410     1.0000 0.73163  0.06381  0.21884  Biso   1.000  N
  N411     1.0000 0.73163  0.93619  0.78116  Biso   1.000  N
  N412     1.0000 0.26837  0.06381  0.78116  Biso   1.000  N
  N413     1.0000 0.21884  0.26837  0.93619  Biso   1.000  N
  N414     1.0000 0.21884  0.73163  0.06381  Biso   1.000  N
  N415     1.0000 0.78116  0.73163  0.93619  Biso   1.000  N
  N416     1.0000 0.78116  0.26837  0.06381  Biso   1.000  N
  N417     1.0000 0.93619  0.21884  0.26837  Biso   1.000  N
  N418     1.0000 0.06381  0.21884  0.73163  Biso   1.000  N
  N419     1.0000 0.93619  0.78116  0.73163  Biso   1.000  N
  N420     1.0000 0.06381  0.78116  0.26837  Biso   1.000  N
  N421     1.0000 0.43619  0.76837  0.71884  Biso   1.000  N
  N422     1.0000 0.56381  0.23163  0.71884  Biso   1.000  N
  N423     1.0000 0.43619  0.23163  0.28116  Biso   1.000  N
  N424     1.0000 0.56381  0.76837  0.28116  Biso   1.000  N
  N425     1.0000 0.76837  0.71884  0.43619  Biso   1.000  N
  N426     1.0000 0.23163  0.71884  0.56381  Biso   1.000  N
  N427     1.0000 0.23163  0.28116  0.43619  Biso   1.000  N
  N428     1.0000 0.76837  0.28116  0.56381  Biso   1.000  N
  N429     1.0000 0.71884  0.43619  0.76837  Biso   1.000  N
  N430     1.0000 0.71884  0.56381  0.23163  Biso   1.000  N
  N431     1.0000 0.28116  0.43619  0.23163  Biso   1.000  N
  N432     1.0000 0.28116  0.56381  0.76837  Biso   1.000  N
  N433     1.0000 0.26837  0.43619  0.71884  Biso   1.000  N
  N434     1.0000 0.73163  0.56381  0.71884  Biso   1.000  N
  N435     1.0000 0.73163  0.43619  0.28116  Biso   1.000  N
  N436     1.0000 0.26837  0.56381  0.28116  Biso   1.000  N
  N437     1.0000 0.21884  0.76837  0.43619  Biso   1.000  N
  N438     1.0000 0.21884  0.23163  0.56381  Biso   1.000  N
  N439     1.0000 0.78116  0.23163  0.43619  Biso   1.000  N
  N440     1.0000 0.78116  0.76837  0.56381  Biso   1.000  N
  N441     1.0000 0.93619  0.71884  0.76837  Biso   1.000  N
  N442     1.0000 0.06381  0.71884  0.23163  Biso   1.000  N
  N443     1.0000 0.93619  0.28116  0.23163  Biso   1.000  N
  N444     1.0000 0.06381  0.28116  0.76837  Biso   1.000  N
  N445     1.0000 0.43619  0.26837  0.21884  Biso   1.000  N
  N446     1.0000 0.56381  0.73163  0.21884  Biso   1.000  N
  N447     1.0000 0.43619  0.73163  0.78116  Biso   1.000  N
  N448     1.0000 0.56381  0.26837  0.78116  Biso   1.000  N
  N449     1.0000 0.76837  0.21884  0.93619  Biso   1.000  N
  N450     1.0000 0.23163  0.21884  0.06381  Biso   1.000  N
  N451     1.0000 0.23163  0.78116  0.93619  Biso   1.000  N
  N452     1.0000 0.76837  0.78116  0.06381  Biso   1.000  N
  N453     1.0000 0.71884  0.93619  0.26837  Biso   1.000  N
  N454     1.0000 0.71884  0.06381  0.73163  Biso   1.000  N
  N455     1.0000 0.28116  0.93619  0.73163  Biso   1.000  N
  N456     1.0000 0.28116  0.06381  0.26837  Biso   1.000  N
  N457     1.0000 0.76837  0.93619  0.71884  Biso   1.000  N
  N458     1.0000 0.23163  0.06381  0.71884  Biso   1.000  N
  N459     1.0000 0.23163  0.93619  0.28116  Biso   1.000  N
  N460     1.0000 0.76837  0.06381  0.28116  Biso   1.000  N
  N461     1.0000 0.71884  0.26837  0.43619  Biso   1.000  N
  N462     1.0000 0.71884  0.73163  0.56381  Biso   1.000  N
  N463     1.0000 0.28116  0.73163  0.43619  Biso   1.000  N
  N464     1.0000 0.28116  0.26837  0.56381  Biso   1.000  N
  N465     1.0000 0.43619  0.21884  0.76837  Biso   1.000  N
  N466     1.0000 0.56381  0.21884  0.23163  Biso   1.000  N
  N467     1.0000 0.43619  0.78116  0.23163  Biso   1.000  N
  N468     1.0000 0.56381  0.78116  0.76837  Biso   1.000  N
  N469     1.0000 0.93619  0.76837  0.21884  Biso   1.000  N
  N470     1.0000 0.06381  0.23163  0.21884  Biso   1.000  N
  N471     1.0000 0.93619  0.23163  0.78116  Biso   1.000  N
  N472     1.0000 0.06381  0.76837  0.78116  Biso   1.000  N
  N473     1.0000 0.26837  0.71884  0.93619  Biso   1.000  N
  N474     1.0000 0.73163  0.71884  0.06381  Biso   1.000  N
  N475     1.0000 0.73163  0.28116  0.93619  Biso   1.000  N
  N476     1.0000 0.26837  0.28116  0.06381  Biso   1.000  N
  N477     1.0000 0.21884  0.43619  0.26837  Biso   1.000  N
  N478     1.0000 0.21884  0.56381  0.73163  Biso   1.000  N
  N479     1.0000 0.78116  0.43619  0.73163  Biso   1.000  N
  N480     1.0000 0.78116  0.56381  0.26837  Biso   1.000  N
  N481     1.0000 0.76837  0.43619  0.21884  Biso   1.000  N
  N482     1.0000 0.23163  0.56381  0.21884  Biso   1.000  N
  N483     1.0000 0.23163  0.43619  0.78116  Biso   1.000  N
  N484     1.0000 0.76837  0.56381  0.78116  Biso   1.000  N
  N485     1.0000 0.71884  0.76837  0.93619  Biso   1.000  N
  N486     1.0000 0.71884  0.23163  0.06381  Biso   1.000  N
  N487     1.0000 0.28116  0.23163  0.93619  Biso   1.000  N
  N488     1.0000 0.28116  0.76837  0.06381  Biso   1.000  N
  N489     1.0000 0.43619  0.71884  0.26837  Biso   1.000  N
  N490     1.0000 0.56381  0.71884  0.73163  Biso   1.000  N
  N491     1.0000 0.43619  0.28116  0.73163  Biso   1.000  N
  N492     1.0000 0.56381  0.28116  0.26837  Biso   1.000  N
  N493     1.0000 0.93619  0.26837  0.71884  Biso   1.000  N
  N494     1.0000 0.06381  0.73163  0.71884  Biso   1.000  N
  N495     1.0000 0.93619  0.73163  0.28116  Biso   1.000  N
  N496     1.0000 0.06381  0.26837  0.28116  Biso   1.000  N
  N497     1.0000 0.26837  0.21884  0.43619  Biso   1.000  N
  N498     1.0000 0.73163  0.21884  0.56381  Biso   1.000  N
  N499     1.0000 0.73163  0.78116  0.43619  Biso   1.000  N
  N500     1.0000 0.26837  0.78116  0.56381  Biso   1.000  N
  N501     1.0000 0.21884  0.93619  0.76837  Biso   1.000  N
  N502     1.0000 0.21884  0.06381  0.23163  Biso   1.000  N
  N503     1.0000 0.78116  0.93619  0.23163  Biso   1.000  N
  N504     1.0000 0.78116  0.06381  0.76837  Biso   1.000  N
  N505     1.0000 0.32056  0.91149  0.14911  Biso   1.000  N
  N506     1.0000 0.67944  0.08851  0.14911  Biso   1.000  N
  N507     1.0000 0.67944  0.91149  0.85089  Biso   1.000  N
  N508     1.0000 0.32056  0.08851  0.85089  Biso   1.000  N
  N509     1.0000 0.14911  0.32056  0.91149  Biso   1.000  N
  N510     1.0000 0.14911  0.67944  0.08851  Biso   1.000  N
  N511     1.0000 0.85089  0.67944  0.91149  Biso   1.000  N
  N512     1.0000 0.85089  0.32056  0.08851  Biso   1.000  N
  N513     1.0000 0.91149  0.14911  0.32056  Biso   1.000  N
  N514     1.0000 0.08851  0.14911  0.67944  Biso   1.000  N
  N515     1.0000 0.91149  0.85089  0.67944  Biso   1.000  N
  N516     1.0000 0.08851  0.85089  0.32056  Biso   1.000  N
  N517     1.0000 0.41149  0.82056  0.64911  Biso   1.000  N
  N518     1.0000 0.58851  0.17944  0.64911  Biso   1.000  N
  N519     1.0000 0.41149  0.17944  0.35089  Biso   1.000  N
  N520     1.0000 0.58851  0.82056  0.35089  Biso   1.000  N
  N521     1.0000 0.82056  0.64911  0.41149  Biso   1.000  N
  N522     1.0000 0.17944  0.64911  0.58851  Biso   1.000  N
  N523     1.0000 0.17944  0.35089  0.41149  Biso   1.000  N
  N524     1.0000 0.82056  0.35089  0.58851  Biso   1.000  N
  N525     1.0000 0.64911  0.41149  0.82056  Biso   1.000  N
  N526     1.0000 0.64911  0.58851  0.17944  Biso   1.000  N
  N527     1.0000 0.35089  0.41149  0.17944  Biso   1.000  N
  N528     1.0000 0.35089  0.58851  0.82056  Biso   1.000  N
  N529     1.0000 0.32056  0.41149  0.64911  Biso   1.000  N
  N530     1.0000 0.67944  0.58851  0.64911  Biso   1.000  N
  N531     1.0000 0.67944  0.41149  0.35089  Biso   1.000  N
  N532     1.0000 0.32056  0.58851  0.35089  Biso   1.000  N
  N533     1.0000 0.14911  0.82056  0.41149  Biso   1.000  N
  N534     1.0000 0.14911  0.17944  0.58851  Biso   1.000  N
  N535     1.0000 0.85089  0.17944  0.41149  Biso   1.000  N
  N536     1.0000 0.85089  0.82056  0.58851  Biso   1.000  N
  N537     1.0000 0.91149  0.64911  0.82056  Biso   1.000  N
  N538     1.0000 0.08851  0.64911  0.17944  Biso   1.000  N
  N539     1.0000 0.91149  0.35089  0.17944  Biso   1.000  N
  N540     1.0000 0.08851  0.35089  0.82056  Biso   1.000  N
  N541     1.0000 0.41149  0.32056  0.14911  Biso   1.000  N
  N542     1.0000 0.58851  0.67944  0.14911  Biso   1.000  N
  N543     1.0000 0.41149  0.67944  0.85089  Biso   1.000  N
  N544     1.0000 0.58851  0.32056  0.85089  Biso   1.000  N
  N545     1.0000 0.82056  0.14911  0.91149  Biso   1.000  N
  N546     1.0000 0.17944  0.14911  0.08851  Biso   1.000  N
  N547     1.0000 0.17944  0.85089  0.91149  Biso   1.000  N
  N548     1.0000 0.82056  0.85089  0.08851  Biso   1.000  N
  N549     1.0000 0.64911  0.91149  0.32056  Biso   1.000  N
  N550     1.0000 0.64911  0.08851  0.67944  Biso   1.000  N
  N551     1.0000 0.35089  0.91149  0.67944  Biso   1.000  N
  N552     1.0000 0.35089  0.08851  0.32056  Biso   1.000  N
  N553     1.0000 0.82056  0.91149  0.64911  Biso   1.000  N
  N554     1.0000 0.17944  0.08851  0.64911  Biso   1.000  N
  N555     1.0000 0.17944  0.91149  0.35089  Biso   1.000  N
  N556     1.0000 0.82056  0.08851  0.35089  Biso   1.000  N
  N557     1.0000 0.64911  0.32056  0.41149  Biso   1.000  N
  N558     1.0000 0.64911  0.67944  0.58851  Biso   1.000  N
  N559     1.0000 0.35089  0.67944  0.41149  Biso   1.000  N
  N560     1.0000 0.35089  0.32056  0.58851  Biso   1.000  N
  N561     1.0000 0.41149  0.14911  0.82056  Biso   1.000  N
  N562     1.0000 0.58851  0.14911  0.17944  Biso   1.000  N
  N563     1.0000 0.41149  0.85089  0.17944  Biso   1.000  N
  N564     1.0000 0.58851  0.85089  0.82056  Biso   1.000  N
  N565     1.0000 0.91149  0.82056  0.14911  Biso   1.000  N
  N566     1.0000 0.08851  0.17944  0.14911  Biso   1.000  N
  N567     1.0000 0.91149  0.17944  0.85089  Biso   1.000  N
  N568     1.0000 0.08851  0.82056  0.85089  Biso   1.000  N
  N569     1.0000 0.32056  0.64911  0.91149  Biso   1.000  N
  N570     1.0000 0.67944  0.64911  0.08851  Biso   1.000  N
  N571     1.0000 0.67944  0.35089  0.91149  Biso   1.000  N
  N572     1.0000 0.32056  0.35089  0.08851  Biso   1.000  N
  N573     1.0000 0.14911  0.41149  0.32056  Biso   1.000  N
  N574     1.0000 0.14911  0.58851  0.67944  Biso   1.000  N
  N575     1.0000 0.85089  0.41149  0.67944  Biso   1.000  N
  N576     1.0000 0.85089  0.58851  0.32056  Biso   1.000  N
  N577     1.0000 0.82056  0.41149  0.14911  Biso   1.000  N
  N578     1.0000 0.17944  0.58851  0.14911  Biso   1.000  N
  N579     1.0000 0.17944  0.41149  0.85089  Biso   1.000  N
  N580     1.0000 0.82056  0.58851  0.85089  Biso   1.000  N
  N581     1.0000 0.64911  0.82056  0.91149  Biso   1.000  N
  N582     1.0000 0.64911  0.17944  0.08851  Biso   1.000  N
  N583     1.0000 0.35089  0.17944  0.91149  Biso   1.000  N
  N584     1.0000 0.35089  0.82056  0.08851  Biso   1.000  N
  N585     1.0000 0.41149  0.64911  0.32056  Biso   1.000  N
  N586     1.0000 0.58851  0.64911  0.67944  Biso   1.000  N
  N587     1.0000 0.41149  0.35089  0.67944  Biso   1.000  N
  N588     1.0000 0.58851  0.35089  0.32056  Biso   1.000  N
  N589     1.0000 0.91149  0.32056  0.64911  Biso   1.000  N
  N590     1.0000 0.08851  0.67944  0.64911  Biso   1.000  N
  N591     1.0000 0.91149  0.67944  0.35089  Biso   1.000  N
  N592     1.0000 0.08851  0.32056  0.35089  Biso   1.000  N
  N593     1.0000 0.32056  0.14911  0.41149  Biso   1.000  N
  N594     1.0000 0.67944  0.14911  0.58851  Biso   1.000  N
  N595     1.0000 0.67944  0.85089  0.41149  Biso   1.000  N
  N596     1.0000 0.32056  0.85089  0.58851  Biso   1.000  N
  N597     1.0000 0.14911  0.91149  0.82056  Biso   1.000  N
  N598     1.0000 0.14911  0.08851  0.17944  Biso   1.000  N
  N599     1.0000 0.85089  0.91149  0.17944  Biso   1.000  N
  N600     1.0000 0.85089  0.08851  0.82056  Biso   1.000  N
  H1537    1.0000 0.33490  0.91500  0.15440  Biso   1.000  H
  H1538    1.0000 0.66510  0.08500  0.15440  Biso   1.000  H
  H1539    1.0000 0.66510  0.91500  0.84560  Biso   1.000  H
  H1540    1.0000 0.33490  0.08500  0.84560  Biso   1.000  H
  H1541    1.0000 0.15440  0.33490  0.91500  Biso   1.000  H
  H1542    1.0000 0.15440  0.66510  0.08500  Biso   1.000  H
  H1543    1.0000 0.84560  0.66510  0.91500  Biso   1.000  H
  H1544    1.0000 0.84560  0.33490  0.08500  Biso   1.000  H
  H1545    1.0000 0.91500  0.15440  0.33490  Biso   1.000  H
  H1546    1.0000 0.08500  0.15440  0.66510  Biso   1.000  H
  H1547    1.0000 0.91500  0.84560  0.66510  Biso   1.000  H
  H1548    1.0000 0.08500  0.84560  0.33490  Biso   1.000  H
  H1549    1.0000 0.41500  0.83490  0.65440  Biso   1.000  H
  H1550    1.0000 0.58500  0.16510  0.65440  Biso   1.000  H
  H1551    1.0000 0.41500  0.16510  0.34560  Biso   1.000  H
  H1552    1.0000 0.58500  0.83490  0.34560  Biso   1.000  H
  H1553    1.0000 0.83490  0.65440  0.41500  Biso   1.000  H
  H1554    1.0000 0.16510  0.65440  0.58500  Biso   1.000  H
  H1555    1.0000 0.16510  0.34560  0.41500  Biso   1.000  H
  H1556    1.0000 0.83490  0.34560  0.58500  Biso   1.000  H
  H1557    1.0000 0.65440  0.41500  0.83490  Biso   1.000  H
  H1558    1.0000 0.65440  0.58500  0.16510  Biso   1.000  H
  H1559    1.0000 0.34560  0.41500  0.16510  Biso   1.000  H
  H1560    1.0000 0.34560  0.58500  0.83490  Biso   1.000  H
  H1561    1.0000 0.33490  0.41500  0.65440  Biso   1.000  H
  H1562    1.0000 0.66510  0.58500  0.65440  Biso   1.000  H
  H1563    1.0000 0.66510  0.41500  0.34560  Biso   1.000  H
  H1564    1.0000 0.33490  0.58500  0.34560  Biso   1.000  H
  H1565    1.0000 0.15440  0.83490  0.41500  Biso   1.000  H
  H1566    1.0000 0.15440  0.16510  0.58500  Biso   1.000  H
  H1567    1.0000 0.84560  0.16510  0.41500  Biso   1.000  H
  H1568    1.0000 0.84560  0.83490  0.58500  Biso   1.000  H
  H1569    1.0000 0.91500  0.65440  0.83490  Biso   1.000  H
  H1570    1.0000 0.08500  0.65440  0.16510  Biso   1.000  H
  H1571    1.0000 0.91500  0.34560  0.16510  Biso   1.000  H
  H1572    1.0000 0.08500  0.34560  0.83490  Biso   1.000  H
  H1573    1.0000 0.41500  0.33490  0.15440  Biso   1.000  H
  H1574    1.0000 0.58500  0.66510  0.15440  Biso   1.000  H
  H1575    1.0000 0.41500  0.66510  0.84560  Biso   1.000  H
  H1576    1.0000 0.58500  0.33490  0.84560  Biso   1.000  H
  H1577    1.0000 0.83490  0.15440  0.91500  Biso   1.000  H
  H1578    1.0000 0.16510  0.15440  0.08500  Biso   1.000  H
  H1579    1.0000 0.16510  0.84560  0.91500  Biso   1.000  H
  H1580    1.0000 0.83490  0.84560  0.08500  Biso   1.000  H
  H1581    1.0000 0.65440  0.91500  0.33490  Biso   1.000  H
  H1582    1.0000 0.65440  0.08500  0.66510  Biso   1.000  H
  H1583    1.0000 0.34560  0.91500  0.66510  Biso   1.000  H
  H1584    1.0000 0.34560  0.08500  0.33490  Biso   1.000  H
  H1585    1.0000 0.83490  0.91500  0.65440  Biso   1.000  H
  H1586    1.0000 0.16510  0.08500  0.65440  Biso   1.000  H
  H1587    1.0000 0.16510  0.91500  0.34560  Biso   1.000  H
  H1588    1.0000 0.83490  0.08500  0.34560  Biso   1.000  H
  H1589    1.0000 0.65440  0.33490  0.41500  Biso   1.000  H
  H1590    1.0000 0.65440  0.66510  0.58500  Biso   1.000  H
  H1591    1.0000 0.34560  0.66510  0.41500  Biso   1.000  H
  H1592    1.0000 0.34560  0.33490  0.58500  Biso   1.000  H
  H1593    1.0000 0.41500  0.15440  0.83490  Biso   1.000  H
  H1594    1.0000 0.58500  0.15440  0.16510  Biso   1.000  H
  H1595    1.0000 0.41500  0.84560  0.16510  Biso   1.000  H
  H1596    1.0000 0.58500  0.84560  0.83490  Biso   1.000  H
  H1597    1.0000 0.91500  0.83490  0.15440  Biso   1.000  H
  H1598    1.0000 0.08500  0.16510  0.15440  Biso   1.000  H
  H1599    1.0000 0.91500  0.16510  0.84560  Biso   1.000  H
  H1600    1.0000 0.08500  0.83490  0.84560  Biso   1.000  H
  H1601    1.0000 0.33490  0.65440  0.91500  Biso   1.000  H
  H1602    1.0000 0.66510  0.65440  0.08500  Biso   1.000  H
  H1603    1.0000 0.66510  0.34560  0.91500  Biso   1.000  H
  H1604    1.0000 0.33490  0.34560  0.08500  Biso   1.000  H
  H1605    1.0000 0.15440  0.41500  0.33490  Biso   1.000  H
  H1606    1.0000 0.15440  0.58500  0.66510  Biso   1.000  H
  H1607    1.0000 0.84560  0.41500  0.66510  Biso   1.000  H
  H1608    1.0000 0.84560  0.58500  0.33490  Biso   1.000  H
  H1609    1.0000 0.83490  0.41500  0.15440  Biso   1.000  H
  H1610    1.0000 0.16510  0.58500  0.15440  Biso   1.000  H
  H1611    1.0000 0.16510  0.41500  0.84560  Biso   1.000  H
  H1612    1.0000 0.83490  0.58500  0.84560  Biso   1.000  H
  H1613    1.0000 0.65440  0.83490  0.91500  Biso   1.000  H
  H1614    1.0000 0.65440  0.16510  0.08500  Biso   1.000  H
  H1615    1.0000 0.34560  0.16510  0.91500  Biso   1.000  H
  H1616    1.0000 0.34560  0.83490  0.08500  Biso   1.000  H
  H1617    1.0000 0.41500  0.65440  0.33490  Biso   1.000  H
  H1618    1.0000 0.58500  0.65440  0.66510  Biso   1.000  H
  H1619    1.0000 0.41500  0.34560  0.66510  Biso   1.000  H
  H1620    1.0000 0.58500  0.34560  0.33490  Biso   1.000  H
  H1621    1.0000 0.91500  0.33490  0.65440  Biso   1.000  H
  H1622    1.0000 0.08500  0.66510  0.65440  Biso   1.000  H
  H1623    1.0000 0.91500  0.66510  0.34560  Biso   1.000  H
  H1624    1.0000 0.08500  0.33490  0.34560  Biso   1.000  H
  H1625    1.0000 0.33490  0.15440  0.41500  Biso   1.000  H
  H1626    1.0000 0.66510  0.15440  0.58500  Biso   1.000  H
  H1627    1.0000 0.66510  0.84560  0.41500  Biso   1.000  H
  H1628    1.0000 0.33490  0.84560  0.58500  Biso   1.000  H
  H1629    1.0000 0.15440  0.91500  0.83490  Biso   1.000  H
  H1630    1.0000 0.15440  0.08500  0.16510  Biso   1.000  H
  H1631    1.0000 0.84560  0.91500  0.16510  Biso   1.000  H
  H1632    1.0000 0.84560  0.08500  0.83490  Biso   1.000  H
  N601     1.0000 0.21921  0.93571  0.23153  Biso   1.000  N
  N602     1.0000 0.78079  0.06429  0.23153  Biso   1.000  N
  N603     1.0000 0.78079  0.93571  0.76847  Biso   1.000  N
  N604     1.0000 0.21921  0.06429  0.76847  Biso   1.000  N
  N605     1.0000 0.23153  0.21921  0.93571  Biso   1.000  N
  N606     1.0000 0.23153  0.78079  0.06429  Biso   1.000  N
  N607     1.0000 0.76847  0.78079  0.93571  Biso   1.000  N
  N608     1.0000 0.76847  0.21921  0.06429  Biso   1.000  N
  N609     1.0000 0.93571  0.23153  0.21921  Biso   1.000  N
  N610     1.0000 0.06429  0.23153  0.78079  Biso   1.000  N
  N611     1.0000 0.93571  0.76847  0.78079  Biso   1.000  N
  N612     1.0000 0.06429  0.76847  0.21921  Biso   1.000  N
  N613     1.0000 0.43571  0.71921  0.73153  Biso   1.000  N
  N614     1.0000 0.56429  0.28079  0.73153  Biso   1.000  N
  N615     1.0000 0.43571  0.28079  0.26847  Biso   1.000  N
  N616     1.0000 0.56429  0.71921  0.26847  Biso   1.000  N
  N617     1.0000 0.71921  0.73153  0.43571  Biso   1.000  N
  N618     1.0000 0.28079  0.73153  0.56429  Biso   1.000  N
  N619     1.0000 0.28079  0.26847  0.43571  Biso   1.000  N
  N620     1.0000 0.71921  0.26847  0.56429  Biso   1.000  N
  N621     1.0000 0.73153  0.43571  0.71921  Biso   1.000  N
  N622     1.0000 0.73153  0.56429  0.28079  Biso   1.000  N
  N623     1.0000 0.26847  0.43571  0.28079  Biso   1.000  N
  N624     1.0000 0.26847  0.56429  0.71921  Biso   1.000  N
  N625     1.0000 0.21921  0.43571  0.73153  Biso   1.000  N
  N626     1.0000 0.78079  0.56429  0.73153  Biso   1.000  N
  N627     1.0000 0.78079  0.43571  0.26847  Biso   1.000  N
  N628     1.0000 0.21921  0.56429  0.26847  Biso   1.000  N
  N629     1.0000 0.23153  0.71921  0.43571  Biso   1.000  N
  N630     1.0000 0.23153  0.28079  0.56429  Biso   1.000  N
  N631     1.0000 0.76847  0.28079  0.43571  Biso   1.000  N
  N632     1.0000 0.76847  0.71921  0.56429  Biso   1.000  N
  N633     1.0000 0.93571  0.73153  0.71921  Biso   1.000  N
  N634     1.0000 0.06429  0.73153  0.28079  Biso   1.000  N
  N635     1.0000 0.93571  0.26847  0.28079  Biso   1.000  N
  N636     1.0000 0.06429  0.26847  0.71921  Biso   1.000  N
  N637     1.0000 0.43571  0.21921  0.23153  Biso   1.000  N
  N638     1.0000 0.56429  0.78079  0.23153  Biso   1.000  N
  N639     1.0000 0.43571  0.78079  0.76847  Biso   1.000  N
  N640     1.0000 0.56429  0.21921  0.76847  Biso   1.000  N
  N641     1.0000 0.71921  0.23153  0.93571  Biso   1.000  N
  N642     1.0000 0.28079  0.23153  0.06429  Biso   1.000  N
  N643     1.0000 0.28079  0.76847  0.93571  Biso   1.000  N
  N644     1.0000 0.71921  0.76847  0.06429  Biso   1.000  N
  N645     1.0000 0.73153  0.93571  0.21921  Biso   1.000  N
  N646     1.0000 0.73153  0.06429  0.78079  Biso   1.000  N
  N647     1.0000 0.26847  0.93571  0.78079  Biso   1.000  N
  N648     1.0000 0.26847  0.06429  0.21921  Biso   1.000  N
  N649     1.0000 0.71921  0.93571  0.73153  Biso   1.000  N
  N650     1.0000 0.28079  0.06429  0.73153  Biso   1.000  N
  N651     1.0000 0.28079  0.93571  0.26847  Biso   1.000  N
  N652     1.0000 0.71921  0.06429  0.26847  Biso   1.000  N
  N653     1.0000 0.73153  0.21921  0.43571  Biso   1.000  N
  N654     1.0000 0.73153  0.78079  0.56429  Biso   1.000  N
  N655     1.0000 0.26847  0.78079  0.43571  Biso   1.000  N
  N656     1.0000 0.26847  0.21921  0.56429  Biso   1.000  N
  N657     1.0000 0.43571  0.23153  0.71921  Biso   1.000  N
  N658     1.0000 0.56429  0.23153  0.28079  Biso   1.000  N
  N659     1.0000 0.43571  0.76847  0.28079  Biso   1.000  N
  N660     1.0000 0.56429  0.76847  0.71921  Biso   1.000  N
  N661     1.0000 0.93571  0.71921  0.23153  Biso   1.000  N
  N662     1.0000 0.06429  0.28079  0.23153  Biso   1.000  N
  N663     1.0000 0.93571  0.28079  0.76847  Biso   1.000  N
  N664     1.0000 0.06429  0.71921  0.76847  Biso   1.000  N
  N665     1.0000 0.21921  0.73153  0.93571  Biso   1.000  N
  N666     1.0000 0.78079  0.73153  0.06429  Biso   1.000  N
  N667     1.0000 0.78079  0.26847  0.93571  Biso   1.000  N
  N668     1.0000 0.21921  0.26847  0.06429  Biso   1.000  N
  N669     1.0000 0.23153  0.43571  0.21921  Biso   1.000  N
  N670     1.0000 0.23153  0.56429  0.78079  Biso   1.000  N
  N671     1.0000 0.76847  0.43571  0.78079  Biso   1.000  N
  N672     1.0000 0.76847  0.56429  0.21921  Biso   1.000  N
  N673     1.0000 0.71921  0.43571  0.23153  Biso   1.000  N
  N674     1.0000 0.28079  0.56429  0.23153  Biso   1.000  N
  N675     1.0000 0.28079  0.43571  0.76847  Biso   1.000  N
  N676     1.0000 0.71921  0.56429  0.76847  Biso   1.000  N
  N677     1.0000 0.73153  0.71921  0.93571  Biso   1.000  N
  N678     1.0000 0.73153  0.28079  0.06429  Biso   1.000  N
  N679     1.0000 0.26847  0.28079  0.93571  Biso   1.000  N
  N680     1.0000 0.26847  0.71921  0.06429  Biso   1.000  N
  N681     1.0000 0.43571  0.73153  0.21921  Biso   1.000  N
  N682     1.0000 0.56429  0.73153  0.78079  Biso   1.000  N
  N683     1.0000 0.43571  0.26847  0.78079  Biso   1.000  N
  N684     1.0000 0.56429  0.26847  0.21921  Biso   1.000  N
  N685     1.0000 0.93571  0.21921  0.73153  Biso   1.000  N
  N686     1.0000 0.06429  0.78079  0.73153  Biso   1.000  N
  N687     1.0000 0.93571  0.78079  0.26847  Biso   1.000  N
  N688     1.0000 0.06429  0.21921  0.26847  Biso   1.000  N
  N689     1.0000 0.21921  0.23153  0.43571  Biso   1.000  N
  N690     1.0000 0.78079  0.23153  0.56429  Biso   1.000  N
  N691     1.0000 0.78079  0.76847  0.43571  Biso   1.000  N
  N692     1.0000 0.21921  0.76847  0.56429  Biso   1.000  N
  N693     1.0000 0.23153  0.93571  0.71921  Biso   1.000  N
  N694     1.0000 0.23153  0.06429  0.28079  Biso   1.000  N
  N695     1.0000 0.76847  0.93571  0.28079  Biso   1.000  N
  N696     1.0000 0.76847  0.06429  0.71921  Biso   1.000  N
  N697     1.0000 0.15307  0.91368  0.17417  Biso   1.000  N
  N698     1.0000 0.84693  0.08632  0.17417  Biso   1.000  N
  N699     1.0000 0.84693  0.91368  0.82583  Biso   1.000  N
  N700     1.0000 0.15307  0.08632  0.82583  Biso   1.000  N
  N701     1.0000 0.17417  0.15307  0.91368  Biso   1.000  N
  N702     1.0000 0.17417  0.84693  0.08632  Biso   1.000  N
  N703     1.0000 0.82583  0.84693  0.91368  Biso   1.000  N
  N704     1.0000 0.82583  0.15307  0.08632  Biso   1.000  N
  N705     1.0000 0.91368  0.17417  0.15307  Biso   1.000  N
  N706     1.0000 0.08632  0.17417  0.84693  Biso   1.000  N
  N707     1.0000 0.91368  0.82583  0.84693  Biso   1.000  N
  N708     1.0000 0.08632  0.82583  0.15307  Biso   1.000  N
  N709     1.0000 0.41368  0.65307  0.67417  Biso   1.000  N
  N710     1.0000 0.58632  0.34693  0.67417  Biso   1.000  N
  N711     1.0000 0.41368  0.34693  0.32583  Biso   1.000  N
  N712     1.0000 0.58632  0.65307  0.32583  Biso   1.000  N
  N713     1.0000 0.65307  0.67417  0.41368  Biso   1.000  N
  N714     1.0000 0.34693  0.67417  0.58632  Biso   1.000  N
  N715     1.0000 0.34693  0.32583  0.41368  Biso   1.000  N
  N716     1.0000 0.65307  0.32583  0.58632  Biso   1.000  N
  N717     1.0000 0.67417  0.41368  0.65307  Biso   1.000  N
  N718     1.0000 0.67417  0.58632  0.34693  Biso   1.000  N
  N719     1.0000 0.32583  0.41368  0.34693  Biso   1.000  N
  N720     1.0000 0.32583  0.58632  0.65307  Biso   1.000  N
  N721     1.0000 0.15307  0.41368  0.67417  Biso   1.000  N
  N722     1.0000 0.84693  0.58632  0.67417  Biso   1.000  N
  N723     1.0000 0.84693  0.41368  0.32583  Biso   1.000  N
  N724     1.0000 0.15307  0.58632  0.32583  Biso   1.000  N
  N725     1.0000 0.17417  0.65307  0.41368  Biso   1.000  N
  N726     1.0000 0.17417  0.34693  0.58632  Biso   1.000  N
  N727     1.0000 0.82583  0.34693  0.41368  Biso   1.000  N
  N728     1.0000 0.82583  0.65307  0.58632  Biso   1.000  N
  N729     1.0000 0.91368  0.67417  0.65307  Biso   1.000  N
  N730     1.0000 0.08632  0.67417  0.34693  Biso   1.000  N
  N731     1.0000 0.91368  0.32583  0.34693  Biso   1.000  N
  N732     1.0000 0.08632  0.32583  0.65307  Biso   1.000  N
  N733     1.0000 0.41368  0.15307  0.17417  Biso   1.000  N
  N734     1.0000 0.58632  0.84693  0.17417  Biso   1.000  N
  N735     1.0000 0.41368  0.84693  0.82583  Biso   1.000  N
  N736     1.0000 0.58632  0.15307  0.82583  Biso   1.000  N
  N737     1.0000 0.65307  0.17417  0.91368  Biso   1.000  N
  N738     1.0000 0.34693  0.17417  0.08632  Biso   1.000  N
  N739     1.0000 0.34693  0.82583  0.91368  Biso   1.000  N
  N740     1.0000 0.65307  0.82583  0.08632  Biso   1.000  N
  N741     1.0000 0.67417  0.91368  0.15307  Biso   1.000  N
  N742     1.0000 0.67417  0.08632  0.84693  Biso   1.000  N
  N743     1.0000 0.32583  0.91368  0.84693  Biso   1.000  N
  N744     1.0000 0.32583  0.08632  0.15307  Biso   1.000  N
  N745     1.0000 0.65307  0.91368  0.67417  Biso   1.000  N
  N746     1.0000 0.34693  0.08632  0.67417  Biso   1.000  N
  N747     1.0000 0.34693  0.91368  0.32583  Biso   1.000  N
  N748     1.0000 0.65307  0.08632  0.32583  Biso   1.000  N
  N749     1.0000 0.67417  0.15307  0.41368  Biso   1.000  N
  N750     1.0000 0.67417  0.84693  0.58632  Biso   1.000  N
  N751     1.0000 0.32583  0.84693  0.41368  Biso   1.000  N
  N752     1.0000 0.32583  0.15307  0.58632  Biso   1.000  N
  N753     1.0000 0.41368  0.17417  0.65307  Biso   1.000  N
  N754     1.0000 0.58632  0.17417  0.34693  Biso   1.000  N
  N755     1.0000 0.41368  0.82583  0.34693  Biso   1.000  N
  N756     1.0000 0.58632  0.82583  0.65307  Biso   1.000  N
  N757     1.0000 0.91368  0.65307  0.17417  Biso   1.000  N
  N758     1.0000 0.08632  0.34693  0.17417  Biso   1.000  N
  N759     1.0000 0.91368  0.34693  0.82583  Biso   1.000  N
  N760     1.0000 0.08632  0.65307  0.82583  Biso   1.000  N
  N761     1.0000 0.15307  0.67417  0.91368  Biso   1.000  N
  N762     1.0000 0.84693  0.67417  0.08632  Biso   1.000  N
  N763     1.0000 0.84693  0.32583  0.91368  Biso   1.000  N
  N764     1.0000 0.15307  0.32583  0.08632  Biso   1.000  N
  N765     1.0000 0.17417  0.41368  0.15307  Biso   1.000  N
  N766     1.0000 0.17417  0.58632  0.84693  Biso   1.000  N
  N767     1.0000 0.82583  0.41368  0.84693  Biso   1.000  N
  N768     1.0000 0.82583  0.58632  0.15307  Biso   1.000  N
  N769     1.0000 0.65307  0.41368  0.17417  Biso   1.000  N
  N770     1.0000 0.34693  0.58632  0.17417  Biso   1.000  N
  N771     1.0000 0.34693  0.41368  0.82583  Biso   1.000  N
  N772     1.0000 0.65307  0.58632  0.82583  Biso   1.000  N
  N773     1.0000 0.67417  0.65307  0.91368  Biso   1.000  N
  N774     1.0000 0.67417  0.34693  0.08632  Biso   1.000  N
  N775     1.0000 0.32583  0.34693  0.91368  Biso   1.000  N
  N776     1.0000 0.32583  0.65307  0.08632  Biso   1.000  N
  N777     1.0000 0.41368  0.67417  0.15307  Biso   1.000  N
  N778     1.0000 0.58632  0.67417  0.84693  Biso   1.000  N
  N779     1.0000 0.41368  0.32583  0.84693  Biso   1.000  N
  N780     1.0000 0.58632  0.32583  0.15307  Biso   1.000  N
  N781     1.0000 0.91368  0.15307  0.67417  Biso   1.000  N
  N782     1.0000 0.08632  0.84693  0.67417  Biso   1.000  N
  N783     1.0000 0.91368  0.84693  0.32583  Biso   1.000  N
  N784     1.0000 0.08632  0.15307  0.32583  Biso   1.000  N
  N785     1.0000 0.15307  0.17417  0.41368  Biso   1.000  N
  N786     1.0000 0.84693  0.17417  0.58632  Biso   1.000  N
  N787     1.0000 0.84693  0.82583  0.41368  Biso   1.000  N
  N788     1.0000 0.15307  0.82583  0.58632  Biso   1.000  N
  N789     1.0000 0.17417  0.91368  0.65307  Biso   1.000  N
  N790     1.0000 0.17417  0.08632  0.34693  Biso   1.000  N
  N791     1.0000 0.82583  0.91368  0.34693  Biso   1.000  N
  N792     1.0000 0.82583  0.08632  0.65307  Biso   1.000  N
  H1633    1.0000 0.15780  0.91570  0.15930  Biso   1.000  H
  H1634    1.0000 0.84220  0.08430  0.15930  Biso   1.000  H
  H1635    1.0000 0.84220  0.91570  0.84070  Biso   1.000  H
  H1636    1.0000 0.15780  0.08430  0.84070  Biso   1.000  H
  H1637    1.0000 0.15930  0.15780  0.91570  Biso   1.000  H
  H1638    1.0000 0.15930  0.84220  0.08430  Biso   1.000  H
  H1639    1.0000 0.84070  0.84220  0.91570  Biso   1.000  H
  H1640    1.0000 0.84070  0.15780  0.08430  Biso   1.000  H
  H1641    1.0000 0.91570  0.15930  0.15780  Biso   1.000  H
  H1642    1.0000 0.08430  0.15930  0.84220  Biso   1.000  H
  H1643    1.0000 0.91570  0.84070  0.84220  Biso   1.000  H
  H1644    1.0000 0.08430  0.84070  0.15780  Biso   1.000  H
  H1645    1.0000 0.41570  0.65780  0.65930  Biso   1.000  H
  H1646    1.0000 0.58430  0.34220  0.65930  Biso   1.000  H
  H1647    1.0000 0.41570  0.34220  0.34070  Biso   1.000  H
  H1648    1.0000 0.58430  0.65780  0.34070  Biso   1.000  H
  H1649    1.0000 0.65780  0.65930  0.41570  Biso   1.000  H
  H1650    1.0000 0.34220  0.65930  0.58430  Biso   1.000  H
  H1651    1.0000 0.34220  0.34070  0.41570  Biso   1.000  H
  H1652    1.0000 0.65780  0.34070  0.58430  Biso   1.000  H
  H1653    1.0000 0.65930  0.41570  0.65780  Biso   1.000  H
  H1654    1.0000 0.65930  0.58430  0.34220  Biso   1.000  H
  H1655    1.0000 0.34070  0.41570  0.34220  Biso   1.000  H
  H1656    1.0000 0.34070  0.58430  0.65780  Biso   1.000  H
  H1657    1.0000 0.15780  0.41570  0.65930  Biso   1.000  H
  H1658    1.0000 0.84220  0.58430  0.65930  Biso   1.000  H
  H1659    1.0000 0.84220  0.41570  0.34070  Biso   1.000  H
  H1660    1.0000 0.15780  0.58430  0.34070  Biso   1.000  H
  H1661    1.0000 0.15930  0.65780  0.41570  Biso   1.000  H
  H1662    1.0000 0.15930  0.34220  0.58430  Biso   1.000  H
  H1663    1.0000 0.84070  0.34220  0.41570  Biso   1.000  H
  H1664    1.0000 0.84070  0.65780  0.58430  Biso   1.000  H
  H1665    1.0000 0.91570  0.65930  0.65780  Biso   1.000  H
  H1666    1.0000 0.08430  0.65930  0.34220  Biso   1.000  H
  H1667    1.0000 0.91570  0.34070  0.34220  Biso   1.000  H
  H1668    1.0000 0.08430  0.34070  0.65780  Biso   1.000  H
  H1669    1.0000 0.41570  0.15780  0.15930  Biso   1.000  H
  H1670    1.0000 0.58430  0.84220  0.15930  Biso   1.000  H
  H1671    1.0000 0.41570  0.84220  0.84070  Biso   1.000  H
  H1672    1.0000 0.58430  0.15780  0.84070  Biso   1.000  H
  H1673    1.0000 0.65780  0.15930  0.91570  Biso   1.000  H
  H1674    1.0000 0.34220  0.15930  0.08430  Biso   1.000  H
  H1675    1.0000 0.34220  0.84070  0.91570  Biso   1.000  H
  H1676    1.0000 0.65780  0.84070  0.08430  Biso   1.000  H
  H1677    1.0000 0.65930  0.91570  0.15780  Biso   1.000  H
  H1678    1.0000 0.65930  0.08430  0.84220  Biso   1.000  H
  H1679    1.0000 0.34070  0.91570  0.84220  Biso   1.000  H
  H1680    1.0000 0.34070  0.08430  0.15780  Biso   1.000  H
  H1681    1.0000 0.65780  0.91570  0.65930  Biso   1.000  H
  H1682    1.0000 0.34220  0.08430  0.65930  Biso   1.000  H
  H1683    1.0000 0.34220  0.91570  0.34070  Biso   1.000  H
  H1684    1.0000 0.65780  0.08430  0.34070  Biso   1.000  H
  H1685    1.0000 0.65930  0.15780  0.41570  Biso   1.000  H
  H1686    1.0000 0.65930  0.84220  0.58430  Biso   1.000  H
  H1687    1.0000 0.34070  0.84220  0.41570  Biso   1.000  H
  H1688    1.0000 0.34070  0.15780  0.58430  Biso   1.000  H
  H1689    1.0000 0.41570  0.15930  0.65780  Biso   1.000  H
  H1690    1.0000 0.58430  0.15930  0.34220  Biso   1.000  H
  H1691    1.0000 0.41570  0.84070  0.34220  Biso   1.000  H
  H1692    1.0000 0.58430  0.84070  0.65780  Biso   1.000  H
  H1693    1.0000 0.91570  0.65780  0.15930  Biso   1.000  H
  H1694    1.0000 0.08430  0.34220  0.15930  Biso   1.000  H
  H1695    1.0000 0.91570  0.34220  0.84070  Biso   1.000  H
  H1696    1.0000 0.08430  0.65780  0.84070  Biso   1.000  H
  H1697    1.0000 0.15780  0.65930  0.91570  Biso   1.000  H
  H1698    1.0000 0.84220  0.65930  0.08430  Biso   1.000  H
  H1699    1.0000 0.84220  0.34070  0.91570  Biso   1.000  H
  H1700    1.0000 0.15780  0.34070  0.08430  Biso   1.000  H
  H1701    1.0000 0.15930  0.41570  0.15780  Biso   1.000  H
  H1702    1.0000 0.15930  0.58430  0.84220  Biso   1.000  H
  H1703    1.0000 0.84070  0.41570  0.84220  Biso   1.000  H
  H1704    1.0000 0.84070  0.58430  0.15780  Biso   1.000  H
  H1705    1.0000 0.65780  0.41570  0.15930  Biso   1.000  H
  H1706    1.0000 0.34220  0.58430  0.15930  Biso   1.000  H
  H1707    1.0000 0.34220  0.41570  0.84070  Biso   1.000  H
  H1708    1.0000 0.65780  0.58430  0.84070  Biso   1.000  H
  H1709    1.0000 0.65930  0.65780  0.91570  Biso   1.000  H
  H1710    1.0000 0.65930  0.34220  0.08430  Biso   1.000  H
  H1711    1.0000 0.34070  0.34220  0.91570  Biso   1.000  H
  H1712    1.0000 0.34070  0.65780  0.08430  Biso   1.000  H
  H1713    1.0000 0.41570  0.65930  0.15780  Biso   1.000  H
  H1714    1.0000 0.58430  0.65930  0.84220  Biso   1.000  H
  H1715    1.0000 0.41570  0.34070  0.84220  Biso   1.000  H
  H1716    1.0000 0.58430  0.34070  0.15780  Biso   1.000  H
  H1717    1.0000 0.91570  0.15780  0.65930  Biso   1.000  H
  H1718    1.0000 0.08430  0.84220  0.65930  Biso   1.000  H
  H1719    1.0000 0.91570  0.84220  0.34070  Biso   1.000  H
  H1720    1.0000 0.08430  0.15780  0.34070  Biso   1.000  H
  H1721    1.0000 0.15780  0.15930  0.41570  Biso   1.000  H
  H1722    1.0000 0.84220  0.15930  0.58430  Biso   1.000  H
  H1723    1.0000 0.84220  0.84070  0.41570  Biso   1.000  H
  H1724    1.0000 0.15780  0.84070  0.58430  Biso   1.000  H
  H1725    1.0000 0.15930  0.91570  0.65780  Biso   1.000  H
  H1726    1.0000 0.15930  0.08430  0.34220  Biso   1.000  H
  H1727    1.0000 0.84070  0.91570  0.34220  Biso   1.000  H
  H1728    1.0000 0.84070  0.08430  0.65780  Biso   1.000  H
  N793     1.0000 0.25000  0.86538  0.25000  Biso   1.000  N
  N794     1.0000 0.75000  0.13462  0.25000  Biso   1.000  N
  N795     1.0000 0.75000  0.86538  0.75000  Biso   1.000  N
  N796     1.0000 0.25000  0.13462  0.75000  Biso   1.000  N
  N797     1.0000 0.25000  0.25000  0.86538  Biso   1.000  N
  N798     1.0000 0.25000  0.75000  0.13462  Biso   1.000  N
  N799     1.0000 0.75000  0.75000  0.86538  Biso   1.000  N
  N800     1.0000 0.75000  0.25000  0.13462  Biso   1.000  N
  N801     1.0000 0.86538  0.25000  0.25000  Biso   1.000  N
  N802     1.0000 0.13462  0.25000  0.75000  Biso   1.000  N
  N803     1.0000 0.86538  0.75000  0.75000  Biso   1.000  N
  N804     1.0000 0.13462  0.75000  0.25000  Biso   1.000  N
  N805     1.0000 0.36538  0.75000  0.75000  Biso   1.000  N
  N806     1.0000 0.63462  0.25000  0.75000  Biso   1.000  N
  N807     1.0000 0.36538  0.25000  0.25000  Biso   1.000  N
  N808     1.0000 0.63462  0.75000  0.25000  Biso   1.000  N
  N809     1.0000 0.75000  0.75000  0.36538  Biso   1.000  N
  N810     1.0000 0.25000  0.75000  0.63462  Biso   1.000  N
  N811     1.0000 0.25000  0.25000  0.36538  Biso   1.000  N
  N812     1.0000 0.75000  0.25000  0.63462  Biso   1.000  N
  N813     1.0000 0.75000  0.36538  0.75000  Biso   1.000  N
  N814     1.0000 0.75000  0.63462  0.25000  Biso   1.000  N
  N815     1.0000 0.25000  0.36538  0.25000  Biso   1.000  N
  N816     1.0000 0.25000  0.63462  0.75000  Biso   1.000  N
  N817     1.0000 0.25000  0.36538  0.75000  Biso   1.000  N
  N818     1.0000 0.75000  0.63462  0.75000  Biso   1.000  N
  N819     1.0000 0.75000  0.36538  0.25000  Biso   1.000  N
  N820     1.0000 0.25000  0.63462  0.25000  Biso   1.000  N
  N821     1.0000 0.25000  0.75000  0.36538  Biso   1.000  N
  N822     1.0000 0.25000  0.25000  0.63462  Biso   1.000  N
  N823     1.0000 0.75000  0.25000  0.36538  Biso   1.000  N
  N824     1.0000 0.75000  0.75000  0.63462  Biso   1.000  N
  N825     1.0000 0.75000  0.25000  0.86538  Biso   1.000  N
  N826     1.0000 0.25000  0.25000  0.13462  Biso   1.000  N
  N827     1.0000 0.25000  0.75000  0.86538  Biso   1.000  N
  N828     1.0000 0.75000  0.75000  0.13462  Biso   1.000  N
  N829     1.0000 0.75000  0.86538  0.25000  Biso   1.000  N
  N830     1.0000 0.75000  0.13462  0.75000  Biso   1.000  N
  N831     1.0000 0.25000  0.86538  0.75000  Biso   1.000  N
  N832     1.0000 0.25000  0.13462  0.25000  Biso   1.000  N
  N833     1.0000 0.36538  0.25000  0.75000  Biso   1.000  N
  N834     1.0000 0.63462  0.25000  0.25000  Biso   1.000  N
  N835     1.0000 0.36538  0.75000  0.25000  Biso   1.000  N
  N836     1.0000 0.63462  0.75000  0.75000  Biso   1.000  N
  N837     1.0000 0.86538  0.75000  0.25000  Biso   1.000  N
  N838     1.0000 0.13462  0.25000  0.25000  Biso   1.000  N
  N839     1.0000 0.86538  0.25000  0.75000  Biso   1.000  N
  N840     1.0000 0.13462  0.75000  0.75000  Biso   1.000  N
  O577     1.0000 0.25000  0.89099  0.25000  Biso   1.000  O
  O578     1.0000 0.75000  0.10901  0.25000  Biso   1.000  O
  O579     1.0000 0.75000  0.89099  0.75000  Biso   1.000  O
  O580     1.0000 0.25000  0.10901  0.75000  Biso   1.000  O
  O581     1.0000 0.25000  0.25000  0.89099  Biso   1.000  O
  O582     1.0000 0.25000  0.75000  0.10901  Biso   1.000  O
  O583     1.0000 0.75000  0.75000  0.89099  Biso   1.000  O
  O584     1.0000 0.75000  0.25000  0.10901  Biso   1.000  O
  O585     1.0000 0.89099  0.25000  0.25000  Biso   1.000  O
  O586     1.0000 0.10901  0.25000  0.75000  Biso   1.000  O
  O587     1.0000 0.89099  0.75000  0.75000  Biso   1.000  O
  O588     1.0000 0.10901  0.75000  0.25000  Biso   1.000  O
  O589     1.0000 0.39099  0.75000  0.75000  Biso   1.000  O
  O590     1.0000 0.60901  0.25000  0.75000  Biso   1.000  O
  O591     1.0000 0.39099  0.25000  0.25000  Biso   1.000  O
  O592     1.0000 0.60901  0.75000  0.25000  Biso   1.000  O
  O593     1.0000 0.75000  0.75000  0.39099  Biso   1.000  O
  O594     1.0000 0.25000  0.75000  0.60901  Biso   1.000  O
  O595     1.0000 0.25000  0.25000  0.39099  Biso   1.000  O
  O596     1.0000 0.75000  0.25000  0.60901  Biso   1.000  O
  O597     1.0000 0.75000  0.39099  0.75000  Biso   1.000  O
  O598     1.0000 0.75000  0.60901  0.25000  Biso   1.000  O
  O599     1.0000 0.25000  0.39099  0.25000  Biso   1.000  O
  O600     1.0000 0.25000  0.60901  0.75000  Biso   1.000  O
  O601     1.0000 0.25000  0.39099  0.75000  Biso   1.000  O
  O602     1.0000 0.75000  0.60901  0.75000  Biso   1.000  O
  O603     1.0000 0.75000  0.39099  0.25000  Biso   1.000  O
  O604     1.0000 0.25000  0.60901  0.25000  Biso   1.000  O
  O605     1.0000 0.25000  0.75000  0.39099  Biso   1.000  O
  O606     1.0000 0.25000  0.25000  0.60901  Biso   1.000  O
  O607     1.0000 0.75000  0.25000  0.39099  Biso   1.000  O
  O608     1.0000 0.75000  0.75000  0.60901  Biso   1.000  O
  O609     1.0000 0.75000  0.25000  0.89099  Biso   1.000  O
  O610     1.0000 0.25000  0.25000  0.10901  Biso   1.000  O
  O611     1.0000 0.25000  0.75000  0.89099  Biso   1.000  O
  O612     1.0000 0.75000  0.75000  0.10901  Biso   1.000  O
  O613     1.0000 0.75000  0.89099  0.25000  Biso   1.000  O
  O614     1.0000 0.75000  0.10901  0.75000  Biso   1.000  O
  O615     1.0000 0.25000  0.89099  0.75000  Biso   1.000  O
  O616     1.0000 0.25000  0.10901  0.25000  Biso   1.000  O
  O617     1.0000 0.39099  0.25000  0.75000  Biso   1.000  O
  O618     1.0000 0.60901  0.25000  0.25000  Biso   1.000  O
  O619     1.0000 0.39099  0.75000  0.25000  Biso   1.000  O
  O620     1.0000 0.60901  0.75000  0.75000  Biso   1.000  O
  O621     1.0000 0.89099  0.75000  0.25000  Biso   1.000  O
  O622     1.0000 0.10901  0.25000  0.25000  Biso   1.000  O
  O623     1.0000 0.89099  0.25000  0.75000  Biso   1.000  O
  O624     1.0000 0.10901  0.75000  0.75000  Biso   1.000  O
  N841     1.0000 0.25000  0.00000  0.25000  Biso   1.000  N
  N842     1.0000 0.75000  0.00000  0.25000  Biso   1.000  N
  N843     1.0000 0.75000  0.00000  0.75000  Biso   1.000  N
  N844     1.0000 0.25000  0.00000  0.75000  Biso   1.000  N
  N845     1.0000 0.25000  0.25000  0.00000  Biso   1.000  N
  N846     1.0000 0.25000  0.75000  0.00000  Biso   1.000  N
  N847     1.0000 0.75000  0.75000  0.00000  Biso   1.000  N
  N848     1.0000 0.75000  0.25000  0.00000  Biso   1.000  N
  N849     1.0000 0.00000  0.25000  0.25000  Biso   1.000  N
  N850     1.0000 0.00000  0.25000  0.75000  Biso   1.000  N
  N851     1.0000 0.00000  0.75000  0.75000  Biso   1.000  N
  N852     1.0000 0.00000  0.75000  0.25000  Biso   1.000  N
  N853     1.0000 0.50000  0.75000  0.75000  Biso   1.000  N
  N854     1.0000 0.50000  0.25000  0.75000  Biso   1.000  N
  N855     1.0000 0.50000  0.25000  0.25000  Biso   1.000  N
  N856     1.0000 0.50000  0.75000  0.25000  Biso   1.000  N
  N857     1.0000 0.75000  0.75000  0.50000  Biso   1.000  N
  N858     1.0000 0.25000  0.75000  0.50000  Biso   1.000  N
  N859     1.0000 0.25000  0.25000  0.50000  Biso   1.000  N
  N860     1.0000 0.75000  0.25000  0.50000  Biso   1.000  N
  N861     1.0000 0.75000  0.50000  0.75000  Biso   1.000  N
  N862     1.0000 0.75000  0.50000  0.25000  Biso   1.000  N
  N863     1.0000 0.25000  0.50000  0.25000  Biso   1.000  N
  N864     1.0000 0.25000  0.50000  0.75000  Biso   1.000  N
  O625     1.0000 0.25000  0.98014  0.25000  Biso   1.000  O
  O626     1.0000 0.75000  0.01986  0.25000  Biso   1.000  O
  O627     1.0000 0.75000  0.98014  0.75000  Biso   1.000  O
  O628     1.0000 0.25000  0.01986  0.75000  Biso   1.000  O
  O629     1.0000 0.25000  0.25000  0.98014  Biso   1.000  O
  O630     1.0000 0.25000  0.75000  0.01986  Biso   1.000  O
  O631     1.0000 0.75000  0.75000  0.98014  Biso   1.000  O
  O632     1.0000 0.75000  0.25000  0.01986  Biso   1.000  O
  O633     1.0000 0.98014  0.25000  0.25000  Biso   1.000  O
  O634     1.0000 0.01986  0.25000  0.75000  Biso   1.000  O
  O635     1.0000 0.98014  0.75000  0.75000  Biso   1.000  O
  O636     1.0000 0.01986  0.75000  0.25000  Biso   1.000  O
  O637     1.0000 0.48014  0.75000  0.75000  Biso   1.000  O
  O638     1.0000 0.51986  0.25000  0.75000  Biso   1.000  O
  O639     1.0000 0.48014  0.25000  0.25000  Biso   1.000  O
  O640     1.0000 0.51986  0.75000  0.25000  Biso   1.000  O
  O641     1.0000 0.75000  0.75000  0.48014  Biso   1.000  O
  O642     1.0000 0.25000  0.75000  0.51986  Biso   1.000  O
  O643     1.0000 0.25000  0.25000  0.48014  Biso   1.000  O
  O644     1.0000 0.75000  0.25000  0.51986  Biso   1.000  O
  O645     1.0000 0.75000  0.48014  0.75000  Biso   1.000  O
  O646     1.0000 0.75000  0.51986  0.25000  Biso   1.000  O
  O647     1.0000 0.25000  0.48014  0.25000  Biso   1.000  O
  O648     1.0000 0.25000  0.51986  0.75000  Biso   1.000  O
  O649     1.0000 0.25000  0.48014  0.75000  Biso   1.000  O
  O650     1.0000 0.75000  0.51986  0.75000  Biso   1.000  O
  O651     1.0000 0.75000  0.48014  0.25000  Biso   1.000  O
  O652     1.0000 0.25000  0.51986  0.25000  Biso   1.000  O
  O653     1.0000 0.25000  0.75000  0.48014  Biso   1.000  O
  O654     1.0000 0.25000  0.25000  0.51986  Biso   1.000  O
  O655     1.0000 0.75000  0.25000  0.48014  Biso   1.000  O
  O656     1.0000 0.75000  0.75000  0.51986  Biso   1.000  O
  O657     1.0000 0.75000  0.25000  0.98014  Biso   1.000  O
  O658     1.0000 0.25000  0.25000  0.01986  Biso   1.000  O
  O659     1.0000 0.25000  0.75000  0.98014  Biso   1.000  O
  O660     1.0000 0.75000  0.75000  0.01986  Biso   1.000  O
  O661     1.0000 0.75000  0.98014  0.25000  Biso   1.000  O
  O662     1.0000 0.75000  0.01986  0.75000  Biso   1.000  O
  O663     1.0000 0.25000  0.98014  0.75000  Biso   1.000  O
  O664     1.0000 0.25000  0.01986  0.25000  Biso   1.000  O
  O665     1.0000 0.48014  0.25000  0.75000  Biso   1.000  O
  O666     1.0000 0.51986  0.25000  0.25000  Biso   1.000  O
  O667     1.0000 0.48014  0.75000  0.25000  Biso   1.000  O
  O668     1.0000 0.51986  0.75000  0.75000  Biso   1.000  O
  O669     1.0000 0.98014  0.75000  0.25000  Biso   1.000  O
  O670     1.0000 0.01986  0.25000  0.25000  Biso   1.000  O
  O671     1.0000 0.98014  0.25000  0.75000  Biso   1.000  O
  O672     1.0000 0.01986  0.75000  0.75000  Biso   1.000  O
  O673     1.0000 0.27610  0.00033  0.23771  Biso   1.000  O
  O674     1.0000 0.72390  0.99967  0.23771  Biso   1.000  O
  O675     1.0000 0.72390  0.00033  0.76229  Biso   1.000  O
  O676     1.0000 0.27610  0.99967  0.76229  Biso   1.000  O
  O677     1.0000 0.23771  0.27610  0.00033  Biso   1.000  O
  O678     1.0000 0.23771  0.72390  0.99967  Biso   1.000  O
  O679     1.0000 0.76229  0.72390  0.00033  Biso   1.000  O
  O680     1.0000 0.76229  0.27610  0.99967  Biso   1.000  O
  O681     1.0000 0.00033  0.23771  0.27610  Biso   1.000  O
  O682     1.0000 0.99967  0.23771  0.72390  Biso   1.000  O
  O683     1.0000 0.00033  0.76229  0.72390  Biso   1.000  O
  O684     1.0000 0.99967  0.76229  0.27610  Biso   1.000  O
  O685     1.0000 0.50033  0.77610  0.73771  Biso   1.000  O
  O686     1.0000 0.49967  0.22390  0.73771  Biso   1.000  O
  O687     1.0000 0.50033  0.22390  0.26229  Biso   1.000  O
  O688     1.0000 0.49967  0.77610  0.26229  Biso   1.000  O
  O689     1.0000 0.77610  0.73771  0.50033  Biso   1.000  O
  O690     1.0000 0.22390  0.73771  0.49967  Biso   1.000  O
  O691     1.0000 0.22390  0.26229  0.50033  Biso   1.000  O
  O692     1.0000 0.77610  0.26229  0.49967  Biso   1.000  O
  O693     1.0000 0.73771  0.50033  0.77610  Biso   1.000  O
  O694     1.0000 0.73771  0.49967  0.22390  Biso   1.000  O
  O695     1.0000 0.26229  0.50033  0.22390  Biso   1.000  O
  O696     1.0000 0.26229  0.49967  0.77610  Biso   1.000  O
  O697     1.0000 0.27610  0.50033  0.73771  Biso   1.000  O
  O698     1.0000 0.72390  0.49967  0.73771  Biso   1.000  O
  O699     1.0000 0.72390  0.50033  0.26229  Biso   1.000  O
  O700     1.0000 0.27610  0.49967  0.26229  Biso   1.000  O
  O701     1.0000 0.23771  0.77610  0.50033  Biso   1.000  O
  O702     1.0000 0.23771  0.22390  0.49967  Biso   1.000  O
  O703     1.0000 0.76229  0.22390  0.50033  Biso   1.000  O
  O704     1.0000 0.76229  0.77610  0.49967  Biso   1.000  O
  O705     1.0000 0.00033  0.73771  0.77610  Biso   1.000  O
  O706     1.0000 0.99967  0.73771  0.22390  Biso   1.000  O
  O707     1.0000 0.00033  0.26229  0.22390  Biso   1.000  O
  O708     1.0000 0.99967  0.26229  0.77610  Biso   1.000  O
  O709     1.0000 0.50033  0.27610  0.23771  Biso   1.000  O
  O710     1.0000 0.49967  0.72390  0.23771  Biso   1.000  O
  O711     1.0000 0.50033  0.72390  0.76229  Biso   1.000  O
  O712     1.0000 0.49967  0.27610  0.76229  Biso   1.000  O
  O713     1.0000 0.77610  0.23771  0.00033  Biso   1.000  O
  O714     1.0000 0.22390  0.23771  0.99967  Biso   1.000  O
  O715     1.0000 0.22390  0.76229  0.00033  Biso   1.000  O
  O716     1.0000 0.77610  0.76229  0.99967  Biso   1.000  O
  O717     1.0000 0.73771  0.00033  0.27610  Biso   1.000  O
  O718     1.0000 0.73771  0.99967  0.72390  Biso   1.000  O
  O719     1.0000 0.26229  0.00033  0.72390  Biso   1.000  O
  O720     1.0000 0.26229  0.99967  0.27610  Biso   1.000  O
  O721     1.0000 0.77610  0.00033  0.73771  Biso   1.000  O
  O722     1.0000 0.22390  0.99967  0.73771  Biso   1.000  O
  O723     1.0000 0.22390  0.00033  0.26229  Biso   1.000  O
  O724     1.0000 0.77610  0.99967  0.26229  Biso   1.000  O
  O725     1.0000 0.73771  0.27610  0.50033  Biso   1.000  O
  O726     1.0000 0.73771  0.72390  0.49967  Biso   1.000  O
  O727     1.0000 0.26229  0.72390  0.50033  Biso   1.000  O
  O728     1.0000 0.26229  0.27610  0.49967  Biso   1.000  O
  O729     1.0000 0.50033  0.23771  0.77610  Biso   1.000  O
  O730     1.0000 0.49967  0.23771  0.22390  Biso   1.000  O
  O731     1.0000 0.50033  0.76229  0.22390  Biso   1.000  O
  O732     1.0000 0.49967  0.76229  0.77610  Biso   1.000  O
  O733     1.0000 0.00033  0.77610  0.23771  Biso   1.000  O
  O734     1.0000 0.99967  0.22390  0.23771  Biso   1.000  O
  O735     1.0000 0.00033  0.22390  0.76229  Biso   1.000  O
  O736     1.0000 0.99967  0.77610  0.76229  Biso   1.000  O
  O737     1.0000 0.27610  0.73771  0.00033  Biso   1.000  O
  O738     1.0000 0.72390  0.73771  0.99967  Biso   1.000  O
  O739     1.0000 0.72390  0.26229  0.00033  Biso   1.000  O
  O740     1.0000 0.27610  0.26229  0.99967  Biso   1.000  O
  O741     1.0000 0.23771  0.50033  0.27610  Biso   1.000  O
  O742     1.0000 0.23771  0.49967  0.72390  Biso   1.000  O
  O743     1.0000 0.76229  0.50033  0.72390  Biso   1.000  O
  O744     1.0000 0.76229  0.49967  0.27610  Biso   1.000  O
  O745     1.0000 0.77610  0.50033  0.23771  Biso   1.000  O
  O746     1.0000 0.22390  0.49967  0.23771  Biso   1.000  O
  O747     1.0000 0.22390  0.50033  0.76229  Biso   1.000  O
  O748     1.0000 0.77610  0.49967  0.76229  Biso   1.000  O
  O749     1.0000 0.73771  0.77610  0.00033  Biso   1.000  O
  O750     1.0000 0.73771  0.22390  0.99967  Biso   1.000  O
  O751     1.0000 0.26229  0.22390  0.00033  Biso   1.000  O
  O752     1.0000 0.26229  0.77610  0.99967  Biso   1.000  O
  O753     1.0000 0.50033  0.73771  0.27610  Biso   1.000  O
  O754     1.0000 0.49967  0.73771  0.72390  Biso   1.000  O
  O755     1.0000 0.50033  0.26229  0.72390  Biso   1.000  O
  O756     1.0000 0.49967  0.26229  0.27610  Biso   1.000  O
  O757     1.0000 0.00033  0.27610  0.73771  Biso   1.000  O
  O758     1.0000 0.99967  0.72390  0.73771  Biso   1.000  O
  O759     1.0000 0.00033  0.72390  0.26229  Biso   1.000  O
  O760     1.0000 0.99967  0.27610  0.26229  Biso   1.000  O
  O761     1.0000 0.27610  0.23771  0.50033  Biso   1.000  O
  O762     1.0000 0.72390  0.23771  0.49967  Biso   1.000  O
  O763     1.0000 0.72390  0.76229  0.50033  Biso   1.000  O
  O764     1.0000 0.27610  0.76229  0.49967  Biso   1.000  O
  O765     1.0000 0.23771  0.00033  0.77610  Biso   1.000  O
  O766     1.0000 0.23771  0.99967  0.22390  Biso   1.000  O
  O767     1.0000 0.76229  0.00033  0.22390  Biso   1.000  O
  O768     1.0000 0.76229  0.99967  0.77610  Biso   1.000  O
  C1729    1.0000 0.28373  0.91870  0.21465  Biso   1.000  C
  C1730    1.0000 0.71627  0.08130  0.21465  Biso   1.000  C
  C1731    1.0000 0.71627  0.91870  0.78535  Biso   1.000  C
  C1732    1.0000 0.28373  0.08130  0.78535  Biso   1.000  C
  C1733    1.0000 0.21465  0.28373  0.91870  Biso   1.000  C
  C1734    1.0000 0.21465  0.71627  0.08130  Biso   1.000  C
  C1735    1.0000 0.78535  0.71627  0.91870  Biso   1.000  C
  C1736    1.0000 0.78535  0.28373  0.08130  Biso   1.000  C
  C1737    1.0000 0.91870  0.21465  0.28373  Biso   1.000  C
  C1738    1.0000 0.08130  0.21465  0.71627  Biso   1.000  C
  C1739    1.0000 0.91870  0.78535  0.71627  Biso   1.000  C
  C1740    1.0000 0.08130  0.78535  0.28373  Biso   1.000  C
  C1741    1.0000 0.41870  0.78373  0.71465  Biso   1.000  C
  C1742    1.0000 0.58130  0.21627  0.71465  Biso   1.000  C
  C1743    1.0000 0.41870  0.21627  0.28535  Biso   1.000  C
  C1744    1.0000 0.58130  0.78373  0.28535  Biso   1.000  C
  C1745    1.0000 0.78373  0.71465  0.41870  Biso   1.000  C
  C1746    1.0000 0.21627  0.71465  0.58130  Biso   1.000  C
  C1747    1.0000 0.21627  0.28535  0.41870  Biso   1.000  C
  C1748    1.0000 0.78373  0.28535  0.58130  Biso   1.000  C
  C1749    1.0000 0.71465  0.41870  0.78373  Biso   1.000  C
  C1750    1.0000 0.71465  0.58130  0.21627  Biso   1.000  C
  C1751    1.0000 0.28535  0.41870  0.21627  Biso   1.000  C
  C1752    1.0000 0.28535  0.58130  0.78373  Biso   1.000  C
  C1753    1.0000 0.28373  0.41870  0.71465  Biso   1.000  C
  C1754    1.0000 0.71627  0.58130  0.71465  Biso   1.000  C
  C1755    1.0000 0.71627  0.41870  0.28535  Biso   1.000  C
  C1756    1.0000 0.28373  0.58130  0.28535  Biso   1.000  C
  C1757    1.0000 0.21465  0.78373  0.41870  Biso   1.000  C
  C1758    1.0000 0.21465  0.21627  0.58130  Biso   1.000  C
  C1759    1.0000 0.78535  0.21627  0.41870  Biso   1.000  C
  C1760    1.0000 0.78535  0.78373  0.58130  Biso   1.000  C
  C1761    1.0000 0.91870  0.71465  0.78373  Biso   1.000  C
  C1762    1.0000 0.08130  0.71465  0.21627  Biso   1.000  C
  C1763    1.0000 0.91870  0.28535  0.21627  Biso   1.000  C
  C1764    1.0000 0.08130  0.28535  0.78373  Biso   1.000  C
  C1765    1.0000 0.41870  0.28373  0.21465  Biso   1.000  C
  C1766    1.0000 0.58130  0.71627  0.21465  Biso   1.000  C
  C1767    1.0000 0.41870  0.71627  0.78535  Biso   1.000  C
  C1768    1.0000 0.58130  0.28373  0.78535  Biso   1.000  C
  C1769    1.0000 0.78373  0.21465  0.91870  Biso   1.000  C
  C1770    1.0000 0.21627  0.21465  0.08130  Biso   1.000  C
  C1771    1.0000 0.21627  0.78535  0.91870  Biso   1.000  C
  C1772    1.0000 0.78373  0.78535  0.08130  Biso   1.000  C
  C1773    1.0000 0.71465  0.91870  0.28373  Biso   1.000  C
  C1774    1.0000 0.71465  0.08130  0.71627  Biso   1.000  C
  C1775    1.0000 0.28535  0.91870  0.71627  Biso   1.000  C
  C1776    1.0000 0.28535  0.08130  0.28373  Biso   1.000  C
  C1777    1.0000 0.78373  0.91870  0.71465  Biso   1.000  C
  C1778    1.0000 0.21627  0.08130  0.71465  Biso   1.000  C
  C1779    1.0000 0.21627  0.91870  0.28535  Biso   1.000  C
  C1780    1.0000 0.78373  0.08130  0.28535  Biso   1.000  C
  C1781    1.0000 0.71465  0.28373  0.41870  Biso   1.000  C
  C1782    1.0000 0.71465  0.71627  0.58130  Biso   1.000  C
  C1783    1.0000 0.28535  0.71627  0.41870  Biso   1.000  C
  C1784    1.0000 0.28535  0.28373  0.58130  Biso   1.000  C
  C1785    1.0000 0.41870  0.21465  0.78373  Biso   1.000  C
  C1786    1.0000 0.58130  0.21465  0.21627  Biso   1.000  C
  C1787    1.0000 0.41870  0.78535  0.21627  Biso   1.000  C
  C1788    1.0000 0.58130  0.78535  0.78373  Biso   1.000  C
  C1789    1.0000 0.91870  0.78373  0.21465  Biso   1.000  C
  C1790    1.0000 0.08130  0.21627  0.21465  Biso   1.000  C
  C1791    1.0000 0.91870  0.21627  0.78535  Biso   1.000  C
  C1792    1.0000 0.08130  0.78373  0.78535  Biso   1.000  C
  C1793    1.0000 0.28373  0.71465  0.91870  Biso   1.000  C
  C1794    1.0000 0.71627  0.71465  0.08130  Biso   1.000  C
  C1795    1.0000 0.71627  0.28535  0.91870  Biso   1.000  C
  C1796    1.0000 0.28373  0.28535  0.08130  Biso   1.000  C
  C1797    1.0000 0.21465  0.41870  0.28373  Biso   1.000  C
  C1798    1.0000 0.21465  0.58130  0.71627  Biso   1.000  C
  C1799    1.0000 0.78535  0.41870  0.71627  Biso   1.000  C
  C1800    1.0000 0.78535  0.58130  0.28373  Biso   1.000  C
  C1801    1.0000 0.78373  0.41870  0.21465  Biso   1.000  C
  C1802    1.0000 0.21627  0.58130  0.21465  Biso   1.000  C
  C1803    1.0000 0.21627  0.41870  0.78535  Biso   1.000  C
  C1804    1.0000 0.78373  0.58130  0.78535  Biso   1.000  C
  C1805    1.0000 0.71465  0.78373  0.91870  Biso   1.000  C
  C1806    1.0000 0.71465  0.21627  0.08130  Biso   1.000  C
  C1807    1.0000 0.28535  0.21627  0.91870  Biso   1.000  C
  C1808    1.0000 0.28535  0.78373  0.08130  Biso   1.000  C
  C1809    1.0000 0.41870  0.71465  0.28373  Biso   1.000  C
  C1810    1.0000 0.58130  0.71465  0.71627  Biso   1.000  C
  C1811    1.0000 0.41870  0.28535  0.71627  Biso   1.000  C
  C1812    1.0000 0.58130  0.28535  0.28373  Biso   1.000  C
  C1813    1.0000 0.91870  0.28373  0.71465  Biso   1.000  C
  C1814    1.0000 0.08130  0.71627  0.71465  Biso   1.000  C
  C1815    1.0000 0.91870  0.71627  0.28535  Biso   1.000  C
  C1816    1.0000 0.08130  0.28373  0.28535  Biso   1.000  C
  C1817    1.0000 0.28373  0.21465  0.41870  Biso   1.000  C
  C1818    1.0000 0.71627  0.21465  0.58130  Biso   1.000  C
  C1819    1.0000 0.71627  0.78535  0.41870  Biso   1.000  C
  C1820    1.0000 0.28373  0.78535  0.58130  Biso   1.000  C
  C1821    1.0000 0.21465  0.91870  0.78373  Biso   1.000  C
  C1822    1.0000 0.21465  0.08130  0.21627  Biso   1.000  C
  C1823    1.0000 0.78535  0.91870  0.21627  Biso   1.000  C
  C1824    1.0000 0.78535  0.08130  0.78373  Biso   1.000  C
  H1729    1.0000 0.28690  0.90760  0.22710  Biso   1.000  H
  H1730    1.0000 0.71310  0.09240  0.22710  Biso   1.000  H
  H1731    1.0000 0.71310  0.90760  0.77290  Biso   1.000  H
  H1732    1.0000 0.28690  0.09240  0.77290  Biso   1.000  H
  H1733    1.0000 0.22710  0.28690  0.90760  Biso   1.000  H
  H1734    1.0000 0.22710  0.71310  0.09240  Biso   1.000  H
  H1735    1.0000 0.77290  0.71310  0.90760  Biso   1.000  H
  H1736    1.0000 0.77290  0.28690  0.09240  Biso   1.000  H
  H1737    1.0000 0.90760  0.22710  0.28690  Biso   1.000  H
  H1738    1.0000 0.09240  0.22710  0.71310  Biso   1.000  H
  H1739    1.0000 0.90760  0.77290  0.71310  Biso   1.000  H
  H1740    1.0000 0.09240  0.77290  0.28690  Biso   1.000  H
  H1741    1.0000 0.40760  0.78690  0.72710  Biso   1.000  H
  H1742    1.0000 0.59240  0.21310  0.72710  Biso   1.000  H
  H1743    1.0000 0.40760  0.21310  0.27290  Biso   1.000  H
  H1744    1.0000 0.59240  0.78690  0.27290  Biso   1.000  H
  H1745    1.0000 0.78690  0.72710  0.40760  Biso   1.000  H
  H1746    1.0000 0.21310  0.72710  0.59240  Biso   1.000  H
  H1747    1.0000 0.21310  0.27290  0.40760  Biso   1.000  H
  H1748    1.0000 0.78690  0.27290  0.59240  Biso   1.000  H
  H1749    1.0000 0.72710  0.40760  0.78690  Biso   1.000  H
  H1750    1.0000 0.72710  0.59240  0.21310  Biso   1.000  H
  H1751    1.0000 0.27290  0.40760  0.21310  Biso   1.000  H
  H1752    1.0000 0.27290  0.59240  0.78690  Biso   1.000  H
  H1753    1.0000 0.28690  0.40760  0.72710  Biso   1.000  H
  H1754    1.0000 0.71310  0.59240  0.72710  Biso   1.000  H
  H1755    1.0000 0.71310  0.40760  0.27290  Biso   1.000  H
  H1756    1.0000 0.28690  0.59240  0.27290  Biso   1.000  H
  H1757    1.0000 0.22710  0.78690  0.40760  Biso   1.000  H
  H1758    1.0000 0.22710  0.21310  0.59240  Biso   1.000  H
  H1759    1.0000 0.77290  0.21310  0.40760  Biso   1.000  H
  H1760    1.0000 0.77290  0.78690  0.59240  Biso   1.000  H
  H1761    1.0000 0.90760  0.72710  0.78690  Biso   1.000  H
  H1762    1.0000 0.09240  0.72710  0.21310  Biso   1.000  H
  H1763    1.0000 0.90760  0.27290  0.21310  Biso   1.000  H
  H1764    1.0000 0.09240  0.27290  0.78690  Biso   1.000  H
  H1765    1.0000 0.40760  0.28690  0.22710  Biso   1.000  H
  H1766    1.0000 0.59240  0.71310  0.22710  Biso   1.000  H
  H1767    1.0000 0.40760  0.71310  0.77290  Biso   1.000  H
  H1768    1.0000 0.59240  0.28690  0.77290  Biso   1.000  H
  H1769    1.0000 0.78690  0.22710  0.90760  Biso   1.000  H
  H1770    1.0000 0.21310  0.22710  0.09240  Biso   1.000  H
  H1771    1.0000 0.21310  0.77290  0.90760  Biso   1.000  H
  H1772    1.0000 0.78690  0.77290  0.09240  Biso   1.000  H
  H1773    1.0000 0.72710  0.90760  0.28690  Biso   1.000  H
  H1774    1.0000 0.72710  0.09240  0.71310  Biso   1.000  H
  H1775    1.0000 0.27290  0.90760  0.71310  Biso   1.000  H
  H1776    1.0000 0.27290  0.09240  0.28690  Biso   1.000  H
  H1777    1.0000 0.78690  0.90760  0.72710  Biso   1.000  H
  H1778    1.0000 0.21310  0.09240  0.72710  Biso   1.000  H
  H1779    1.0000 0.21310  0.90760  0.27290  Biso   1.000  H
  H1780    1.0000 0.78690  0.09240  0.27290  Biso   1.000  H
  H1781    1.0000 0.72710  0.28690  0.40760  Biso   1.000  H
  H1782    1.0000 0.72710  0.71310  0.59240  Biso   1.000  H
  H1783    1.0000 0.27290  0.71310  0.40760  Biso   1.000  H
  H1784    1.0000 0.27290  0.28690  0.59240  Biso   1.000  H
  H1785    1.0000 0.40760  0.22710  0.78690  Biso   1.000  H
  H1786    1.0000 0.59240  0.22710  0.21310  Biso   1.000  H
  H1787    1.0000 0.40760  0.77290  0.21310  Biso   1.000  H
  H1788    1.0000 0.59240  0.77290  0.78690  Biso   1.000  H
  H1789    1.0000 0.90760  0.78690  0.22710  Biso   1.000  H
  H1790    1.0000 0.09240  0.21310  0.22710  Biso   1.000  H
  H1791    1.0000 0.90760  0.21310  0.77290  Biso   1.000  H
  H1792    1.0000 0.09240  0.78690  0.77290  Biso   1.000  H
  H1793    1.0000 0.28690  0.72710  0.90760  Biso   1.000  H
  H1794    1.0000 0.71310  0.72710  0.09240  Biso   1.000  H
  H1795    1.0000 0.71310  0.27290  0.90760  Biso   1.000  H
  H1796    1.0000 0.28690  0.27290  0.09240  Biso   1.000  H
  H1797    1.0000 0.22710  0.40760  0.28690  Biso   1.000  H
  H1798    1.0000 0.22710  0.59240  0.71310  Biso   1.000  H
  H1799    1.0000 0.77290  0.40760  0.71310  Biso   1.000  H
  H1800    1.0000 0.77290  0.59240  0.28690  Biso   1.000  H
  H1801    1.0000 0.78690  0.40760  0.22710  Biso   1.000  H
  H1802    1.0000 0.21310  0.59240  0.22710  Biso   1.000  H
  H1803    1.0000 0.21310  0.40760  0.77290  Biso   1.000  H
  H1804    1.0000 0.78690  0.59240  0.77290  Biso   1.000  H
  H1805    1.0000 0.72710  0.78690  0.90760  Biso   1.000  H
  H1806    1.0000 0.72710  0.21310  0.09240  Biso   1.000  H
  H1807    1.0000 0.27290  0.21310  0.90760  Biso   1.000  H
  H1808    1.0000 0.27290  0.78690  0.09240  Biso   1.000  H
  H1809    1.0000 0.40760  0.72710  0.28690  Biso   1.000  H
  H1810    1.0000 0.59240  0.72710  0.71310  Biso   1.000  H
  H1811    1.0000 0.40760  0.27290  0.71310  Biso   1.000  H
  H1812    1.0000 0.59240  0.27290  0.28690  Biso   1.000  H
  H1813    1.0000 0.90760  0.28690  0.72710  Biso   1.000  H
  H1814    1.0000 0.09240  0.71310  0.72710  Biso   1.000  H
  H1815    1.0000 0.90760  0.71310  0.27290  Biso   1.000  H
  H1816    1.0000 0.09240  0.28690  0.27290  Biso   1.000  H
  H1817    1.0000 0.28690  0.22710  0.40760  Biso   1.000  H
  H1818    1.0000 0.71310  0.22710  0.59240  Biso   1.000  H
  H1819    1.0000 0.71310  0.77290  0.40760  Biso   1.000  H
  H1820    1.0000 0.28690  0.77290  0.59240  Biso   1.000  H
  H1821    1.0000 0.22710  0.90760  0.78690  Biso   1.000  H
  H1822    1.0000 0.22710  0.09240  0.21310  Biso   1.000  H
  H1823    1.0000 0.77290  0.90760  0.21310  Biso   1.000  H
  H1824    1.0000 0.77290  0.09240  0.78690  Biso   1.000  H
  C1825    1.0000 0.29551  0.91585  0.19271  Biso   1.000  C
  C1826    1.0000 0.70449  0.08415  0.19271  Biso   1.000  C
  C1827    1.0000 0.70449  0.91585  0.80729  Biso   1.000  C
  C1828    1.0000 0.29551  0.08415  0.80729  Biso   1.000  C
  C1829    1.0000 0.19271  0.29551  0.91585  Biso   1.000  C
  C1830    1.0000 0.19271  0.70449  0.08415  Biso   1.000  C
  C1831    1.0000 0.80729  0.70449  0.91585  Biso   1.000  C
  C1832    1.0000 0.80729  0.29551  0.08415  Biso   1.000  C
  C1833    1.0000 0.91585  0.19271  0.29551  Biso   1.000  C
  C1834    1.0000 0.08415  0.19271  0.70449  Biso   1.000  C
  C1835    1.0000 0.91585  0.80729  0.70449  Biso   1.000  C
  C1836    1.0000 0.08415  0.80729  0.29551  Biso   1.000  C
  C1837    1.0000 0.41585  0.79551  0.69271  Biso   1.000  C
  C1838    1.0000 0.58415  0.20449  0.69271  Biso   1.000  C
  C1839    1.0000 0.41585  0.20449  0.30729  Biso   1.000  C
  C1840    1.0000 0.58415  0.79551  0.30729  Biso   1.000  C
  C1841    1.0000 0.79551  0.69271  0.41585  Biso   1.000  C
  C1842    1.0000 0.20449  0.69271  0.58415  Biso   1.000  C
  C1843    1.0000 0.20449  0.30729  0.41585  Biso   1.000  C
  C1844    1.0000 0.79551  0.30729  0.58415  Biso   1.000  C
  C1845    1.0000 0.69271  0.41585  0.79551  Biso   1.000  C
  C1846    1.0000 0.69271  0.58415  0.20449  Biso   1.000  C
  C1847    1.0000 0.30729  0.41585  0.20449  Biso   1.000  C
  C1848    1.0000 0.30729  0.58415  0.79551  Biso   1.000  C
  C1849    1.0000 0.29551  0.41585  0.69271  Biso   1.000  C
  C1850    1.0000 0.70449  0.58415  0.69271  Biso   1.000  C
  C1851    1.0000 0.70449  0.41585  0.30729  Biso   1.000  C
  C1852    1.0000 0.29551  0.58415  0.30729  Biso   1.000  C
  C1853    1.0000 0.19271  0.79551  0.41585  Biso   1.000  C
  C1854    1.0000 0.19271  0.20449  0.58415  Biso   1.000  C
  C1855    1.0000 0.80729  0.20449  0.41585  Biso   1.000  C
  C1856    1.0000 0.80729  0.79551  0.58415  Biso   1.000  C
  C1857    1.0000 0.91585  0.69271  0.79551  Biso   1.000  C
  C1858    1.0000 0.08415  0.69271  0.20449  Biso   1.000  C
  C1859    1.0000 0.91585  0.30729  0.20449  Biso   1.000  C
  C1860    1.0000 0.08415  0.30729  0.79551  Biso   1.000  C
  C1861    1.0000 0.41585  0.29551  0.19271  Biso   1.000  C
  C1862    1.0000 0.58415  0.70449  0.19271  Biso   1.000  C
  C1863    1.0000 0.41585  0.70449  0.80729  Biso   1.000  C
  C1864    1.0000 0.58415  0.29551  0.80729  Biso   1.000  C
  C1865    1.0000 0.79551  0.19271  0.91585  Biso   1.000  C
  C1866    1.0000 0.20449  0.19271  0.08415  Biso   1.000  C
  C1867    1.0000 0.20449  0.80729  0.91585  Biso   1.000  C
  C1868    1.0000 0.79551  0.80729  0.08415  Biso   1.000  C
  C1869    1.0000 0.69271  0.91585  0.29551  Biso   1.000  C
  C1870    1.0000 0.69271  0.08415  0.70449  Biso   1.000  C
  C1871    1.0000 0.30729  0.91585  0.70449  Biso   1.000  C
  C1872    1.0000 0.30729  0.08415  0.29551  Biso   1.000  C
  C1873    1.0000 0.79551  0.91585  0.69271  Biso   1.000  C
  C1874    1.0000 0.20449  0.08415  0.69271  Biso   1.000  C
  C1875    1.0000 0.20449  0.91585  0.30729  Biso   1.000  C
  C1876    1.0000 0.79551  0.08415  0.30729  Biso   1.000  C
  C1877    1.0000 0.69271  0.29551  0.41585  Biso   1.000  C
  C1878    1.0000 0.69271  0.70449  0.58415  Biso   1.000  C
  C1879    1.0000 0.30729  0.70449  0.41585  Biso   1.000  C
  C1880    1.0000 0.30729  0.29551  0.58415  Biso   1.000  C
  C1881    1.0000 0.41585  0.19271  0.79551  Biso   1.000  C
  C1882    1.0000 0.58415  0.19271  0.20449  Biso   1.000  C
  C1883    1.0000 0.41585  0.80729  0.20449  Biso   1.000  C
  C1884    1.0000 0.58415  0.80729  0.79551  Biso   1.000  C
  C1885    1.0000 0.91585  0.79551  0.19271  Biso   1.000  C
  C1886    1.0000 0.08415  0.20449  0.19271  Biso   1.000  C
  C1887    1.0000 0.91585  0.20449  0.80729  Biso   1.000  C
  C1888    1.0000 0.08415  0.79551  0.80729  Biso   1.000  C
  C1889    1.0000 0.29551  0.69271  0.91585  Biso   1.000  C
  C1890    1.0000 0.70449  0.69271  0.08415  Biso   1.000  C
  C1891    1.0000 0.70449  0.30729  0.91585  Biso   1.000  C
  C1892    1.0000 0.29551  0.30729  0.08415  Biso   1.000  C
  C1893    1.0000 0.19271  0.41585  0.29551  Biso   1.000  C
  C1894    1.0000 0.19271  0.58415  0.70449  Biso   1.000  C
  C1895    1.0000 0.80729  0.41585  0.70449  Biso   1.000  C
  C1896    1.0000 0.80729  0.58415  0.29551  Biso   1.000  C
  C1897    1.0000 0.79551  0.41585  0.19271  Biso   1.000  C
  C1898    1.0000 0.20449  0.58415  0.19271  Biso   1.000  C
  C1899    1.0000 0.20449  0.41585  0.80729  Biso   1.000  C
  C1900    1.0000 0.79551  0.58415  0.80729  Biso   1.000  C
  C1901    1.0000 0.69271  0.79551  0.91585  Biso   1.000  C
  C1902    1.0000 0.69271  0.20449  0.08415  Biso   1.000  C
  C1903    1.0000 0.30729  0.20449  0.91585  Biso   1.000  C
  C1904    1.0000 0.30729  0.79551  0.08415  Biso   1.000  C
  C1905    1.0000 0.41585  0.69271  0.29551  Biso   1.000  C
  C1906    1.0000 0.58415  0.69271  0.70449  Biso   1.000  C
  C1907    1.0000 0.41585  0.30729  0.70449  Biso   1.000  C
  C1908    1.0000 0.58415  0.30729  0.29551  Biso   1.000  C
  C1909    1.0000 0.91585  0.29551  0.69271  Biso   1.000  C
  C1910    1.0000 0.08415  0.70449  0.69271  Biso   1.000  C
  C1911    1.0000 0.91585  0.70449  0.30729  Biso   1.000  C
  C1912    1.0000 0.08415  0.29551  0.30729  Biso   1.000  C
  C1913    1.0000 0.29551  0.19271  0.41585  Biso   1.000  C
  C1914    1.0000 0.70449  0.19271  0.58415  Biso   1.000  C
  C1915    1.0000 0.70449  0.80729  0.41585  Biso   1.000  C
  C1916    1.0000 0.29551  0.80729  0.58415  Biso   1.000  C
  C1917    1.0000 0.19271  0.91585  0.79551  Biso   1.000  C
  C1918    1.0000 0.19271  0.08415  0.20449  Biso   1.000  C
  C1919    1.0000 0.80729  0.91585  0.20449  Biso   1.000  C
  C1920    1.0000 0.80729  0.08415  0.79551  Biso   1.000  C
  H1825    1.0000 0.30660  0.90320  0.19040  Biso   1.000  H
  H1826    1.0000 0.69340  0.09680  0.19040  Biso   1.000  H
  H1827    1.0000 0.69340  0.90320  0.80960  Biso   1.000  H
  H1828    1.0000 0.30660  0.09680  0.80960  Biso   1.000  H
  H1829    1.0000 0.19040  0.30660  0.90320  Biso   1.000  H
  H1830    1.0000 0.19040  0.69340  0.09680  Biso   1.000  H
  H1831    1.0000 0.80960  0.69340  0.90320  Biso   1.000  H
  H1832    1.0000 0.80960  0.30660  0.09680  Biso   1.000  H
  H1833    1.0000 0.90320  0.19040  0.30660  Biso   1.000  H
  H1834    1.0000 0.09680  0.19040  0.69340  Biso   1.000  H
  H1835    1.0000 0.90320  0.80960  0.69340  Biso   1.000  H
  H1836    1.0000 0.09680  0.80960  0.30660  Biso   1.000  H
  H1837    1.0000 0.40320  0.80660  0.69040  Biso   1.000  H
  H1838    1.0000 0.59680  0.19340  0.69040  Biso   1.000  H
  H1839    1.0000 0.40320  0.19340  0.30960  Biso   1.000  H
  H1840    1.0000 0.59680  0.80660  0.30960  Biso   1.000  H
  H1841    1.0000 0.80660  0.69040  0.40320  Biso   1.000  H
  H1842    1.0000 0.19340  0.69040  0.59680  Biso   1.000  H
  H1843    1.0000 0.19340  0.30960  0.40320  Biso   1.000  H
  H1844    1.0000 0.80660  0.30960  0.59680  Biso   1.000  H
  H1845    1.0000 0.69040  0.40320  0.80660  Biso   1.000  H
  H1846    1.0000 0.69040  0.59680  0.19340  Biso   1.000  H
  H1847    1.0000 0.30960  0.40320  0.19340  Biso   1.000  H
  H1848    1.0000 0.30960  0.59680  0.80660  Biso   1.000  H
  H1849    1.0000 0.30660  0.40320  0.69040  Biso   1.000  H
  H1850    1.0000 0.69340  0.59680  0.69040  Biso   1.000  H
  H1851    1.0000 0.69340  0.40320  0.30960  Biso   1.000  H
  H1852    1.0000 0.30660  0.59680  0.30960  Biso   1.000  H
  H1853    1.0000 0.19040  0.80660  0.40320  Biso   1.000  H
  H1854    1.0000 0.19040  0.19340  0.59680  Biso   1.000  H
  H1855    1.0000 0.80960  0.19340  0.40320  Biso   1.000  H
  H1856    1.0000 0.80960  0.80660  0.59680  Biso   1.000  H
  H1857    1.0000 0.90320  0.69040  0.80660  Biso   1.000  H
  H1858    1.0000 0.09680  0.69040  0.19340  Biso   1.000  H
  H1859    1.0000 0.90320  0.30960  0.19340  Biso   1.000  H
  H1860    1.0000 0.09680  0.30960  0.80660  Biso   1.000  H
  H1861    1.0000 0.40320  0.30660  0.19040  Biso   1.000  H
  H1862    1.0000 0.59680  0.69340  0.19040  Biso   1.000  H
  H1863    1.0000 0.40320  0.69340  0.80960  Biso   1.000  H
  H1864    1.0000 0.59680  0.30660  0.80960  Biso   1.000  H
  H1865    1.0000 0.80660  0.19040  0.90320  Biso   1.000  H
  H1866    1.0000 0.19340  0.19040  0.09680  Biso   1.000  H
  H1867    1.0000 0.19340  0.80960  0.90320  Biso   1.000  H
  H1868    1.0000 0.80660  0.80960  0.09680  Biso   1.000  H
  H1869    1.0000 0.69040  0.90320  0.30660  Biso   1.000  H
  H1870    1.0000 0.69040  0.09680  0.69340  Biso   1.000  H
  H1871    1.0000 0.30960  0.90320  0.69340  Biso   1.000  H
  H1872    1.0000 0.30960  0.09680  0.30660  Biso   1.000  H
  H1873    1.0000 0.80660  0.90320  0.69040  Biso   1.000  H
  H1874    1.0000 0.19340  0.09680  0.69040  Biso   1.000  H
  H1875    1.0000 0.19340  0.90320  0.30960  Biso   1.000  H
  H1876    1.0000 0.80660  0.09680  0.30960  Biso   1.000  H
  H1877    1.0000 0.69040  0.30660  0.40320  Biso   1.000  H
  H1878    1.0000 0.69040  0.69340  0.59680  Biso   1.000  H
  H1879    1.0000 0.30960  0.69340  0.40320  Biso   1.000  H
  H1880    1.0000 0.30960  0.30660  0.59680  Biso   1.000  H
  H1881    1.0000 0.40320  0.19040  0.80660  Biso   1.000  H
  H1882    1.0000 0.59680  0.19040  0.19340  Biso   1.000  H
  H1883    1.0000 0.40320  0.80960  0.19340  Biso   1.000  H
  H1884    1.0000 0.59680  0.80960  0.80660  Biso   1.000  H
  H1885    1.0000 0.90320  0.80660  0.19040  Biso   1.000  H
  H1886    1.0000 0.09680  0.19340  0.19040  Biso   1.000  H
  H1887    1.0000 0.90320  0.19340  0.80960  Biso   1.000  H
  H1888    1.0000 0.09680  0.80660  0.80960  Biso   1.000  H
  H1889    1.0000 0.30660  0.69040  0.90320  Biso   1.000  H
  H1890    1.0000 0.69340  0.69040  0.09680  Biso   1.000  H
  H1891    1.0000 0.69340  0.30960  0.90320  Biso   1.000  H
  H1892    1.0000 0.30660  0.30960  0.09680  Biso   1.000  H
  H1893    1.0000 0.19040  0.40320  0.30660  Biso   1.000  H
  H1894    1.0000 0.19040  0.59680  0.69340  Biso   1.000  H
  H1895    1.0000 0.80960  0.40320  0.69340  Biso   1.000  H
  H1896    1.0000 0.80960  0.59680  0.30660  Biso   1.000  H
  H1897    1.0000 0.80660  0.40320  0.19040  Biso   1.000  H
  H1898    1.0000 0.19340  0.59680  0.19040  Biso   1.000  H
  H1899    1.0000 0.19340  0.40320  0.80960  Biso   1.000  H
  H1900    1.0000 0.80660  0.59680  0.80960  Biso   1.000  H
  H1901    1.0000 0.69040  0.80660  0.90320  Biso   1.000  H
  H1902    1.0000 0.69040  0.19340  0.09680  Biso   1.000  H
  H1903    1.0000 0.30960  0.19340  0.90320  Biso   1.000  H
  H1904    1.0000 0.30960  0.80660  0.09680  Biso   1.000  H
  H1905    1.0000 0.40320  0.69040  0.30660  Biso   1.000  H
  H1906    1.0000 0.59680  0.69040  0.69340  Biso   1.000  H
  H1907    1.0000 0.40320  0.30960  0.69340  Biso   1.000  H
  H1908    1.0000 0.59680  0.30960  0.30660  Biso   1.000  H
  H1909    1.0000 0.90320  0.30660  0.69040  Biso   1.000  H
  H1910    1.0000 0.09680  0.69340  0.69040  Biso   1.000  H
  H1911    1.0000 0.90320  0.69340  0.30960  Biso   1.000  H
  H1912    1.0000 0.09680  0.30660  0.30960  Biso   1.000  H
  H1913    1.0000 0.30660  0.19040  0.40320  Biso   1.000  H
  H1914    1.0000 0.69340  0.19040  0.59680  Biso   1.000  H
  H1915    1.0000 0.69340  0.80960  0.40320  Biso   1.000  H
  H1916    1.0000 0.30660  0.80960  0.59680  Biso   1.000  H
  H1917    1.0000 0.19040  0.90320  0.80660  Biso   1.000  H
  H1918    1.0000 0.19040  0.09680  0.19340  Biso   1.000  H
  H1919    1.0000 0.80960  0.90320  0.19340  Biso   1.000  H
  H1920    1.0000 0.80960  0.09680  0.80660  Biso   1.000  H
  C1921    1.0000 0.29061  0.93191  0.17445  Biso   1.000  C
  C1922    1.0000 0.70939  0.06809  0.17445  Biso   1.000  C
  C1923    1.0000 0.70939  0.93191  0.82555  Biso   1.000  C
  C1924    1.0000 0.29061  0.06809  0.82555  Biso   1.000  C
  C1925    1.0000 0.17445  0.29061  0.93191  Biso   1.000  C
  C1926    1.0000 0.17445  0.70939  0.06809  Biso   1.000  C
  C1927    1.0000 0.82555  0.70939  0.93191  Biso   1.000  C
  C1928    1.0000 0.82555  0.29061  0.06809  Biso   1.000  C
  C1929    1.0000 0.93191  0.17445  0.29061  Biso   1.000  C
  C1930    1.0000 0.06809  0.17445  0.70939  Biso   1.000  C
  C1931    1.0000 0.93191  0.82555  0.70939  Biso   1.000  C
  C1932    1.0000 0.06809  0.82555  0.29061  Biso   1.000  C
  C1933    1.0000 0.43191  0.79061  0.67445  Biso   1.000  C
  C1934    1.0000 0.56809  0.20939  0.67445  Biso   1.000  C
  C1935    1.0000 0.43191  0.20939  0.32555  Biso   1.000  C
  C1936    1.0000 0.56809  0.79061  0.32555  Biso   1.000  C
  C1937    1.0000 0.79061  0.67445  0.43191  Biso   1.000  C
  C1938    1.0000 0.20939  0.67445  0.56809  Biso   1.000  C
  C1939    1.0000 0.20939  0.32555  0.43191  Biso   1.000  C
  C1940    1.0000 0.79061  0.32555  0.56809  Biso   1.000  C
  C1941    1.0000 0.67445  0.43191  0.79061  Biso   1.000  C
  C1942    1.0000 0.67445  0.56809  0.20939  Biso   1.000  C
  C1943    1.0000 0.32555  0.43191  0.20939  Biso   1.000  C
  C1944    1.0000 0.32555  0.56809  0.79061  Biso   1.000  C
  C1945    1.0000 0.29061  0.43191  0.67445  Biso   1.000  C
  C1946    1.0000 0.70939  0.56809  0.67445  Biso   1.000  C
  C1947    1.0000 0.70939  0.43191  0.32555  Biso   1.000  C
  C1948    1.0000 0.29061  0.56809  0.32555  Biso   1.000  C
  C1949    1.0000 0.17445  0.79061  0.43191  Biso   1.000  C
  C1950    1.0000 0.17445  0.20939  0.56809  Biso   1.000  C
  C1951    1.0000 0.82555  0.20939  0.43191  Biso   1.000  C
  C1952    1.0000 0.82555  0.79061  0.56809  Biso   1.000  C
  C1953    1.0000 0.93191  0.67445  0.79061  Biso   1.000  C
  C1954    1.0000 0.06809  0.67445  0.20939  Biso   1.000  C
  C1955    1.0000 0.93191  0.32555  0.20939  Biso   1.000  C
  C1956    1.0000 0.06809  0.32555  0.79061  Biso   1.000  C
  C1957    1.0000 0.43191  0.29061  0.17445  Biso   1.000  C
  C1958    1.0000 0.56809  0.70939  0.17445  Biso   1.000  C
  C1959    1.0000 0.43191  0.70939  0.82555  Biso   1.000  C
  C1960    1.0000 0.56809  0.29061  0.82555  Biso   1.000  C
  C1961    1.0000 0.79061  0.17445  0.93191  Biso   1.000  C
  C1962    1.0000 0.20939  0.17445  0.06809  Biso   1.000  C
  C1963    1.0000 0.20939  0.82555  0.93191  Biso   1.000  C
  C1964    1.0000 0.79061  0.82555  0.06809  Biso   1.000  C
  C1965    1.0000 0.67445  0.93191  0.29061  Biso   1.000  C
  C1966    1.0000 0.67445  0.06809  0.70939  Biso   1.000  C
  C1967    1.0000 0.32555  0.93191  0.70939  Biso   1.000  C
  C1968    1.0000 0.32555  0.06809  0.29061  Biso   1.000  C
  C1969    1.0000 0.79061  0.93191  0.67445  Biso   1.000  C
  C1970    1.0000 0.20939  0.06809  0.67445  Biso   1.000  C
  C1971    1.0000 0.20939  0.93191  0.32555  Biso   1.000  C
  C1972    1.0000 0.79061  0.06809  0.32555  Biso   1.000  C
  C1973    1.0000 0.67445  0.29061  0.43191  Biso   1.000  C
  C1974    1.0000 0.67445  0.70939  0.56809  Biso   1.000  C
  C1975    1.0000 0.32555  0.70939  0.43191  Biso   1.000  C
  C1976    1.0000 0.32555  0.29061  0.56809  Biso   1.000  C
  C1977    1.0000 0.43191  0.17445  0.79061  Biso   1.000  C
  C1978    1.0000 0.56809  0.17445  0.20939  Biso   1.000  C
  C1979    1.0000 0.43191  0.82555  0.20939  Biso   1.000  C
  C1980    1.0000 0.56809  0.82555  0.79061  Biso   1.000  C
  C1981    1.0000 0.93191  0.79061  0.17445  Biso   1.000  C
  C1982    1.0000 0.06809  0.20939  0.17445  Biso   1.000  C
  C1983    1.0000 0.93191  0.20939  0.82555  Biso   1.000  C
  C1984    1.0000 0.06809  0.79061  0.82555  Biso   1.000  C
  C1985    1.0000 0.29061  0.67445  0.93191  Biso   1.000  C
  C1986    1.0000 0.70939  0.67445  0.06809  Biso   1.000  C
  C1987    1.0000 0.70939  0.32555  0.93191  Biso   1.000  C
  C1988    1.0000 0.29061  0.32555  0.06809  Biso   1.000  C
  C1989    1.0000 0.17445  0.43191  0.29061  Biso   1.000  C
  C1990    1.0000 0.17445  0.56809  0.70939  Biso   1.000  C
  C1991    1.0000 0.82555  0.43191  0.70939  Biso   1.000  C
  C1992    1.0000 0.82555  0.56809  0.29061  Biso   1.000  C
  C1993    1.0000 0.79061  0.43191  0.17445  Biso   1.000  C
  C1994    1.0000 0.20939  0.56809  0.17445  Biso   1.000  C
  C1995    1.0000 0.20939  0.43191  0.82555  Biso   1.000  C
  C1996    1.0000 0.79061  0.56809  0.82555  Biso   1.000  C
  C1997    1.0000 0.67445  0.79061  0.93191  Biso   1.000  C
  C1998    1.0000 0.67445  0.20939  0.06809  Biso   1.000  C
  C1999    1.0000 0.32555  0.20939  0.93191  Biso   1.000  C
  C2000    1.0000 0.32555  0.79061  0.06809  Biso   1.000  C
  C2001    1.0000 0.43191  0.67445  0.29061  Biso   1.000  C
  C2002    1.0000 0.56809  0.67445  0.70939  Biso   1.000  C
  C2003    1.0000 0.43191  0.32555  0.70939  Biso   1.000  C
  C2004    1.0000 0.56809  0.32555  0.29061  Biso   1.000  C
  C2005    1.0000 0.93191  0.29061  0.67445  Biso   1.000  C
  C2006    1.0000 0.06809  0.70939  0.67445  Biso   1.000  C
  C2007    1.0000 0.93191  0.70939  0.32555  Biso   1.000  C
  C2008    1.0000 0.06809  0.29061  0.32555  Biso   1.000  C
  C2009    1.0000 0.29061  0.17445  0.43191  Biso   1.000  C
  C2010    1.0000 0.70939  0.17445  0.56809  Biso   1.000  C
  C2011    1.0000 0.70939  0.82555  0.43191  Biso   1.000  C
  C2012    1.0000 0.29061  0.82555  0.56809  Biso   1.000  C
  C2013    1.0000 0.17445  0.93191  0.79061  Biso   1.000  C
  C2014    1.0000 0.17445  0.06809  0.20939  Biso   1.000  C
  C2015    1.0000 0.82555  0.93191  0.20939  Biso   1.000  C
  C2016    1.0000 0.82555  0.06809  0.79061  Biso   1.000  C
  C2017    1.0000 0.27494  0.95033  0.17939  Biso   1.000  C
  C2018    1.0000 0.72506  0.04967  0.17939  Biso   1.000  C
  C2019    1.0000 0.72506  0.95033  0.82061  Biso   1.000  C
  C2020    1.0000 0.27494  0.04967  0.82061  Biso   1.000  C
  C2021    1.0000 0.17939  0.27494  0.95033  Biso   1.000  C
  C2022    1.0000 0.17939  0.72506  0.04967  Biso   1.000  C
  C2023    1.0000 0.82061  0.72506  0.95033  Biso   1.000  C
  C2024    1.0000 0.82061  0.27494  0.04967  Biso   1.000  C
  C2025    1.0000 0.95033  0.17939  0.27494  Biso   1.000  C
  C2026    1.0000 0.04967  0.17939  0.72506  Biso   1.000  C
  C2027    1.0000 0.95033  0.82061  0.72506  Biso   1.000  C
  C2028    1.0000 0.04967  0.82061  0.27494  Biso   1.000  C
  C2029    1.0000 0.45033  0.77494  0.67939  Biso   1.000  C
  C2030    1.0000 0.54967  0.22506  0.67939  Biso   1.000  C
  C2031    1.0000 0.45033  0.22506  0.32061  Biso   1.000  C
  C2032    1.0000 0.54967  0.77494  0.32061  Biso   1.000  C
  C2033    1.0000 0.77494  0.67939  0.45033  Biso   1.000  C
  C2034    1.0000 0.22506  0.67939  0.54967  Biso   1.000  C
  C2035    1.0000 0.22506  0.32061  0.45033  Biso   1.000  C
  C2036    1.0000 0.77494  0.32061  0.54967  Biso   1.000  C
  C2037    1.0000 0.67939  0.45033  0.77494  Biso   1.000  C
  C2038    1.0000 0.67939  0.54967  0.22506  Biso   1.000  C
  C2039    1.0000 0.32061  0.45033  0.22506  Biso   1.000  C
  C2040    1.0000 0.32061  0.54967  0.77494  Biso   1.000  C
  C2041    1.0000 0.27494  0.45033  0.67939  Biso   1.000  C
  C2042    1.0000 0.72506  0.54967  0.67939  Biso   1.000  C
  C2043    1.0000 0.72506  0.45033  0.32061  Biso   1.000  C
  C2044    1.0000 0.27494  0.54967  0.32061  Biso   1.000  C
  C2045    1.0000 0.17939  0.77494  0.45033  Biso   1.000  C
  C2046    1.0000 0.17939  0.22506  0.54967  Biso   1.000  C
  C2047    1.0000 0.82061  0.22506  0.45033  Biso   1.000  C
  C2048    1.0000 0.82061  0.77494  0.54967  Biso   1.000  C
  C2049    1.0000 0.95033  0.67939  0.77494  Biso   1.000  C
  C2050    1.0000 0.04967  0.67939  0.22506  Biso   1.000  C
  C2051    1.0000 0.95033  0.32061  0.22506  Biso   1.000  C
  C2052    1.0000 0.04967  0.32061  0.77494  Biso   1.000  C
  C2053    1.0000 0.45033  0.27494  0.17939  Biso   1.000  C
  C2054    1.0000 0.54967  0.72506  0.17939  Biso   1.000  C
  C2055    1.0000 0.45033  0.72506  0.82061  Biso   1.000  C
  C2056    1.0000 0.54967  0.27494  0.82061  Biso   1.000  C
  C2057    1.0000 0.77494  0.17939  0.95033  Biso   1.000  C
  C2058    1.0000 0.22506  0.17939  0.04967  Biso   1.000  C
  C2059    1.0000 0.22506  0.82061  0.95033  Biso   1.000  C
  C2060    1.0000 0.77494  0.82061  0.04967  Biso   1.000  C
  C2061    1.0000 0.67939  0.95033  0.27494  Biso   1.000  C
  C2062    1.0000 0.67939  0.04967  0.72506  Biso   1.000  C
  C2063    1.0000 0.32061  0.95033  0.72506  Biso   1.000  C
  C2064    1.0000 0.32061  0.04967  0.27494  Biso   1.000  C
  C2065    1.0000 0.77494  0.95033  0.67939  Biso   1.000  C
  C2066    1.0000 0.22506  0.04967  0.67939  Biso   1.000  C
  C2067    1.0000 0.22506  0.95033  0.32061  Biso   1.000  C
  C2068    1.0000 0.77494  0.04967  0.32061  Biso   1.000  C
  C2069    1.0000 0.67939  0.27494  0.45033  Biso   1.000  C
  C2070    1.0000 0.67939  0.72506  0.54967  Biso   1.000  C
  C2071    1.0000 0.32061  0.72506  0.45033  Biso   1.000  C
  C2072    1.0000 0.32061  0.27494  0.54967  Biso   1.000  C
  C2073    1.0000 0.45033  0.17939  0.77494  Biso   1.000  C
  C2074    1.0000 0.54967  0.17939  0.22506  Biso   1.000  C
  C2075    1.0000 0.45033  0.82061  0.22506  Biso   1.000  C
  C2076    1.0000 0.54967  0.82061  0.77494  Biso   1.000  C
  C2077    1.0000 0.95033  0.77494  0.17939  Biso   1.000  C
  C2078    1.0000 0.04967  0.22506  0.17939  Biso   1.000  C
  C2079    1.0000 0.95033  0.22506  0.82061  Biso   1.000  C
  C2080    1.0000 0.04967  0.77494  0.82061  Biso   1.000  C
  C2081    1.0000 0.27494  0.67939  0.95033  Biso   1.000  C
  C2082    1.0000 0.72506  0.67939  0.04967  Biso   1.000  C
  C2083    1.0000 0.72506  0.32061  0.95033  Biso   1.000  C
  C2084    1.0000 0.27494  0.32061  0.04967  Biso   1.000  C
  C2085    1.0000 0.17939  0.45033  0.27494  Biso   1.000  C
  C2086    1.0000 0.17939  0.54967  0.72506  Biso   1.000  C
  C2087    1.0000 0.82061  0.45033  0.72506  Biso   1.000  C
  C2088    1.0000 0.82061  0.54967  0.27494  Biso   1.000  C
  C2089    1.0000 0.77494  0.45033  0.17939  Biso   1.000  C
  C2090    1.0000 0.22506  0.54967  0.17939  Biso   1.000  C
  C2091    1.0000 0.22506  0.45033  0.82061  Biso   1.000  C
  C2092    1.0000 0.77494  0.54967  0.82061  Biso   1.000  C
  C2093    1.0000 0.67939  0.77494  0.95033  Biso   1.000  C
  C2094    1.0000 0.67939  0.22506  0.04967  Biso   1.000  C
  C2095    1.0000 0.32061  0.22506  0.95033  Biso   1.000  C
  C2096    1.0000 0.32061  0.77494  0.04967  Biso   1.000  C
  C2097    1.0000 0.45033  0.67939  0.27494  Biso   1.000  C
  C2098    1.0000 0.54967  0.67939  0.72506  Biso   1.000  C
  C2099    1.0000 0.45033  0.32061  0.72506  Biso   1.000  C
  C2100    1.0000 0.54967  0.32061  0.27494  Biso   1.000  C
  C2101    1.0000 0.95033  0.27494  0.67939  Biso   1.000  C
  C2102    1.0000 0.04967  0.72506  0.67939  Biso   1.000  C
  C2103    1.0000 0.95033  0.72506  0.32061  Biso   1.000  C
  C2104    1.0000 0.04967  0.27494  0.32061  Biso   1.000  C
  C2105    1.0000 0.27494  0.17939  0.45033  Biso   1.000  C
  C2106    1.0000 0.72506  0.17939  0.54967  Biso   1.000  C
  C2107    1.0000 0.72506  0.82061  0.45033  Biso   1.000  C
  C2108    1.0000 0.27494  0.82061  0.54967  Biso   1.000  C
  C2109    1.0000 0.17939  0.95033  0.77494  Biso   1.000  C
  C2110    1.0000 0.17939  0.04967  0.22506  Biso   1.000  C
  C2111    1.0000 0.82061  0.95033  0.22506  Biso   1.000  C
  C2112    1.0000 0.82061  0.04967  0.77494  Biso   1.000  C
  H1921    1.0000 0.27150  0.96200  0.16750  Biso   1.000  H
  H1922    1.0000 0.72850  0.03800  0.16750  Biso   1.000  H
  H1923    1.0000 0.72850  0.96200  0.83250  Biso   1.000  H
  H1924    1.0000 0.27150  0.03800  0.83250  Biso   1.000  H
  H1925    1.0000 0.16750  0.27150  0.96200  Biso   1.000  H
  H1926    1.0000 0.16750  0.72850  0.03800  Biso   1.000  H
  H1927    1.0000 0.83250  0.72850  0.96200  Biso   1.000  H
  H1928    1.0000 0.83250  0.27150  0.03800  Biso   1.000  H
  H1929    1.0000 0.96200  0.16750  0.27150  Biso   1.000  H
  H1930    1.0000 0.03800  0.16750  0.72850  Biso   1.000  H
  H1931    1.0000 0.96200  0.83250  0.72850  Biso   1.000  H
  H1932    1.0000 0.03800  0.83250  0.27150  Biso   1.000  H
  H1933    1.0000 0.46200  0.77150  0.66750  Biso   1.000  H
  H1934    1.0000 0.53800  0.22850  0.66750  Biso   1.000  H
  H1935    1.0000 0.46200  0.22850  0.33250  Biso   1.000  H
  H1936    1.0000 0.53800  0.77150  0.33250  Biso   1.000  H
  H1937    1.0000 0.77150  0.66750  0.46200  Biso   1.000  H
  H1938    1.0000 0.22850  0.66750  0.53800  Biso   1.000  H
  H1939    1.0000 0.22850  0.33250  0.46200  Biso   1.000  H
  H1940    1.0000 0.77150  0.33250  0.53800  Biso   1.000  H
  H1941    1.0000 0.66750  0.46200  0.77150  Biso   1.000  H
  H1942    1.0000 0.66750  0.53800  0.22850  Biso   1.000  H
  H1943    1.0000 0.33250  0.46200  0.22850  Biso   1.000  H
  H1944    1.0000 0.33250  0.53800  0.77150  Biso   1.000  H
  H1945    1.0000 0.27150  0.46200  0.66750  Biso   1.000  H
  H1946    1.0000 0.72850  0.53800  0.66750  Biso   1.000  H
  H1947    1.0000 0.72850  0.46200  0.33250  Biso   1.000  H
  H1948    1.0000 0.27150  0.53800  0.33250  Biso   1.000  H
  H1949    1.0000 0.16750  0.77150  0.46200  Biso   1.000  H
  H1950    1.0000 0.16750  0.22850  0.53800  Biso   1.000  H
  H1951    1.0000 0.83250  0.22850  0.46200  Biso   1.000  H
  H1952    1.0000 0.83250  0.77150  0.53800  Biso   1.000  H
  H1953    1.0000 0.96200  0.66750  0.77150  Biso   1.000  H
  H1954    1.0000 0.03800  0.66750  0.22850  Biso   1.000  H
  H1955    1.0000 0.96200  0.33250  0.22850  Biso   1.000  H
  H1956    1.0000 0.03800  0.33250  0.77150  Biso   1.000  H
  H1957    1.0000 0.46200  0.27150  0.16750  Biso   1.000  H
  H1958    1.0000 0.53800  0.72850  0.16750  Biso   1.000  H
  H1959    1.0000 0.46200  0.72850  0.83250  Biso   1.000  H
  H1960    1.0000 0.53800  0.27150  0.83250  Biso   1.000  H
  H1961    1.0000 0.77150  0.16750  0.96200  Biso   1.000  H
  H1962    1.0000 0.22850  0.16750  0.03800  Biso   1.000  H
  H1963    1.0000 0.22850  0.83250  0.96200  Biso   1.000  H
  H1964    1.0000 0.77150  0.83250  0.03800  Biso   1.000  H
  H1965    1.0000 0.66750  0.96200  0.27150  Biso   1.000  H
  H1966    1.0000 0.66750  0.03800  0.72850  Biso   1.000  H
  H1967    1.0000 0.33250  0.96200  0.72850  Biso   1.000  H
  H1968    1.0000 0.33250  0.03800  0.27150  Biso   1.000  H
  H1969    1.0000 0.77150  0.96200  0.66750  Biso   1.000  H
  H1970    1.0000 0.22850  0.03800  0.66750  Biso   1.000  H
  H1971    1.0000 0.22850  0.96200  0.33250  Biso   1.000  H
  H1972    1.0000 0.77150  0.03800  0.33250  Biso   1.000  H
  H1973    1.0000 0.66750  0.27150  0.46200  Biso   1.000  H
  H1974    1.0000 0.66750  0.72850  0.53800  Biso   1.000  H
  H1975    1.0000 0.33250  0.72850  0.46200  Biso   1.000  H
  H1976    1.0000 0.33250  0.27150  0.53800  Biso   1.000  H
  H1977    1.0000 0.46200  0.16750  0.77150  Biso   1.000  H
  H1978    1.0000 0.53800  0.16750  0.22850  Biso   1.000  H
  H1979    1.0000 0.46200  0.83250  0.22850  Biso   1.000  H
  H1980    1.0000 0.53800  0.83250  0.77150  Biso   1.000  H
  H1981    1.0000 0.96200  0.77150  0.16750  Biso   1.000  H
  H1982    1.0000 0.03800  0.22850  0.16750  Biso   1.000  H
  H1983    1.0000 0.96200  0.22850  0.83250  Biso   1.000  H
  H1984    1.0000 0.03800  0.77150  0.83250  Biso   1.000  H
  H1985    1.0000 0.27150  0.66750  0.96200  Biso   1.000  H
  H1986    1.0000 0.72850  0.66750  0.03800  Biso   1.000  H
  H1987    1.0000 0.72850  0.33250  0.96200  Biso   1.000  H
  H1988    1.0000 0.27150  0.33250  0.03800  Biso   1.000  H
  H1989    1.0000 0.16750  0.46200  0.27150  Biso   1.000  H
  H1990    1.0000 0.16750  0.53800  0.72850  Biso   1.000  H
  H1991    1.0000 0.83250  0.46200  0.72850  Biso   1.000  H
  H1992    1.0000 0.83250  0.53800  0.27150  Biso   1.000  H
  H1993    1.0000 0.77150  0.46200  0.16750  Biso   1.000  H
  H1994    1.0000 0.22850  0.53800  0.16750  Biso   1.000  H
  H1995    1.0000 0.22850  0.46200  0.83250  Biso   1.000  H
  H1996    1.0000 0.77150  0.53800  0.83250  Biso   1.000  H
  H1997    1.0000 0.66750  0.77150  0.96200  Biso   1.000  H
  H1998    1.0000 0.66750  0.22850  0.03800  Biso   1.000  H
  H1999    1.0000 0.33250  0.22850  0.96200  Biso   1.000  H
  H2000    1.0000 0.33250  0.77150  0.03800  Biso   1.000  H
  H2001    1.0000 0.46200  0.66750  0.27150  Biso   1.000  H
  H2002    1.0000 0.53800  0.66750  0.72850  Biso   1.000  H
  H2003    1.0000 0.46200  0.33250  0.72850  Biso   1.000  H
  H2004    1.0000 0.53800  0.33250  0.27150  Biso   1.000  H
  H2005    1.0000 0.96200  0.27150  0.66750  Biso   1.000  H
  H2006    1.0000 0.03800  0.72850  0.66750  Biso   1.000  H
  H2007    1.0000 0.96200  0.72850  0.33250  Biso   1.000  H
  H2008    1.0000 0.03800  0.27150  0.33250  Biso   1.000  H
  H2009    1.0000 0.27150  0.16750  0.46200  Biso   1.000  H
  H2010    1.0000 0.72850  0.16750  0.53800  Biso   1.000  H
  H2011    1.0000 0.72850  0.83250  0.46200  Biso   1.000  H
  H2012    1.0000 0.27150  0.83250  0.53800  Biso   1.000  H
  H2013    1.0000 0.16750  0.96200  0.77150  Biso   1.000  H
  H2014    1.0000 0.16750  0.03800  0.22850  Biso   1.000  H
  H2015    1.0000 0.83250  0.96200  0.22850  Biso   1.000  H
  H2016    1.0000 0.83250  0.03800  0.77150  Biso   1.000  H
  C2113    1.0000 0.26443  0.95173  0.20153  Biso   1.000  C
  C2114    1.0000 0.73557  0.04827  0.20153  Biso   1.000  C
  C2115    1.0000 0.73557  0.95173  0.79847  Biso   1.000  C
  C2116    1.0000 0.26443  0.04827  0.79847  Biso   1.000  C
  C2117    1.0000 0.20153  0.26443  0.95173  Biso   1.000  C
  C2118    1.0000 0.20153  0.73557  0.04827  Biso   1.000  C
  C2119    1.0000 0.79847  0.73557  0.95173  Biso   1.000  C
  C2120    1.0000 0.79847  0.26443  0.04827  Biso   1.000  C
  C2121    1.0000 0.95173  0.20153  0.26443  Biso   1.000  C
  C2122    1.0000 0.04827  0.20153  0.73557  Biso   1.000  C
  C2123    1.0000 0.95173  0.79847  0.73557  Biso   1.000  C
  C2124    1.0000 0.04827  0.79847  0.26443  Biso   1.000  C
  C2125    1.0000 0.45173  0.76443  0.70153  Biso   1.000  C
  C2126    1.0000 0.54827  0.23557  0.70153  Biso   1.000  C
  C2127    1.0000 0.45173  0.23557  0.29847  Biso   1.000  C
  C2128    1.0000 0.54827  0.76443  0.29847  Biso   1.000  C
  C2129    1.0000 0.76443  0.70153  0.45173  Biso   1.000  C
  C2130    1.0000 0.23557  0.70153  0.54827  Biso   1.000  C
  C2131    1.0000 0.23557  0.29847  0.45173  Biso   1.000  C
  C2132    1.0000 0.76443  0.29847  0.54827  Biso   1.000  C
  C2133    1.0000 0.70153  0.45173  0.76443  Biso   1.000  C
  C2134    1.0000 0.70153  0.54827  0.23557  Biso   1.000  C
  C2135    1.0000 0.29847  0.45173  0.23557  Biso   1.000  C
  C2136    1.0000 0.29847  0.54827  0.76443  Biso   1.000  C
  C2137    1.0000 0.26443  0.45173  0.70153  Biso   1.000  C
  C2138    1.0000 0.73557  0.54827  0.70153  Biso   1.000  C
  C2139    1.0000 0.73557  0.45173  0.29847  Biso   1.000  C
  C2140    1.0000 0.26443  0.54827  0.29847  Biso   1.000  C
  C2141    1.0000 0.20153  0.76443  0.45173  Biso   1.000  C
  C2142    1.0000 0.20153  0.23557  0.54827  Biso   1.000  C
  C2143    1.0000 0.79847  0.23557  0.45173  Biso   1.000  C
  C2144    1.0000 0.79847  0.76443  0.54827  Biso   1.000  C
  C2145    1.0000 0.95173  0.70153  0.76443  Biso   1.000  C
  C2146    1.0000 0.04827  0.70153  0.23557  Biso   1.000  C
  C2147    1.0000 0.95173  0.29847  0.23557  Biso   1.000  C
  C2148    1.0000 0.04827  0.29847  0.76443  Biso   1.000  C
  C2149    1.0000 0.45173  0.26443  0.20153  Biso   1.000  C
  C2150    1.0000 0.54827  0.73557  0.20153  Biso   1.000  C
  C2151    1.0000 0.45173  0.73557  0.79847  Biso   1.000  C
  C2152    1.0000 0.54827  0.26443  0.79847  Biso   1.000  C
  C2153    1.0000 0.76443  0.20153  0.95173  Biso   1.000  C
  C2154    1.0000 0.23557  0.20153  0.04827  Biso   1.000  C
  C2155    1.0000 0.23557  0.79847  0.95173  Biso   1.000  C
  C2156    1.0000 0.76443  0.79847  0.04827  Biso   1.000  C
  C2157    1.0000 0.70153  0.95173  0.26443  Biso   1.000  C
  C2158    1.0000 0.70153  0.04827  0.73557  Biso   1.000  C
  C2159    1.0000 0.29847  0.95173  0.73557  Biso   1.000  C
  C2160    1.0000 0.29847  0.04827  0.26443  Biso   1.000  C
  C2161    1.0000 0.76443  0.95173  0.70153  Biso   1.000  C
  C2162    1.0000 0.23557  0.04827  0.70153  Biso   1.000  C
  C2163    1.0000 0.23557  0.95173  0.29847  Biso   1.000  C
  C2164    1.0000 0.76443  0.04827  0.29847  Biso   1.000  C
  C2165    1.0000 0.70153  0.26443  0.45173  Biso   1.000  C
  C2166    1.0000 0.70153  0.73557  0.54827  Biso   1.000  C
  C2167    1.0000 0.29847  0.73557  0.45173  Biso   1.000  C
  C2168    1.0000 0.29847  0.26443  0.54827  Biso   1.000  C
  C2169    1.0000 0.45173  0.20153  0.76443  Biso   1.000  C
  C2170    1.0000 0.54827  0.20153  0.23557  Biso   1.000  C
  C2171    1.0000 0.45173  0.79847  0.23557  Biso   1.000  C
  C2172    1.0000 0.54827  0.79847  0.76443  Biso   1.000  C
  C2173    1.0000 0.95173  0.76443  0.20153  Biso   1.000  C
  C2174    1.0000 0.04827  0.23557  0.20153  Biso   1.000  C
  C2175    1.0000 0.95173  0.23557  0.79847  Biso   1.000  C
  C2176    1.0000 0.04827  0.76443  0.79847  Biso   1.000  C
  C2177    1.0000 0.26443  0.70153  0.95173  Biso   1.000  C
  C2178    1.0000 0.73557  0.70153  0.04827  Biso   1.000  C
  C2179    1.0000 0.73557  0.29847  0.95173  Biso   1.000  C
  C2180    1.0000 0.26443  0.29847  0.04827  Biso   1.000  C
  C2181    1.0000 0.20153  0.45173  0.26443  Biso   1.000  C
  C2182    1.0000 0.20153  0.54827  0.73557  Biso   1.000  C
  C2183    1.0000 0.79847  0.45173  0.73557  Biso   1.000  C
  C2184    1.0000 0.79847  0.54827  0.26443  Biso   1.000  C
  C2185    1.0000 0.76443  0.45173  0.20153  Biso   1.000  C
  C2186    1.0000 0.23557  0.54827  0.20153  Biso   1.000  C
  C2187    1.0000 0.23557  0.45173  0.79847  Biso   1.000  C
  C2188    1.0000 0.76443  0.54827  0.79847  Biso   1.000  C
  C2189    1.0000 0.70153  0.76443  0.95173  Biso   1.000  C
  C2190    1.0000 0.70153  0.23557  0.04827  Biso   1.000  C
  C2191    1.0000 0.29847  0.23557  0.95173  Biso   1.000  C
  C2192    1.0000 0.29847  0.76443  0.04827  Biso   1.000  C
  C2193    1.0000 0.45173  0.70153  0.26443  Biso   1.000  C
  C2194    1.0000 0.54827  0.70153  0.73557  Biso   1.000  C
  C2195    1.0000 0.45173  0.29847  0.73557  Biso   1.000  C
  C2196    1.0000 0.54827  0.29847  0.26443  Biso   1.000  C
  C2197    1.0000 0.95173  0.26443  0.70153  Biso   1.000  C
  C2198    1.0000 0.04827  0.73557  0.70153  Biso   1.000  C
  C2199    1.0000 0.95173  0.73557  0.29847  Biso   1.000  C
  C2200    1.0000 0.04827  0.26443  0.29847  Biso   1.000  C
  C2201    1.0000 0.26443  0.20153  0.45173  Biso   1.000  C
  C2202    1.0000 0.73557  0.20153  0.54827  Biso   1.000  C
  C2203    1.0000 0.73557  0.79847  0.45173  Biso   1.000  C
  C2204    1.0000 0.26443  0.79847  0.54827  Biso   1.000  C
  C2205    1.0000 0.20153  0.95173  0.76443  Biso   1.000  C
  C2206    1.0000 0.20153  0.04827  0.23557  Biso   1.000  C
  C2207    1.0000 0.79847  0.95173  0.23557  Biso   1.000  C
  C2208    1.0000 0.79847  0.04827  0.76443  Biso   1.000  C
  H2017    1.0000 0.25380  0.96460  0.20450  Biso   1.000  H
  H2018    1.0000 0.74620  0.03540  0.20450  Biso   1.000  H
  H2019    1.0000 0.74620  0.96460  0.79550  Biso   1.000  H
  H2020    1.0000 0.25380  0.03540  0.79550  Biso   1.000  H
  H2021    1.0000 0.20450  0.25380  0.96460  Biso   1.000  H
  H2022    1.0000 0.20450  0.74620  0.03540  Biso   1.000  H
  H2023    1.0000 0.79550  0.74620  0.96460  Biso   1.000  H
  H2024    1.0000 0.79550  0.25380  0.03540  Biso   1.000  H
  H2025    1.0000 0.96460  0.20450  0.25380  Biso   1.000  H
  H2026    1.0000 0.03540  0.20450  0.74620  Biso   1.000  H
  H2027    1.0000 0.96460  0.79550  0.74620  Biso   1.000  H
  H2028    1.0000 0.03540  0.79550  0.25380  Biso   1.000  H
  H2029    1.0000 0.46460  0.75380  0.70450  Biso   1.000  H
  H2030    1.0000 0.53540  0.24620  0.70450  Biso   1.000  H
  H2031    1.0000 0.46460  0.24620  0.29550  Biso   1.000  H
  H2032    1.0000 0.53540  0.75380  0.29550  Biso   1.000  H
  H2033    1.0000 0.75380  0.70450  0.46460  Biso   1.000  H
  H2034    1.0000 0.24620  0.70450  0.53540  Biso   1.000  H
  H2035    1.0000 0.24620  0.29550  0.46460  Biso   1.000  H
  H2036    1.0000 0.75380  0.29550  0.53540  Biso   1.000  H
  H2037    1.0000 0.70450  0.46460  0.75380  Biso   1.000  H
  H2038    1.0000 0.70450  0.53540  0.24620  Biso   1.000  H
  H2039    1.0000 0.29550  0.46460  0.24620  Biso   1.000  H
  H2040    1.0000 0.29550  0.53540  0.75380  Biso   1.000  H
  H2041    1.0000 0.25380  0.46460  0.70450  Biso   1.000  H
  H2042    1.0000 0.74620  0.53540  0.70450  Biso   1.000  H
  H2043    1.0000 0.74620  0.46460  0.29550  Biso   1.000  H
  H2044    1.0000 0.25380  0.53540  0.29550  Biso   1.000  H
  H2045    1.0000 0.20450  0.75380  0.46460  Biso   1.000  H
  H2046    1.0000 0.20450  0.24620  0.53540  Biso   1.000  H
  H2047    1.0000 0.79550  0.24620  0.46460  Biso   1.000  H
  H2048    1.0000 0.79550  0.75380  0.53540  Biso   1.000  H
  H2049    1.0000 0.96460  0.70450  0.75380  Biso   1.000  H
  H2050    1.0000 0.03540  0.70450  0.24620  Biso   1.000  H
  H2051    1.0000 0.96460  0.29550  0.24620  Biso   1.000  H
  H2052    1.0000 0.03540  0.29550  0.75380  Biso   1.000  H
  H2053    1.0000 0.46460  0.25380  0.20450  Biso   1.000  H
  H2054    1.0000 0.53540  0.74620  0.20450  Biso   1.000  H
  H2055    1.0000 0.46460  0.74620  0.79550  Biso   1.000  H
  H2056    1.0000 0.53540  0.25380  0.79550  Biso   1.000  H
  H2057    1.0000 0.75380  0.20450  0.96460  Biso   1.000  H
  H2058    1.0000 0.24620  0.20450  0.03540  Biso   1.000  H
  H2059    1.0000 0.24620  0.79550  0.96460  Biso   1.000  H
  H2060    1.0000 0.75380  0.79550  0.03540  Biso   1.000  H
  H2061    1.0000 0.70450  0.96460  0.25380  Biso   1.000  H
  H2062    1.0000 0.70450  0.03540  0.74620  Biso   1.000  H
  H2063    1.0000 0.29550  0.96460  0.74620  Biso   1.000  H
  H2064    1.0000 0.29550  0.03540  0.25380  Biso   1.000  H
  H2065    1.0000 0.75380  0.96460  0.70450  Biso   1.000  H
  H2066    1.0000 0.24620  0.03540  0.70450  Biso   1.000  H
  H2067    1.0000 0.24620  0.96460  0.29550  Biso   1.000  H
  H2068    1.0000 0.75380  0.03540  0.29550  Biso   1.000  H
  H2069    1.0000 0.70450  0.25380  0.46460  Biso   1.000  H
  H2070    1.0000 0.70450  0.74620  0.53540  Biso   1.000  H
  H2071    1.0000 0.29550  0.74620  0.46460  Biso   1.000  H
  H2072    1.0000 0.29550  0.25380  0.53540  Biso   1.000  H
  H2073    1.0000 0.46460  0.20450  0.75380  Biso   1.000  H
  H2074    1.0000 0.53540  0.20450  0.24620  Biso   1.000  H
  H2075    1.0000 0.46460  0.79550  0.24620  Biso   1.000  H
  H2076    1.0000 0.53540  0.79550  0.75380  Biso   1.000  H
  H2077    1.0000 0.96460  0.75380  0.20450  Biso   1.000  H
  H2078    1.0000 0.03540  0.24620  0.20450  Biso   1.000  H
  H2079    1.0000 0.96460  0.24620  0.79550  Biso   1.000  H
  H2080    1.0000 0.03540  0.75380  0.79550  Biso   1.000  H
  H2081    1.0000 0.25380  0.70450  0.96460  Biso   1.000  H
  H2082    1.0000 0.74620  0.70450  0.03540  Biso   1.000  H
  H2083    1.0000 0.74620  0.29550  0.96460  Biso   1.000  H
  H2084    1.0000 0.25380  0.29550  0.03540  Biso   1.000  H
  H2085    1.0000 0.20450  0.46460  0.25380  Biso   1.000  H
  H2086    1.0000 0.20450  0.53540  0.74620  Biso   1.000  H
  H2087    1.0000 0.79550  0.46460  0.74620  Biso   1.000  H
  H2088    1.0000 0.79550  0.53540  0.25380  Biso   1.000  H
  H2089    1.0000 0.75380  0.46460  0.20450  Biso   1.000  H
  H2090    1.0000 0.24620  0.53540  0.20450  Biso   1.000  H
  H2091    1.0000 0.24620  0.46460  0.79550  Biso   1.000  H
  H2092    1.0000 0.75380  0.53540  0.79550  Biso   1.000  H
  H2093    1.0000 0.70450  0.75380  0.96460  Biso   1.000  H
  H2094    1.0000 0.70450  0.24620  0.03540  Biso   1.000  H
  H2095    1.0000 0.29550  0.24620  0.96460  Biso   1.000  H
  H2096    1.0000 0.29550  0.75380  0.03540  Biso   1.000  H
  H2097    1.0000 0.46460  0.70450  0.25380  Biso   1.000  H
  H2098    1.0000 0.53540  0.70450  0.74620  Biso   1.000  H
  H2099    1.0000 0.46460  0.29550  0.74620  Biso   1.000  H
  H2100    1.0000 0.53540  0.29550  0.25380  Biso   1.000  H
  H2101    1.0000 0.96460  0.25380  0.70450  Biso   1.000  H
  H2102    1.0000 0.03540  0.74620  0.70450  Biso   1.000  H
  H2103    1.0000 0.96460  0.74620  0.29550  Biso   1.000  H
  H2104    1.0000 0.03540  0.25380  0.29550  Biso   1.000  H
  H2105    1.0000 0.25380  0.20450  0.46460  Biso   1.000  H
  H2106    1.0000 0.74620  0.20450  0.53540  Biso   1.000  H
  H2107    1.0000 0.74620  0.79550  0.46460  Biso   1.000  H
  H2108    1.0000 0.25380  0.79550  0.53540  Biso   1.000  H
  H2109    1.0000 0.20450  0.96460  0.75380  Biso   1.000  H
  H2110    1.0000 0.20450  0.03540  0.24620  Biso   1.000  H
  H2111    1.0000 0.79550  0.96460  0.24620  Biso   1.000  H
  H2112    1.0000 0.79550  0.03540  0.75380  Biso   1.000  H
  C2209    1.0000 0.30246  0.92987  0.15022  Biso   1.000  C
  C2210    1.0000 0.69754  0.07013  0.15022  Biso   1.000  C
  C2211    1.0000 0.69754  0.92987  0.84978  Biso   1.000  C
  C2212    1.0000 0.30246  0.07013  0.84978  Biso   1.000  C
  C2213    1.0000 0.15022  0.30246  0.92987  Biso   1.000  C
  C2214    1.0000 0.15022  0.69754  0.07013  Biso   1.000  C
  C2215    1.0000 0.84978  0.69754  0.92987  Biso   1.000  C
  C2216    1.0000 0.84978  0.30246  0.07013  Biso   1.000  C
  C2217    1.0000 0.92987  0.15022  0.30246  Biso   1.000  C
  C2218    1.0000 0.07013  0.15022  0.69754  Biso   1.000  C
  C2219    1.0000 0.92987  0.84978  0.69754  Biso   1.000  C
  C2220    1.0000 0.07013  0.84978  0.30246  Biso   1.000  C
  C2221    1.0000 0.42987  0.80246  0.65022  Biso   1.000  C
  C2222    1.0000 0.57013  0.19754  0.65022  Biso   1.000  C
  C2223    1.0000 0.42987  0.19754  0.34978  Biso   1.000  C
  C2224    1.0000 0.57013  0.80246  0.34978  Biso   1.000  C
  C2225    1.0000 0.80246  0.65022  0.42987  Biso   1.000  C
  C2226    1.0000 0.19754  0.65022  0.57013  Biso   1.000  C
  C2227    1.0000 0.19754  0.34978  0.42987  Biso   1.000  C
  C2228    1.0000 0.80246  0.34978  0.57013  Biso   1.000  C
  C2229    1.0000 0.65022  0.42987  0.80246  Biso   1.000  C
  C2230    1.0000 0.65022  0.57013  0.19754  Biso   1.000  C
  C2231    1.0000 0.34978  0.42987  0.19754  Biso   1.000  C
  C2232    1.0000 0.34978  0.57013  0.80246  Biso   1.000  C
  C2233    1.0000 0.30246  0.42987  0.65022  Biso   1.000  C
  C2234    1.0000 0.69754  0.57013  0.65022  Biso   1.000  C
  C2235    1.0000 0.69754  0.42987  0.34978  Biso   1.000  C
  C2236    1.0000 0.30246  0.57013  0.34978  Biso   1.000  C
  C2237    1.0000 0.15022  0.80246  0.42987  Biso   1.000  C
  C2238    1.0000 0.15022  0.19754  0.57013  Biso   1.000  C
  C2239    1.0000 0.84978  0.19754  0.42987  Biso   1.000  C
  C2240    1.0000 0.84978  0.80246  0.57013  Biso   1.000  C
  C2241    1.0000 0.92987  0.65022  0.80246  Biso   1.000  C
  C2242    1.0000 0.07013  0.65022  0.19754  Biso   1.000  C
  C2243    1.0000 0.92987  0.34978  0.19754  Biso   1.000  C
  C2244    1.0000 0.07013  0.34978  0.80246  Biso   1.000  C
  C2245    1.0000 0.42987  0.30246  0.15022  Biso   1.000  C
  C2246    1.0000 0.57013  0.69754  0.15022  Biso   1.000  C
  C2247    1.0000 0.42987  0.69754  0.84978  Biso   1.000  C
  C2248    1.0000 0.57013  0.30246  0.84978  Biso   1.000  C
  C2249    1.0000 0.80246  0.15022  0.92987  Biso   1.000  C
  C2250    1.0000 0.19754  0.15022  0.07013  Biso   1.000  C
  C2251    1.0000 0.19754  0.84978  0.92987  Biso   1.000  C
  C2252    1.0000 0.80246  0.84978  0.07013  Biso   1.000  C
  C2253    1.0000 0.65022  0.92987  0.30246  Biso   1.000  C
  C2254    1.0000 0.65022  0.07013  0.69754  Biso   1.000  C
  C2255    1.0000 0.34978  0.92987  0.69754  Biso   1.000  C
  C2256    1.0000 0.34978  0.07013  0.30246  Biso   1.000  C
  C2257    1.0000 0.80246  0.92987  0.65022  Biso   1.000  C
  C2258    1.0000 0.19754  0.07013  0.65022  Biso   1.000  C
  C2259    1.0000 0.19754  0.92987  0.34978  Biso   1.000  C
  C2260    1.0000 0.80246  0.07013  0.34978  Biso   1.000  C
  C2261    1.0000 0.65022  0.30246  0.42987  Biso   1.000  C
  C2262    1.0000 0.65022  0.69754  0.57013  Biso   1.000  C
  C2263    1.0000 0.34978  0.69754  0.42987  Biso   1.000  C
  C2264    1.0000 0.34978  0.30246  0.57013  Biso   1.000  C
  C2265    1.0000 0.42987  0.15022  0.80246  Biso   1.000  C
  C2266    1.0000 0.57013  0.15022  0.19754  Biso   1.000  C
  C2267    1.0000 0.42987  0.84978  0.19754  Biso   1.000  C
  C2268    1.0000 0.57013  0.84978  0.80246  Biso   1.000  C
  C2269    1.0000 0.92987  0.80246  0.15022  Biso   1.000  C
  C2270    1.0000 0.07013  0.19754  0.15022  Biso   1.000  C
  C2271    1.0000 0.92987  0.19754  0.84978  Biso   1.000  C
  C2272    1.0000 0.07013  0.80246  0.84978  Biso   1.000  C
  C2273    1.0000 0.30246  0.65022  0.92987  Biso   1.000  C
  C2274    1.0000 0.69754  0.65022  0.07013  Biso   1.000  C
  C2275    1.0000 0.69754  0.34978  0.92987  Biso   1.000  C
  C2276    1.0000 0.30246  0.34978  0.07013  Biso   1.000  C
  C2277    1.0000 0.15022  0.42987  0.30246  Biso   1.000  C
  C2278    1.0000 0.15022  0.57013  0.69754  Biso   1.000  C
  C2279    1.0000 0.84978  0.42987  0.69754  Biso   1.000  C
  C2280    1.0000 0.84978  0.57013  0.30246  Biso   1.000  C
  C2281    1.0000 0.80246  0.42987  0.15022  Biso   1.000  C
  C2282    1.0000 0.19754  0.57013  0.15022  Biso   1.000  C
  C2283    1.0000 0.19754  0.42987  0.84978  Biso   1.000  C
  C2284    1.0000 0.80246  0.57013  0.84978  Biso   1.000  C
  C2285    1.0000 0.65022  0.80246  0.92987  Biso   1.000  C
  C2286    1.0000 0.65022  0.19754  0.07013  Biso   1.000  C
  C2287    1.0000 0.34978  0.19754  0.92987  Biso   1.000  C
  C2288    1.0000 0.34978  0.80246  0.07013  Biso   1.000  C
  C2289    1.0000 0.42987  0.65022  0.30246  Biso   1.000  C
  C2290    1.0000 0.57013  0.65022  0.69754  Biso   1.000  C
  C2291    1.0000 0.42987  0.34978  0.69754  Biso   1.000  C
  C2292    1.0000 0.57013  0.34978  0.30246  Biso   1.000  C
  C2293    1.0000 0.92987  0.30246  0.65022  Biso   1.000  C
  C2294    1.0000 0.07013  0.69754  0.65022  Biso   1.000  C
  C2295    1.0000 0.92987  0.69754  0.34978  Biso   1.000  C
  C2296    1.0000 0.07013  0.30246  0.34978  Biso   1.000  C
  C2297    1.0000 0.30246  0.15022  0.42987  Biso   1.000  C
  C2298    1.0000 0.69754  0.15022  0.57013  Biso   1.000  C
  C2299    1.0000 0.69754  0.84978  0.42987  Biso   1.000  C
  C2300    1.0000 0.30246  0.84978  0.57013  Biso   1.000  C
  C2301    1.0000 0.15022  0.92987  0.80246  Biso   1.000  C
  C2302    1.0000 0.15022  0.07013  0.19754  Biso   1.000  C
  C2303    1.0000 0.84978  0.92987  0.19754  Biso   1.000  C
  C2304    1.0000 0.84978  0.07013  0.80246  Biso   1.000  C
  H2113    1.0000 0.29010  0.92640  0.13810  Biso   1.000  H
  H2114    1.0000 0.70990  0.07360  0.13810  Biso   1.000  H
  H2115    1.0000 0.70990  0.92640  0.86190  Biso   1.000  H
  H2116    1.0000 0.29010  0.07360  0.86190  Biso   1.000  H
  H2117    1.0000 0.13810  0.29010  0.92640  Biso   1.000  H
  H2118    1.0000 0.13810  0.70990  0.07360  Biso   1.000  H
  H2119    1.0000 0.86190  0.70990  0.92640  Biso   1.000  H
  H2120    1.0000 0.86190  0.29010  0.07360  Biso   1.000  H
  H2121    1.0000 0.92640  0.13810  0.29010  Biso   1.000  H
  H2122    1.0000 0.07360  0.13810  0.70990  Biso   1.000  H
  H2123    1.0000 0.92640  0.86190  0.70990  Biso   1.000  H
  H2124    1.0000 0.07360  0.86190  0.29010  Biso   1.000  H
  H2125    1.0000 0.42640  0.79010  0.63810  Biso   1.000  H
  H2126    1.0000 0.57360  0.20990  0.63810  Biso   1.000  H
  H2127    1.0000 0.42640  0.20990  0.36190  Biso   1.000  H
  H2128    1.0000 0.57360  0.79010  0.36190  Biso   1.000  H
  H2129    1.0000 0.79010  0.63810  0.42640  Biso   1.000  H
  H2130    1.0000 0.20990  0.63810  0.57360  Biso   1.000  H
  H2131    1.0000 0.20990  0.36190  0.42640  Biso   1.000  H
  H2132    1.0000 0.79010  0.36190  0.57360  Biso   1.000  H
  H2133    1.0000 0.63810  0.42640  0.79010  Biso   1.000  H
  H2134    1.0000 0.63810  0.57360  0.20990  Biso   1.000  H
  H2135    1.0000 0.36190  0.42640  0.20990  Biso   1.000  H
  H2136    1.0000 0.36190  0.57360  0.79010  Biso   1.000  H
  H2137    1.0000 0.29010  0.42640  0.63810  Biso   1.000  H
  H2138    1.0000 0.70990  0.57360  0.63810  Biso   1.000  H
  H2139    1.0000 0.70990  0.42640  0.36190  Biso   1.000  H
  H2140    1.0000 0.29010  0.57360  0.36190  Biso   1.000  H
  H2141    1.0000 0.13810  0.79010  0.42640  Biso   1.000  H
  H2142    1.0000 0.13810  0.20990  0.57360  Biso   1.000  H
  H2143    1.0000 0.86190  0.20990  0.42640  Biso   1.000  H
  H2144    1.0000 0.86190  0.79010  0.57360  Biso   1.000  H
  H2145    1.0000 0.92640  0.63810  0.79010  Biso   1.000  H
  H2146    1.0000 0.07360  0.63810  0.20990  Biso   1.000  H
  H2147    1.0000 0.92640  0.36190  0.20990  Biso   1.000  H
  H2148    1.0000 0.07360  0.36190  0.79010  Biso   1.000  H
  H2149    1.0000 0.42640  0.29010  0.13810  Biso   1.000  H
  H2150    1.0000 0.57360  0.70990  0.13810  Biso   1.000  H
  H2151    1.0000 0.42640  0.70990  0.86190  Biso   1.000  H
  H2152    1.0000 0.57360  0.29010  0.86190  Biso   1.000  H
  H2153    1.0000 0.79010  0.13810  0.92640  Biso   1.000  H
  H2154    1.0000 0.20990  0.13810  0.07360  Biso   1.000  H
  H2155    1.0000 0.20990  0.86190  0.92640  Biso   1.000  H
  H2156    1.0000 0.79010  0.86190  0.07360  Biso   1.000  H
  H2157    1.0000 0.63810  0.92640  0.29010  Biso   1.000  H
  H2158    1.0000 0.63810  0.07360  0.70990  Biso   1.000  H
  H2159    1.0000 0.36190  0.92640  0.70990  Biso   1.000  H
  H2160    1.0000 0.36190  0.07360  0.29010  Biso   1.000  H
  H2161    1.0000 0.79010  0.92640  0.63810  Biso   1.000  H
  H2162    1.0000 0.20990  0.07360  0.63810  Biso   1.000  H
  H2163    1.0000 0.20990  0.92640  0.36190  Biso   1.000  H
  H2164    1.0000 0.79010  0.07360  0.36190  Biso   1.000  H
  H2165    1.0000 0.63810  0.29010  0.42640  Biso   1.000  H
  H2166    1.0000 0.63810  0.70990  0.57360  Biso   1.000  H
  H2167    1.0000 0.36190  0.70990  0.42640  Biso   1.000  H
  H2168    1.0000 0.36190  0.29010  0.57360  Biso   1.000  H
  H2169    1.0000 0.42640  0.13810  0.79010  Biso   1.000  H
  H2170    1.0000 0.57360  0.13810  0.20990  Biso   1.000  H
  H2171    1.0000 0.42640  0.86190  0.20990  Biso   1.000  H
  H2172    1.0000 0.57360  0.86190  0.79010  Biso   1.000  H
  H2173    1.0000 0.92640  0.79010  0.13810  Biso   1.000  H
  H2174    1.0000 0.07360  0.20990  0.13810  Biso   1.000  H
  H2175    1.0000 0.92640  0.20990  0.86190  Biso   1.000  H
  H2176    1.0000 0.07360  0.79010  0.86190  Biso   1.000  H
  H2177    1.0000 0.29010  0.63810  0.92640  Biso   1.000  H
  H2178    1.0000 0.70990  0.63810  0.07360  Biso   1.000  H
  H2179    1.0000 0.70990  0.36190  0.92640  Biso   1.000  H
  H2180    1.0000 0.29010  0.36190  0.07360  Biso   1.000  H
  H2181    1.0000 0.13810  0.42640  0.29010  Biso   1.000  H
  H2182    1.0000 0.13810  0.57360  0.70990  Biso   1.000  H
  H2183    1.0000 0.86190  0.42640  0.70990  Biso   1.000  H
  H2184    1.0000 0.86190  0.57360  0.29010  Biso   1.000  H
  H2185    1.0000 0.79010  0.42640  0.13810  Biso   1.000  H
  H2186    1.0000 0.20990  0.57360  0.13810  Biso   1.000  H
  H2187    1.0000 0.20990  0.42640  0.86190  Biso   1.000  H
  H2188    1.0000 0.79010  0.57360  0.86190  Biso   1.000  H
  H2189    1.0000 0.63810  0.79010  0.92640  Biso   1.000  H
  H2190    1.0000 0.63810  0.20990  0.07360  Biso   1.000  H
  H2191    1.0000 0.36190  0.20990  0.92640  Biso   1.000  H
  H2192    1.0000 0.36190  0.79010  0.07360  Biso   1.000  H
  H2193    1.0000 0.42640  0.63810  0.29010  Biso   1.000  H
  H2194    1.0000 0.57360  0.63810  0.70990  Biso   1.000  H
  H2195    1.0000 0.42640  0.36190  0.70990  Biso   1.000  H
  H2196    1.0000 0.57360  0.36190  0.29010  Biso   1.000  H
  H2197    1.0000 0.92640  0.29010  0.63810  Biso   1.000  H
  H2198    1.0000 0.07360  0.70990  0.63810  Biso   1.000  H
  H2199    1.0000 0.92640  0.70990  0.36190  Biso   1.000  H
  H2200    1.0000 0.07360  0.29010  0.36190  Biso   1.000  H
  H2201    1.0000 0.29010  0.13810  0.42640  Biso   1.000  H
  H2202    1.0000 0.70990  0.13810  0.57360  Biso   1.000  H
  H2203    1.0000 0.70990  0.86190  0.42640  Biso   1.000  H
  H2204    1.0000 0.29010  0.86190  0.57360  Biso   1.000  H
  H2205    1.0000 0.13810  0.92640  0.79010  Biso   1.000  H
  H2206    1.0000 0.13810  0.07360  0.20990  Biso   1.000  H
  H2207    1.0000 0.86190  0.92640  0.20990  Biso   1.000  H
  H2208    1.0000 0.86190  0.07360  0.79010  Biso   1.000  H
  H2209    1.0000 0.30980  0.94540  0.14610  Biso   1.000  H
  H2210    1.0000 0.69020  0.05460  0.14610  Biso   1.000  H
  H2211    1.0000 0.69020  0.94540  0.85390  Biso   1.000  H
  H2212    1.0000 0.30980  0.05460  0.85390  Biso   1.000  H
  H2213    1.0000 0.14610  0.30980  0.94540  Biso   1.000  H
  H2214    1.0000 0.14610  0.69020  0.05460  Biso   1.000  H
  H2215    1.0000 0.85390  0.69020  0.94540  Biso   1.000  H
  H2216    1.0000 0.85390  0.30980  0.05460  Biso   1.000  H
  H2217    1.0000 0.94540  0.14610  0.30980  Biso   1.000  H
  H2218    1.0000 0.05460  0.14610  0.69020  Biso   1.000  H
  H2219    1.0000 0.94540  0.85390  0.69020  Biso   1.000  H
  H2220    1.0000 0.05460  0.85390  0.30980  Biso   1.000  H
  H2221    1.0000 0.44540  0.80980  0.64610  Biso   1.000  H
  H2222    1.0000 0.55460  0.19020  0.64610  Biso   1.000  H
  H2223    1.0000 0.44540  0.19020  0.35390  Biso   1.000  H
  H2224    1.0000 0.55460  0.80980  0.35390  Biso   1.000  H
  H2225    1.0000 0.80980  0.64610  0.44540  Biso   1.000  H
  H2226    1.0000 0.19020  0.64610  0.55460  Biso   1.000  H
  H2227    1.0000 0.19020  0.35390  0.44540  Biso   1.000  H
  H2228    1.0000 0.80980  0.35390  0.55460  Biso   1.000  H
  H2229    1.0000 0.64610  0.44540  0.80980  Biso   1.000  H
  H2230    1.0000 0.64610  0.55460  0.19020  Biso   1.000  H
  H2231    1.0000 0.35390  0.44540  0.19020  Biso   1.000  H
  H2232    1.0000 0.35390  0.55460  0.80980  Biso   1.000  H
  H2233    1.0000 0.30980  0.44540  0.64610  Biso   1.000  H
  H2234    1.0000 0.69020  0.55460  0.64610  Biso   1.000  H
  H2235    1.0000 0.69020  0.44540  0.35390  Biso   1.000  H
  H2236    1.0000 0.30980  0.55460  0.35390  Biso   1.000  H
  H2237    1.0000 0.14610  0.80980  0.44540  Biso   1.000  H
  H2238    1.0000 0.14610  0.19020  0.55460  Biso   1.000  H
  H2239    1.0000 0.85390  0.19020  0.44540  Biso   1.000  H
  H2240    1.0000 0.85390  0.80980  0.55460  Biso   1.000  H
  H2241    1.0000 0.94540  0.64610  0.80980  Biso   1.000  H
  H2242    1.0000 0.05460  0.64610  0.19020  Biso   1.000  H
  H2243    1.0000 0.94540  0.35390  0.19020  Biso   1.000  H
  H2244    1.0000 0.05460  0.35390  0.80980  Biso   1.000  H
  H2245    1.0000 0.44540  0.30980  0.14610  Biso   1.000  H
  H2246    1.0000 0.55460  0.69020  0.14610  Biso   1.000  H
  H2247    1.0000 0.44540  0.69020  0.85390  Biso   1.000  H
  H2248    1.0000 0.55460  0.30980  0.85390  Biso   1.000  H
  H2249    1.0000 0.80980  0.14610  0.94540  Biso   1.000  H
  H2250    1.0000 0.19020  0.14610  0.05460  Biso   1.000  H
  H2251    1.0000 0.19020  0.85390  0.94540  Biso   1.000  H
  H2252    1.0000 0.80980  0.85390  0.05460  Biso   1.000  H
  H2253    1.0000 0.64610  0.94540  0.30980  Biso   1.000  H
  H2254    1.0000 0.64610  0.05460  0.69020  Biso   1.000  H
  H2255    1.0000 0.35390  0.94540  0.69020  Biso   1.000  H
  H2256    1.0000 0.35390  0.05460  0.30980  Biso   1.000  H
  H2257    1.0000 0.80980  0.94540  0.64610  Biso   1.000  H
  H2258    1.0000 0.19020  0.05460  0.64610  Biso   1.000  H
  H2259    1.0000 0.19020  0.94540  0.35390  Biso   1.000  H
  H2260    1.0000 0.80980  0.05460  0.35390  Biso   1.000  H
  H2261    1.0000 0.64610  0.30980  0.44540  Biso   1.000  H
  H2262    1.0000 0.64610  0.69020  0.55460  Biso   1.000  H
  H2263    1.0000 0.35390  0.69020  0.44540  Biso   1.000  H
  H2264    1.0000 0.35390  0.30980  0.55460  Biso   1.000  H
  H2265    1.0000 0.44540  0.14610  0.80980  Biso   1.000  H
  H2266    1.0000 0.55460  0.14610  0.19020  Biso   1.000  H
  H2267    1.0000 0.44540  0.85390  0.19020  Biso   1.000  H
  H2268    1.0000 0.55460  0.85390  0.80980  Biso   1.000  H
  H2269    1.0000 0.94540  0.80980  0.14610  Biso   1.000  H
  H2270    1.0000 0.05460  0.19020  0.14610  Biso   1.000  H
  H2271    1.0000 0.94540  0.19020  0.85390  Biso   1.000  H
  H2272    1.0000 0.05460  0.80980  0.85390  Biso   1.000  H
  H2273    1.0000 0.30980  0.64610  0.94540  Biso   1.000  H
  H2274    1.0000 0.69020  0.64610  0.05460  Biso   1.000  H
  H2275    1.0000 0.69020  0.35390  0.94540  Biso   1.000  H
  H2276    1.0000 0.30980  0.35390  0.05460  Biso   1.000  H
  H2277    1.0000 0.14610  0.44540  0.30980  Biso   1.000  H
  H2278    1.0000 0.14610  0.55460  0.69020  Biso   1.000  H
  H2279    1.0000 0.85390  0.44540  0.69020  Biso   1.000  H
  H2280    1.0000 0.85390  0.55460  0.30980  Biso   1.000  H
  H2281    1.0000 0.80980  0.44540  0.14610  Biso   1.000  H
  H2282    1.0000 0.19020  0.55460  0.14610  Biso   1.000  H
  H2283    1.0000 0.19020  0.44540  0.85390  Biso   1.000  H
  H2284    1.0000 0.80980  0.55460  0.85390  Biso   1.000  H
  H2285    1.0000 0.64610  0.80980  0.94540  Biso   1.000  H
  H2286    1.0000 0.64610  0.19020  0.05460  Biso   1.000  H
  H2287    1.0000 0.35390  0.19020  0.94540  Biso   1.000  H
  H2288    1.0000 0.35390  0.80980  0.05460  Biso   1.000  H
  H2289    1.0000 0.44540  0.64610  0.30980  Biso   1.000  H
  H2290    1.0000 0.55460  0.64610  0.69020  Biso   1.000  H
  H2291    1.0000 0.44540  0.35390  0.69020  Biso   1.000  H
  H2292    1.0000 0.55460  0.35390  0.30980  Biso   1.000  H
  H2293    1.0000 0.94540  0.30980  0.64610  Biso   1.000  H
  H2294    1.0000 0.05460  0.69020  0.64610  Biso   1.000  H
  H2295    1.0000 0.94540  0.69020  0.35390  Biso   1.000  H
  H2296    1.0000 0.05460  0.30980  0.35390  Biso   1.000  H
  H2297    1.0000 0.30980  0.14610  0.44540  Biso   1.000  H
  H2298    1.0000 0.69020  0.14610  0.55460  Biso   1.000  H
  H2299    1.0000 0.69020  0.85390  0.44540  Biso   1.000  H
  H2300    1.0000 0.30980  0.85390  0.55460  Biso   1.000  H
  H2301    1.0000 0.14610  0.94540  0.80980  Biso   1.000  H
  H2302    1.0000 0.14610  0.05460  0.19020  Biso   1.000  H
  H2303    1.0000 0.85390  0.94540  0.19020  Biso   1.000  H
  H2304    1.0000 0.85390  0.05460  0.80980  Biso   1.000  H
  C2305    1.0000 0.31694  0.88987  0.14071  Biso   1.000  C
  C2306    1.0000 0.68306  0.11013  0.14071  Biso   1.000  C
  C2307    1.0000 0.68306  0.88987  0.85929  Biso   1.000  C
  C2308    1.0000 0.31694  0.11013  0.85929  Biso   1.000  C
  C2309    1.0000 0.14071  0.31694  0.88987  Biso   1.000  C
  C2310    1.0000 0.14071  0.68306  0.11013  Biso   1.000  C
  C2311    1.0000 0.85929  0.68306  0.88987  Biso   1.000  C
  C2312    1.0000 0.85929  0.31694  0.11013  Biso   1.000  C
  C2313    1.0000 0.88987  0.14071  0.31694  Biso   1.000  C
  C2314    1.0000 0.11013  0.14071  0.68306  Biso   1.000  C
  C2315    1.0000 0.88987  0.85929  0.68306  Biso   1.000  C
  C2316    1.0000 0.11013  0.85929  0.31694  Biso   1.000  C
  C2317    1.0000 0.38987  0.81694  0.64071  Biso   1.000  C
  C2318    1.0000 0.61013  0.18306  0.64071  Biso   1.000  C
  C2319    1.0000 0.38987  0.18306  0.35929  Biso   1.000  C
  C2320    1.0000 0.61013  0.81694  0.35929  Biso   1.000  C
  C2321    1.0000 0.81694  0.64071  0.38987  Biso   1.000  C
  C2322    1.0000 0.18306  0.64071  0.61013  Biso   1.000  C
  C2323    1.0000 0.18306  0.35929  0.38987  Biso   1.000  C
  C2324    1.0000 0.81694  0.35929  0.61013  Biso   1.000  C
  C2325    1.0000 0.64071  0.38987  0.81694  Biso   1.000  C
  C2326    1.0000 0.64071  0.61013  0.18306  Biso   1.000  C
  C2327    1.0000 0.35929  0.38987  0.18306  Biso   1.000  C
  C2328    1.0000 0.35929  0.61013  0.81694  Biso   1.000  C
  C2329    1.0000 0.31694  0.38987  0.64071  Biso   1.000  C
  C2330    1.0000 0.68306  0.61013  0.64071  Biso   1.000  C
  C2331    1.0000 0.68306  0.38987  0.35929  Biso   1.000  C
  C2332    1.0000 0.31694  0.61013  0.35929  Biso   1.000  C
  C2333    1.0000 0.14071  0.81694  0.38987  Biso   1.000  C
  C2334    1.0000 0.14071  0.18306  0.61013  Biso   1.000  C
  C2335    1.0000 0.85929  0.18306  0.38987  Biso   1.000  C
  C2336    1.0000 0.85929  0.81694  0.61013  Biso   1.000  C
  C2337    1.0000 0.88987  0.64071  0.81694  Biso   1.000  C
  C2338    1.0000 0.11013  0.64071  0.18306  Biso   1.000  C
  C2339    1.0000 0.88987  0.35929  0.18306  Biso   1.000  C
  C2340    1.0000 0.11013  0.35929  0.81694  Biso   1.000  C
  C2341    1.0000 0.38987  0.31694  0.14071  Biso   1.000  C
  C2342    1.0000 0.61013  0.68306  0.14071  Biso   1.000  C
  C2343    1.0000 0.38987  0.68306  0.85929  Biso   1.000  C
  C2344    1.0000 0.61013  0.31694  0.85929  Biso   1.000  C
  C2345    1.0000 0.81694  0.14071  0.88987  Biso   1.000  C
  C2346    1.0000 0.18306  0.14071  0.11013  Biso   1.000  C
  C2347    1.0000 0.18306  0.85929  0.88987  Biso   1.000  C
  C2348    1.0000 0.81694  0.85929  0.11013  Biso   1.000  C
  C2349    1.0000 0.64071  0.88987  0.31694  Biso   1.000  C
  C2350    1.0000 0.64071  0.11013  0.68306  Biso   1.000  C
  C2351    1.0000 0.35929  0.88987  0.68306  Biso   1.000  C
  C2352    1.0000 0.35929  0.11013  0.31694  Biso   1.000  C
  C2353    1.0000 0.81694  0.88987  0.64071  Biso   1.000  C
  C2354    1.0000 0.18306  0.11013  0.64071  Biso   1.000  C
  C2355    1.0000 0.18306  0.88987  0.35929  Biso   1.000  C
  C2356    1.0000 0.81694  0.11013  0.35929  Biso   1.000  C
  C2357    1.0000 0.64071  0.31694  0.38987  Biso   1.000  C
  C2358    1.0000 0.64071  0.68306  0.61013  Biso   1.000  C
  C2359    1.0000 0.35929  0.68306  0.38987  Biso   1.000  C
  C2360    1.0000 0.35929  0.31694  0.61013  Biso   1.000  C
  C2361    1.0000 0.38987  0.14071  0.81694  Biso   1.000  C
  C2362    1.0000 0.61013  0.14071  0.18306  Biso   1.000  C
  C2363    1.0000 0.38987  0.85929  0.18306  Biso   1.000  C
  C2364    1.0000 0.61013  0.85929  0.81694  Biso   1.000  C
  C2365    1.0000 0.88987  0.81694  0.14071  Biso   1.000  C
  C2366    1.0000 0.11013  0.18306  0.14071  Biso   1.000  C
  C2367    1.0000 0.88987  0.18306  0.85929  Biso   1.000  C
  C2368    1.0000 0.11013  0.81694  0.85929  Biso   1.000  C
  C2369    1.0000 0.31694  0.64071  0.88987  Biso   1.000  C
  C2370    1.0000 0.68306  0.64071  0.11013  Biso   1.000  C
  C2371    1.0000 0.68306  0.35929  0.88987  Biso   1.000  C
  C2372    1.0000 0.31694  0.35929  0.11013  Biso   1.000  C
  C2373    1.0000 0.14071  0.38987  0.31694  Biso   1.000  C
  C2374    1.0000 0.14071  0.61013  0.68306  Biso   1.000  C
  C2375    1.0000 0.85929  0.38987  0.68306  Biso   1.000  C
  C2376    1.0000 0.85929  0.61013  0.31694  Biso   1.000  C
  C2377    1.0000 0.81694  0.38987  0.14071  Biso   1.000  C
  C2378    1.0000 0.18306  0.61013  0.14071  Biso   1.000  C
  C2379    1.0000 0.18306  0.38987  0.85929  Biso   1.000  C
  C2380    1.0000 0.81694  0.61013  0.85929  Biso   1.000  C
  C2381    1.0000 0.64071  0.81694  0.88987  Biso   1.000  C
  C2382    1.0000 0.64071  0.18306  0.11013  Biso   1.000  C
  C2383    1.0000 0.35929  0.18306  0.88987  Biso   1.000  C
  C2384    1.0000 0.35929  0.81694  0.11013  Biso   1.000  C
  C2385    1.0000 0.38987  0.64071  0.31694  Biso   1.000  C
  C2386    1.0000 0.61013  0.64071  0.68306  Biso   1.000  C
  C2387    1.0000 0.38987  0.35929  0.68306  Biso   1.000  C
  C2388    1.0000 0.61013  0.35929  0.31694  Biso   1.000  C
  C2389    1.0000 0.88987  0.31694  0.64071  Biso   1.000  C
  C2390    1.0000 0.11013  0.68306  0.64071  Biso   1.000  C
  C2391    1.0000 0.88987  0.68306  0.35929  Biso   1.000  C
  C2392    1.0000 0.11013  0.31694  0.35929  Biso   1.000  C
  C2393    1.0000 0.31694  0.14071  0.38987  Biso   1.000  C
  C2394    1.0000 0.68306  0.14071  0.61013  Biso   1.000  C
  C2395    1.0000 0.68306  0.85929  0.38987  Biso   1.000  C
  C2396    1.0000 0.31694  0.85929  0.61013  Biso   1.000  C
  C2397    1.0000 0.14071  0.88987  0.81694  Biso   1.000  C
  C2398    1.0000 0.14071  0.11013  0.18306  Biso   1.000  C
  C2399    1.0000 0.85929  0.88987  0.18306  Biso   1.000  C
  C2400    1.0000 0.85929  0.11013  0.81694  Biso   1.000  C
  C2401    1.0000 0.33733  0.87233  0.14290  Biso   1.000  C
  C2402    1.0000 0.66267  0.12767  0.14290  Biso   1.000  C
  C2403    1.0000 0.66267  0.87233  0.85710  Biso   1.000  C
  C2404    1.0000 0.33733  0.12767  0.85710  Biso   1.000  C
  C2405    1.0000 0.14290  0.33733  0.87233  Biso   1.000  C
  C2406    1.0000 0.14290  0.66267  0.12767  Biso   1.000  C
  C2407    1.0000 0.85710  0.66267  0.87233  Biso   1.000  C
  C2408    1.0000 0.85710  0.33733  0.12767  Biso   1.000  C
  C2409    1.0000 0.87233  0.14290  0.33733  Biso   1.000  C
  C2410    1.0000 0.12767  0.14290  0.66267  Biso   1.000  C
  C2411    1.0000 0.87233  0.85710  0.66267  Biso   1.000  C
  C2412    1.0000 0.12767  0.85710  0.33733  Biso   1.000  C
  C2413    1.0000 0.37233  0.83733  0.64290  Biso   1.000  C
  C2414    1.0000 0.62767  0.16267  0.64290  Biso   1.000  C
  C2415    1.0000 0.37233  0.16267  0.35710  Biso   1.000  C
  C2416    1.0000 0.62767  0.83733  0.35710  Biso   1.000  C
  C2417    1.0000 0.83733  0.64290  0.37233  Biso   1.000  C
  C2418    1.0000 0.16267  0.64290  0.62767  Biso   1.000  C
  C2419    1.0000 0.16267  0.35710  0.37233  Biso   1.000  C
  C2420    1.0000 0.83733  0.35710  0.62767  Biso   1.000  C
  C2421    1.0000 0.64290  0.37233  0.83733  Biso   1.000  C
  C2422    1.0000 0.64290  0.62767  0.16267  Biso   1.000  C
  C2423    1.0000 0.35710  0.37233  0.16267  Biso   1.000  C
  C2424    1.0000 0.35710  0.62767  0.83733  Biso   1.000  C
  C2425    1.0000 0.33733  0.37233  0.64290  Biso   1.000  C
  C2426    1.0000 0.66267  0.62767  0.64290  Biso   1.000  C
  C2427    1.0000 0.66267  0.37233  0.35710  Biso   1.000  C
  C2428    1.0000 0.33733  0.62767  0.35710  Biso   1.000  C
  C2429    1.0000 0.14290  0.83733  0.37233  Biso   1.000  C
  C2430    1.0000 0.14290  0.16267  0.62767  Biso   1.000  C
  C2431    1.0000 0.85710  0.16267  0.37233  Biso   1.000  C
  C2432    1.0000 0.85710  0.83733  0.62767  Biso   1.000  C
  C2433    1.0000 0.87233  0.64290  0.83733  Biso   1.000  C
  C2434    1.0000 0.12767  0.64290  0.16267  Biso   1.000  C
  C2435    1.0000 0.87233  0.35710  0.16267  Biso   1.000  C
  C2436    1.0000 0.12767  0.35710  0.83733  Biso   1.000  C
  C2437    1.0000 0.37233  0.33733  0.14290  Biso   1.000  C
  C2438    1.0000 0.62767  0.66267  0.14290  Biso   1.000  C
  C2439    1.0000 0.37233  0.66267  0.85710  Biso   1.000  C
  C2440    1.0000 0.62767  0.33733  0.85710  Biso   1.000  C
  C2441    1.0000 0.83733  0.14290  0.87233  Biso   1.000  C
  C2442    1.0000 0.16267  0.14290  0.12767  Biso   1.000  C
  C2443    1.0000 0.16267  0.85710  0.87233  Biso   1.000  C
  C2444    1.0000 0.83733  0.85710  0.12767  Biso   1.000  C
  C2445    1.0000 0.64290  0.87233  0.33733  Biso   1.000  C
  C2446    1.0000 0.64290  0.12767  0.66267  Biso   1.000  C
  C2447    1.0000 0.35710  0.87233  0.66267  Biso   1.000  C
  C2448    1.0000 0.35710  0.12767  0.33733  Biso   1.000  C
  C2449    1.0000 0.83733  0.87233  0.64290  Biso   1.000  C
  C2450    1.0000 0.16267  0.12767  0.64290  Biso   1.000  C
  C2451    1.0000 0.16267  0.87233  0.35710  Biso   1.000  C
  C2452    1.0000 0.83733  0.12767  0.35710  Biso   1.000  C
  C2453    1.0000 0.64290  0.33733  0.37233  Biso   1.000  C
  C2454    1.0000 0.64290  0.66267  0.62767  Biso   1.000  C
  C2455    1.0000 0.35710  0.66267  0.37233  Biso   1.000  C
  C2456    1.0000 0.35710  0.33733  0.62767  Biso   1.000  C
  C2457    1.0000 0.37233  0.14290  0.83733  Biso   1.000  C
  C2458    1.0000 0.62767  0.14290  0.16267  Biso   1.000  C
  C2459    1.0000 0.37233  0.85710  0.16267  Biso   1.000  C
  C2460    1.0000 0.62767  0.85710  0.83733  Biso   1.000  C
  C2461    1.0000 0.87233  0.83733  0.14290  Biso   1.000  C
  C2462    1.0000 0.12767  0.16267  0.14290  Biso   1.000  C
  C2463    1.0000 0.87233  0.16267  0.85710  Biso   1.000  C
  C2464    1.0000 0.12767  0.83733  0.85710  Biso   1.000  C
  C2465    1.0000 0.33733  0.64290  0.87233  Biso   1.000  C
  C2466    1.0000 0.66267  0.64290  0.12767  Biso   1.000  C
  C2467    1.0000 0.66267  0.35710  0.87233  Biso   1.000  C
  C2468    1.0000 0.33733  0.35710  0.12767  Biso   1.000  C
  C2469    1.0000 0.14290  0.37233  0.33733  Biso   1.000  C
  C2470    1.0000 0.14290  0.62767  0.66267  Biso   1.000  C
  C2471    1.0000 0.85710  0.37233  0.66267  Biso   1.000  C
  C2472    1.0000 0.85710  0.62767  0.33733  Biso   1.000  C
  C2473    1.0000 0.83733  0.37233  0.14290  Biso   1.000  C
  C2474    1.0000 0.16267  0.62767  0.14290  Biso   1.000  C
  C2475    1.0000 0.16267  0.37233  0.85710  Biso   1.000  C
  C2476    1.0000 0.83733  0.62767  0.85710  Biso   1.000  C
  C2477    1.0000 0.64290  0.83733  0.87233  Biso   1.000  C
  C2478    1.0000 0.64290  0.16267  0.12767  Biso   1.000  C
  C2479    1.0000 0.35710  0.16267  0.87233  Biso   1.000  C
  C2480    1.0000 0.35710  0.83733  0.12767  Biso   1.000  C
  C2481    1.0000 0.37233  0.64290  0.33733  Biso   1.000  C
  C2482    1.0000 0.62767  0.64290  0.66267  Biso   1.000  C
  C2483    1.0000 0.37233  0.35710  0.66267  Biso   1.000  C
  C2484    1.0000 0.62767  0.35710  0.33733  Biso   1.000  C
  C2485    1.0000 0.87233  0.33733  0.64290  Biso   1.000  C
  C2486    1.0000 0.12767  0.66267  0.64290  Biso   1.000  C
  C2487    1.0000 0.87233  0.66267  0.35710  Biso   1.000  C
  C2488    1.0000 0.12767  0.33733  0.35710  Biso   1.000  C
  C2489    1.0000 0.33733  0.14290  0.37233  Biso   1.000  C
  C2490    1.0000 0.66267  0.14290  0.62767  Biso   1.000  C
  C2491    1.0000 0.66267  0.85710  0.37233  Biso   1.000  C
  C2492    1.0000 0.33733  0.85710  0.62767  Biso   1.000  C
  C2493    1.0000 0.14290  0.87233  0.83733  Biso   1.000  C
  C2494    1.0000 0.14290  0.12767  0.16267  Biso   1.000  C
  C2495    1.0000 0.85710  0.87233  0.16267  Biso   1.000  C
  C2496    1.0000 0.85710  0.12767  0.83733  Biso   1.000  C
  C2497    1.0000 0.33882  0.85412  0.12627  Biso   1.000  C
  C2498    1.0000 0.66118  0.14588  0.12627  Biso   1.000  C
  C2499    1.0000 0.66118  0.85412  0.87373  Biso   1.000  C
  C2500    1.0000 0.33882  0.14588  0.87373  Biso   1.000  C
  C2501    1.0000 0.12627  0.33882  0.85412  Biso   1.000  C
  C2502    1.0000 0.12627  0.66118  0.14588  Biso   1.000  C
  C2503    1.0000 0.87373  0.66118  0.85412  Biso   1.000  C
  C2504    1.0000 0.87373  0.33882  0.14588  Biso   1.000  C
  C2505    1.0000 0.85412  0.12627  0.33882  Biso   1.000  C
  C2506    1.0000 0.14588  0.12627  0.66118  Biso   1.000  C
  C2507    1.0000 0.85412  0.87373  0.66118  Biso   1.000  C
  C2508    1.0000 0.14588  0.87373  0.33882  Biso   1.000  C
  C2509    1.0000 0.35412  0.83882  0.62627  Biso   1.000  C
  C2510    1.0000 0.64588  0.16118  0.62627  Biso   1.000  C
  C2511    1.0000 0.35412  0.16118  0.37373  Biso   1.000  C
  C2512    1.0000 0.64588  0.83882  0.37373  Biso   1.000  C
  C2513    1.0000 0.83882  0.62627  0.35412  Biso   1.000  C
  C2514    1.0000 0.16118  0.62627  0.64588  Biso   1.000  C
  C2515    1.0000 0.16118  0.37373  0.35412  Biso   1.000  C
  C2516    1.0000 0.83882  0.37373  0.64588  Biso   1.000  C
  C2517    1.0000 0.62627  0.35412  0.83882  Biso   1.000  C
  C2518    1.0000 0.62627  0.64588  0.16118  Biso   1.000  C
  C2519    1.0000 0.37373  0.35412  0.16118  Biso   1.000  C
  C2520    1.0000 0.37373  0.64588  0.83882  Biso   1.000  C
  C2521    1.0000 0.33882  0.35412  0.62627  Biso   1.000  C
  C2522    1.0000 0.66118  0.64588  0.62627  Biso   1.000  C
  C2523    1.0000 0.66118  0.35412  0.37373  Biso   1.000  C
  C2524    1.0000 0.33882  0.64588  0.37373  Biso   1.000  C
  C2525    1.0000 0.12627  0.83882  0.35412  Biso   1.000  C
  C2526    1.0000 0.12627  0.16118  0.64588  Biso   1.000  C
  C2527    1.0000 0.87373  0.16118  0.35412  Biso   1.000  C
  C2528    1.0000 0.87373  0.83882  0.64588  Biso   1.000  C
  C2529    1.0000 0.85412  0.62627  0.83882  Biso   1.000  C
  C2530    1.0000 0.14588  0.62627  0.16118  Biso   1.000  C
  C2531    1.0000 0.85412  0.37373  0.16118  Biso   1.000  C
  C2532    1.0000 0.14588  0.37373  0.83882  Biso   1.000  C
  C2533    1.0000 0.35412  0.33882  0.12627  Biso   1.000  C
  C2534    1.0000 0.64588  0.66118  0.12627  Biso   1.000  C
  C2535    1.0000 0.35412  0.66118  0.87373  Biso   1.000  C
  C2536    1.0000 0.64588  0.33882  0.87373  Biso   1.000  C
  C2537    1.0000 0.83882  0.12627  0.85412  Biso   1.000  C
  C2538    1.0000 0.16118  0.12627  0.14588  Biso   1.000  C
  C2539    1.0000 0.16118  0.87373  0.85412  Biso   1.000  C
  C2540    1.0000 0.83882  0.87373  0.14588  Biso   1.000  C
  C2541    1.0000 0.62627  0.85412  0.33882  Biso   1.000  C
  C2542    1.0000 0.62627  0.14588  0.66118  Biso   1.000  C
  C2543    1.0000 0.37373  0.85412  0.66118  Biso   1.000  C
  C2544    1.0000 0.37373  0.14588  0.33882  Biso   1.000  C
  C2545    1.0000 0.83882  0.85412  0.62627  Biso   1.000  C
  C2546    1.0000 0.16118  0.14588  0.62627  Biso   1.000  C
  C2547    1.0000 0.16118  0.85412  0.37373  Biso   1.000  C
  C2548    1.0000 0.83882  0.14588  0.37373  Biso   1.000  C
  C2549    1.0000 0.62627  0.33882  0.35412  Biso   1.000  C
  C2550    1.0000 0.62627  0.66118  0.64588  Biso   1.000  C
  C2551    1.0000 0.37373  0.66118  0.35412  Biso   1.000  C
  C2552    1.0000 0.37373  0.33882  0.64588  Biso   1.000  C
  C2553    1.0000 0.35412  0.12627  0.83882  Biso   1.000  C
  C2554    1.0000 0.64588  0.12627  0.16118  Biso   1.000  C
  C2555    1.0000 0.35412  0.87373  0.16118  Biso   1.000  C
  C2556    1.0000 0.64588  0.87373  0.83882  Biso   1.000  C
  C2557    1.0000 0.85412  0.83882  0.12627  Biso   1.000  C
  C2558    1.0000 0.14588  0.16118  0.12627  Biso   1.000  C
  C2559    1.0000 0.85412  0.16118  0.87373  Biso   1.000  C
  C2560    1.0000 0.14588  0.83882  0.87373  Biso   1.000  C
  C2561    1.0000 0.33882  0.62627  0.85412  Biso   1.000  C
  C2562    1.0000 0.66118  0.62627  0.14588  Biso   1.000  C
  C2563    1.0000 0.66118  0.37373  0.85412  Biso   1.000  C
  C2564    1.0000 0.33882  0.37373  0.14588  Biso   1.000  C
  C2565    1.0000 0.12627  0.35412  0.33882  Biso   1.000  C
  C2566    1.0000 0.12627  0.64588  0.66118  Biso   1.000  C
  C2567    1.0000 0.87373  0.35412  0.66118  Biso   1.000  C
  C2568    1.0000 0.87373  0.64588  0.33882  Biso   1.000  C
  C2569    1.0000 0.83882  0.35412  0.12627  Biso   1.000  C
  C2570    1.0000 0.16118  0.64588  0.12627  Biso   1.000  C
  C2571    1.0000 0.16118  0.35412  0.87373  Biso   1.000  C
  C2572    1.0000 0.83882  0.64588  0.87373  Biso   1.000  C
  C2573    1.0000 0.62627  0.83882  0.85412  Biso   1.000  C
  C2574    1.0000 0.62627  0.16118  0.14588  Biso   1.000  C
  C2575    1.0000 0.37373  0.16118  0.85412  Biso   1.000  C
  C2576    1.0000 0.37373  0.83882  0.14588  Biso   1.000  C
  C2577    1.0000 0.35412  0.62627  0.33882  Biso   1.000  C
  C2578    1.0000 0.64588  0.62627  0.66118  Biso   1.000  C
  C2579    1.0000 0.35412  0.37373  0.66118  Biso   1.000  C
  C2580    1.0000 0.64588  0.37373  0.33882  Biso   1.000  C
  C2581    1.0000 0.85412  0.33882  0.62627  Biso   1.000  C
  C2582    1.0000 0.14588  0.66118  0.62627  Biso   1.000  C
  C2583    1.0000 0.85412  0.66118  0.37373  Biso   1.000  C
  C2584    1.0000 0.14588  0.33882  0.37373  Biso   1.000  C
  C2585    1.0000 0.33882  0.12627  0.35412  Biso   1.000  C
  C2586    1.0000 0.66118  0.12627  0.64588  Biso   1.000  C
  C2587    1.0000 0.66118  0.87373  0.35412  Biso   1.000  C
  C2588    1.0000 0.33882  0.87373  0.64588  Biso   1.000  C
  C2589    1.0000 0.12627  0.85412  0.83882  Biso   1.000  C
  C2590    1.0000 0.12627  0.14588  0.16118  Biso   1.000  C
  C2591    1.0000 0.87373  0.85412  0.16118  Biso   1.000  C
  C2592    1.0000 0.87373  0.14588  0.83882  Biso   1.000  C
  H2305    1.0000 0.32730  0.85310  0.11380  Biso   1.000  H
  H2306    1.0000 0.67270  0.14690  0.11380  Biso   1.000  H
  H2307    1.0000 0.67270  0.85310  0.88620  Biso   1.000  H
  H2308    1.0000 0.32730  0.14690  0.88620  Biso   1.000  H
  H2309    1.0000 0.11380  0.32730  0.85310  Biso   1.000  H
  H2310    1.0000 0.11380  0.67270  0.14690  Biso   1.000  H
  H2311    1.0000 0.88620  0.67270  0.85310  Biso   1.000  H
  H2312    1.0000 0.88620  0.32730  0.14690  Biso   1.000  H
  H2313    1.0000 0.85310  0.11380  0.32730  Biso   1.000  H
  H2314    1.0000 0.14690  0.11380  0.67270  Biso   1.000  H
  H2315    1.0000 0.85310  0.88620  0.67270  Biso   1.000  H
  H2316    1.0000 0.14690  0.88620  0.32730  Biso   1.000  H
  H2317    1.0000 0.35310  0.82730  0.61380  Biso   1.000  H
  H2318    1.0000 0.64690  0.17270  0.61380  Biso   1.000  H
  H2319    1.0000 0.35310  0.17270  0.38620  Biso   1.000  H
  H2320    1.0000 0.64690  0.82730  0.38620  Biso   1.000  H
  H2321    1.0000 0.82730  0.61380  0.35310  Biso   1.000  H
  H2322    1.0000 0.17270  0.61380  0.64690  Biso   1.000  H
  H2323    1.0000 0.17270  0.38620  0.35310  Biso   1.000  H
  H2324    1.0000 0.82730  0.38620  0.64690  Biso   1.000  H
  H2325    1.0000 0.61380  0.35310  0.82730  Biso   1.000  H
  H2326    1.0000 0.61380  0.64690  0.17270  Biso   1.000  H
  H2327    1.0000 0.38620  0.35310  0.17270  Biso   1.000  H
  H2328    1.0000 0.38620  0.64690  0.82730  Biso   1.000  H
  H2329    1.0000 0.32730  0.35310  0.61380  Biso   1.000  H
  H2330    1.0000 0.67270  0.64690  0.61380  Biso   1.000  H
  H2331    1.0000 0.67270  0.35310  0.38620  Biso   1.000  H
  H2332    1.0000 0.32730  0.64690  0.38620  Biso   1.000  H
  H2333    1.0000 0.11380  0.82730  0.35310  Biso   1.000  H
  H2334    1.0000 0.11380  0.17270  0.64690  Biso   1.000  H
  H2335    1.0000 0.88620  0.17270  0.35310  Biso   1.000  H
  H2336    1.0000 0.88620  0.82730  0.64690  Biso   1.000  H
  H2337    1.0000 0.85310  0.61380  0.82730  Biso   1.000  H
  H2338    1.0000 0.14690  0.61380  0.17270  Biso   1.000  H
  H2339    1.0000 0.85310  0.38620  0.17270  Biso   1.000  H
  H2340    1.0000 0.14690  0.38620  0.82730  Biso   1.000  H
  H2341    1.0000 0.35310  0.32730  0.11380  Biso   1.000  H
  H2342    1.0000 0.64690  0.67270  0.11380  Biso   1.000  H
  H2343    1.0000 0.35310  0.67270  0.88620  Biso   1.000  H
  H2344    1.0000 0.64690  0.32730  0.88620  Biso   1.000  H
  H2345    1.0000 0.82730  0.11380  0.85310  Biso   1.000  H
  H2346    1.0000 0.17270  0.11380  0.14690  Biso   1.000  H
  H2347    1.0000 0.17270  0.88620  0.85310  Biso   1.000  H
  H2348    1.0000 0.82730  0.88620  0.14690  Biso   1.000  H
  H2349    1.0000 0.61380  0.85310  0.32730  Biso   1.000  H
  H2350    1.0000 0.61380  0.14690  0.67270  Biso   1.000  H
  H2351    1.0000 0.38620  0.85310  0.67270  Biso   1.000  H
  H2352    1.0000 0.38620  0.14690  0.32730  Biso   1.000  H
  H2353    1.0000 0.82730  0.85310  0.61380  Biso   1.000  H
  H2354    1.0000 0.17270  0.14690  0.61380  Biso   1.000  H
  H2355    1.0000 0.17270  0.85310  0.38620  Biso   1.000  H
  H2356    1.0000 0.82730  0.14690  0.38620  Biso   1.000  H
  H2357    1.0000 0.61380  0.32730  0.35310  Biso   1.000  H
  H2358    1.0000 0.61380  0.67270  0.64690  Biso   1.000  H
  H2359    1.0000 0.38620  0.67270  0.35310  Biso   1.000  H
  H2360    1.0000 0.38620  0.32730  0.64690  Biso   1.000  H
  H2361    1.0000 0.35310  0.11380  0.82730  Biso   1.000  H
  H2362    1.0000 0.64690  0.11380  0.17270  Biso   1.000  H
  H2363    1.0000 0.35310  0.88620  0.17270  Biso   1.000  H
  H2364    1.0000 0.64690  0.88620  0.82730  Biso   1.000  H
  H2365    1.0000 0.85310  0.82730  0.11380  Biso   1.000  H
  H2366    1.0000 0.14690  0.17270  0.11380  Biso   1.000  H
  H2367    1.0000 0.85310  0.17270  0.88620  Biso   1.000  H
  H2368    1.0000 0.14690  0.82730  0.88620  Biso   1.000  H
  H2369    1.0000 0.32730  0.61380  0.85310  Biso   1.000  H
  H2370    1.0000 0.67270  0.61380  0.14690  Biso   1.000  H
  H2371    1.0000 0.67270  0.38620  0.85310  Biso   1.000  H
  H2372    1.0000 0.32730  0.38620  0.14690  Biso   1.000  H
  H2373    1.0000 0.11380  0.35310  0.32730  Biso   1.000  H
  H2374    1.0000 0.11380  0.64690  0.67270  Biso   1.000  H
  H2375    1.0000 0.88620  0.35310  0.67270  Biso   1.000  H
  H2376    1.0000 0.88620  0.64690  0.32730  Biso   1.000  H
  H2377    1.0000 0.82730  0.35310  0.11380  Biso   1.000  H
  H2378    1.0000 0.17270  0.64690  0.11380  Biso   1.000  H
  H2379    1.0000 0.17270  0.35310  0.88620  Biso   1.000  H
  H2380    1.0000 0.82730  0.64690  0.88620  Biso   1.000  H
  H2381    1.0000 0.61380  0.82730  0.85310  Biso   1.000  H
  H2382    1.0000 0.61380  0.17270  0.14690  Biso   1.000  H
  H2383    1.0000 0.38620  0.17270  0.85310  Biso   1.000  H
  H2384    1.0000 0.38620  0.82730  0.14690  Biso   1.000  H
  H2385    1.0000 0.35310  0.61380  0.32730  Biso   1.000  H
  H2386    1.0000 0.64690  0.61380  0.67270  Biso   1.000  H
  H2387    1.0000 0.35310  0.38620  0.67270  Biso   1.000  H
  H2388    1.0000 0.64690  0.38620  0.32730  Biso   1.000  H
  H2389    1.0000 0.85310  0.32730  0.61380  Biso   1.000  H
  H2390    1.0000 0.14690  0.67270  0.61380  Biso   1.000  H
  H2391    1.0000 0.85310  0.67270  0.38620  Biso   1.000  H
  H2392    1.0000 0.14690  0.32730  0.38620  Biso   1.000  H
  H2393    1.0000 0.32730  0.11380  0.35310  Biso   1.000  H
  H2394    1.0000 0.67270  0.11380  0.64690  Biso   1.000  H
  H2395    1.0000 0.67270  0.88620  0.35310  Biso   1.000  H
  H2396    1.0000 0.32730  0.88620  0.64690  Biso   1.000  H
  H2397    1.0000 0.11380  0.85310  0.82730  Biso   1.000  H
  H2398    1.0000 0.11380  0.14690  0.17270  Biso   1.000  H
  H2399    1.0000 0.88620  0.85310  0.17270  Biso   1.000  H
  H2400    1.0000 0.88620  0.14690  0.82730  Biso   1.000  H
  C2593    1.0000 0.20261  0.95257  0.23416  Biso   1.000  C
  C2594    1.0000 0.79739  0.04743  0.23416  Biso   1.000  C
  C2595    1.0000 0.79739  0.95257  0.76584  Biso   1.000  C
  C2596    1.0000 0.20261  0.04743  0.76584  Biso   1.000  C
  C2597    1.0000 0.23416  0.20261  0.95257  Biso   1.000  C
  C2598    1.0000 0.23416  0.79739  0.04743  Biso   1.000  C
  C2599    1.0000 0.76584  0.79739  0.95257  Biso   1.000  C
  C2600    1.0000 0.76584  0.20261  0.04743  Biso   1.000  C
  C2601    1.0000 0.95257  0.23416  0.20261  Biso   1.000  C
  C2602    1.0000 0.04743  0.23416  0.79739  Biso   1.000  C
  C2603    1.0000 0.95257  0.76584  0.79739  Biso   1.000  C
  C2604    1.0000 0.04743  0.76584  0.20261  Biso   1.000  C
  C2605    1.0000 0.45257  0.70261  0.73416  Biso   1.000  C
  C2606    1.0000 0.54743  0.29739  0.73416  Biso   1.000  C
  C2607    1.0000 0.45257  0.29739  0.26584  Biso   1.000  C
  C2608    1.0000 0.54743  0.70261  0.26584  Biso   1.000  C
  C2609    1.0000 0.70261  0.73416  0.45257  Biso   1.000  C
  C2610    1.0000 0.29739  0.73416  0.54743  Biso   1.000  C
  C2611    1.0000 0.29739  0.26584  0.45257  Biso   1.000  C
  C2612    1.0000 0.70261  0.26584  0.54743  Biso   1.000  C
  C2613    1.0000 0.73416  0.45257  0.70261  Biso   1.000  C
  C2614    1.0000 0.73416  0.54743  0.29739  Biso   1.000  C
  C2615    1.0000 0.26584  0.45257  0.29739  Biso   1.000  C
  C2616    1.0000 0.26584  0.54743  0.70261  Biso   1.000  C
  C2617    1.0000 0.20261  0.45257  0.73416  Biso   1.000  C
  C2618    1.0000 0.79739  0.54743  0.73416  Biso   1.000  C
  C2619    1.0000 0.79739  0.45257  0.26584  Biso   1.000  C
  C2620    1.0000 0.20261  0.54743  0.26584  Biso   1.000  C
  C2621    1.0000 0.23416  0.70261  0.45257  Biso   1.000  C
  C2622    1.0000 0.23416  0.29739  0.54743  Biso   1.000  C
  C2623    1.0000 0.76584  0.29739  0.45257  Biso   1.000  C
  C2624    1.0000 0.76584  0.70261  0.54743  Biso   1.000  C
  C2625    1.0000 0.95257  0.73416  0.70261  Biso   1.000  C
  C2626    1.0000 0.04743  0.73416  0.29739  Biso   1.000  C
  C2627    1.0000 0.95257  0.26584  0.29739  Biso   1.000  C
  C2628    1.0000 0.04743  0.26584  0.70261  Biso   1.000  C
  C2629    1.0000 0.45257  0.20261  0.23416  Biso   1.000  C
  C2630    1.0000 0.54743  0.79739  0.23416  Biso   1.000  C
  C2631    1.0000 0.45257  0.79739  0.76584  Biso   1.000  C
  C2632    1.0000 0.54743  0.20261  0.76584  Biso   1.000  C
  C2633    1.0000 0.70261  0.23416  0.95257  Biso   1.000  C
  C2634    1.0000 0.29739  0.23416  0.04743  Biso   1.000  C
  C2635    1.0000 0.29739  0.76584  0.95257  Biso   1.000  C
  C2636    1.0000 0.70261  0.76584  0.04743  Biso   1.000  C
  C2637    1.0000 0.73416  0.95257  0.20261  Biso   1.000  C
  C2638    1.0000 0.73416  0.04743  0.79739  Biso   1.000  C
  C2639    1.0000 0.26584  0.95257  0.79739  Biso   1.000  C
  C2640    1.0000 0.26584  0.04743  0.20261  Biso   1.000  C
  C2641    1.0000 0.70261  0.95257  0.73416  Biso   1.000  C
  C2642    1.0000 0.29739  0.04743  0.73416  Biso   1.000  C
  C2643    1.0000 0.29739  0.95257  0.26584  Biso   1.000  C
  C2644    1.0000 0.70261  0.04743  0.26584  Biso   1.000  C
  C2645    1.0000 0.73416  0.20261  0.45257  Biso   1.000  C
  C2646    1.0000 0.73416  0.79739  0.54743  Biso   1.000  C
  C2647    1.0000 0.26584  0.79739  0.45257  Biso   1.000  C
  C2648    1.0000 0.26584  0.20261  0.54743  Biso   1.000  C
  C2649    1.0000 0.45257  0.23416  0.70261  Biso   1.000  C
  C2650    1.0000 0.54743  0.23416  0.29739  Biso   1.000  C
  C2651    1.0000 0.45257  0.76584  0.29739  Biso   1.000  C
  C2652    1.0000 0.54743  0.76584  0.70261  Biso   1.000  C
  C2653    1.0000 0.95257  0.70261  0.23416  Biso   1.000  C
  C2654    1.0000 0.04743  0.29739  0.23416  Biso   1.000  C
  C2655    1.0000 0.95257  0.29739  0.76584  Biso   1.000  C
  C2656    1.0000 0.04743  0.70261  0.76584  Biso   1.000  C
  C2657    1.0000 0.20261  0.73416  0.95257  Biso   1.000  C
  C2658    1.0000 0.79739  0.73416  0.04743  Biso   1.000  C
  C2659    1.0000 0.79739  0.26584  0.95257  Biso   1.000  C
  C2660    1.0000 0.20261  0.26584  0.04743  Biso   1.000  C
  C2661    1.0000 0.23416  0.45257  0.20261  Biso   1.000  C
  C2662    1.0000 0.23416  0.54743  0.79739  Biso   1.000  C
  C2663    1.0000 0.76584  0.45257  0.79739  Biso   1.000  C
  C2664    1.0000 0.76584  0.54743  0.20261  Biso   1.000  C
  C2665    1.0000 0.70261  0.45257  0.23416  Biso   1.000  C
  C2666    1.0000 0.29739  0.54743  0.23416  Biso   1.000  C
  C2667    1.0000 0.29739  0.45257  0.76584  Biso   1.000  C
  C2668    1.0000 0.70261  0.54743  0.76584  Biso   1.000  C
  C2669    1.0000 0.73416  0.70261  0.95257  Biso   1.000  C
  C2670    1.0000 0.73416  0.29739  0.04743  Biso   1.000  C
  C2671    1.0000 0.26584  0.29739  0.95257  Biso   1.000  C
  C2672    1.0000 0.26584  0.70261  0.04743  Biso   1.000  C
  C2673    1.0000 0.45257  0.73416  0.20261  Biso   1.000  C
  C2674    1.0000 0.54743  0.73416  0.79739  Biso   1.000  C
  C2675    1.0000 0.45257  0.26584  0.79739  Biso   1.000  C
  C2676    1.0000 0.54743  0.26584  0.20261  Biso   1.000  C
  C2677    1.0000 0.95257  0.20261  0.73416  Biso   1.000  C
  C2678    1.0000 0.04743  0.79739  0.73416  Biso   1.000  C
  C2679    1.0000 0.95257  0.79739  0.26584  Biso   1.000  C
  C2680    1.0000 0.04743  0.20261  0.26584  Biso   1.000  C
  C2681    1.0000 0.20261  0.23416  0.45257  Biso   1.000  C
  C2682    1.0000 0.79739  0.23416  0.54743  Biso   1.000  C
  C2683    1.0000 0.79739  0.76584  0.45257  Biso   1.000  C
  C2684    1.0000 0.20261  0.76584  0.54743  Biso   1.000  C
  C2685    1.0000 0.23416  0.95257  0.70261  Biso   1.000  C
  C2686    1.0000 0.23416  0.04743  0.29739  Biso   1.000  C
  C2687    1.0000 0.76584  0.95257  0.29739  Biso   1.000  C
  C2688    1.0000 0.76584  0.04743  0.70261  Biso   1.000  C
  H2401    1.0000 0.20540  0.96530  0.24510  Biso   1.000  H
  H2402    1.0000 0.79460  0.03470  0.24510  Biso   1.000  H
  H2403    1.0000 0.79460  0.96530  0.75490  Biso   1.000  H
  H2404    1.0000 0.20540  0.03470  0.75490  Biso   1.000  H
  H2405    1.0000 0.24510  0.20540  0.96530  Biso   1.000  H
  H2406    1.0000 0.24510  0.79460  0.03470  Biso   1.000  H
  H2407    1.0000 0.75490  0.79460  0.96530  Biso   1.000  H
  H2408    1.0000 0.75490  0.20540  0.03470  Biso   1.000  H
  H2409    1.0000 0.96530  0.24510  0.20540  Biso   1.000  H
  H2410    1.0000 0.03470  0.24510  0.79460  Biso   1.000  H
  H2411    1.0000 0.96530  0.75490  0.79460  Biso   1.000  H
  H2412    1.0000 0.03470  0.75490  0.20540  Biso   1.000  H
  H2413    1.0000 0.46530  0.70540  0.74510  Biso   1.000  H
  H2414    1.0000 0.53470  0.29460  0.74510  Biso   1.000  H
  H2415    1.0000 0.46530  0.29460  0.25490  Biso   1.000  H
  H2416    1.0000 0.53470  0.70540  0.25490  Biso   1.000  H
  H2417    1.0000 0.70540  0.74510  0.46530  Biso   1.000  H
  H2418    1.0000 0.29460  0.74510  0.53470  Biso   1.000  H
  H2419    1.0000 0.29460  0.25490  0.46530  Biso   1.000  H
  H2420    1.0000 0.70540  0.25490  0.53470  Biso   1.000  H
  H2421    1.0000 0.74510  0.46530  0.70540  Biso   1.000  H
  H2422    1.0000 0.74510  0.53470  0.29460  Biso   1.000  H
  H2423    1.0000 0.25490  0.46530  0.29460  Biso   1.000  H
  H2424    1.0000 0.25490  0.53470  0.70540  Biso   1.000  H
  H2425    1.0000 0.20540  0.46530  0.74510  Biso   1.000  H
  H2426    1.0000 0.79460  0.53470  0.74510  Biso   1.000  H
  H2427    1.0000 0.79460  0.46530  0.25490  Biso   1.000  H
  H2428    1.0000 0.20540  0.53470  0.25490  Biso   1.000  H
  H2429    1.0000 0.24510  0.70540  0.46530  Biso   1.000  H
  H2430    1.0000 0.24510  0.29460  0.53470  Biso   1.000  H
  H2431    1.0000 0.75490  0.29460  0.46530  Biso   1.000  H
  H2432    1.0000 0.75490  0.70540  0.53470  Biso   1.000  H
  H2433    1.0000 0.96530  0.74510  0.70540  Biso   1.000  H
  H2434    1.0000 0.03470  0.74510  0.29460  Biso   1.000  H
  H2435    1.0000 0.96530  0.25490  0.29460  Biso   1.000  H
  H2436    1.0000 0.03470  0.25490  0.70540  Biso   1.000  H
  H2437    1.0000 0.46530  0.20540  0.24510  Biso   1.000  H
  H2438    1.0000 0.53470  0.79460  0.24510  Biso   1.000  H
  H2439    1.0000 0.46530  0.79460  0.75490  Biso   1.000  H
  H2440    1.0000 0.53470  0.20540  0.75490  Biso   1.000  H
  H2441    1.0000 0.70540  0.24510  0.96530  Biso   1.000  H
  H2442    1.0000 0.29460  0.24510  0.03470  Biso   1.000  H
  H2443    1.0000 0.29460  0.75490  0.96530  Biso   1.000  H
  H2444    1.0000 0.70540  0.75490  0.03470  Biso   1.000  H
  H2445    1.0000 0.74510  0.96530  0.20540  Biso   1.000  H
  H2446    1.0000 0.74510  0.03470  0.79460  Biso   1.000  H
  H2447    1.0000 0.25490  0.96530  0.79460  Biso   1.000  H
  H2448    1.0000 0.25490  0.03470  0.20540  Biso   1.000  H
  H2449    1.0000 0.70540  0.96530  0.74510  Biso   1.000  H
  H2450    1.0000 0.29460  0.03470  0.74510  Biso   1.000  H
  H2451    1.0000 0.29460  0.96530  0.25490  Biso   1.000  H
  H2452    1.0000 0.70540  0.03470  0.25490  Biso   1.000  H
  H2453    1.0000 0.74510  0.20540  0.46530  Biso   1.000  H
  H2454    1.0000 0.74510  0.79460  0.53470  Biso   1.000  H
  H2455    1.0000 0.25490  0.79460  0.46530  Biso   1.000  H
  H2456    1.0000 0.25490  0.20540  0.53470  Biso   1.000  H
  H2457    1.0000 0.46530  0.24510  0.70540  Biso   1.000  H
  H2458    1.0000 0.53470  0.24510  0.29460  Biso   1.000  H
  H2459    1.0000 0.46530  0.75490  0.29460  Biso   1.000  H
  H2460    1.0000 0.53470  0.75490  0.70540  Biso   1.000  H
  H2461    1.0000 0.96530  0.70540  0.24510  Biso   1.000  H
  H2462    1.0000 0.03470  0.29460  0.24510  Biso   1.000  H
  H2463    1.0000 0.96530  0.29460  0.75490  Biso   1.000  H
  H2464    1.0000 0.03470  0.70540  0.75490  Biso   1.000  H
  H2465    1.0000 0.20540  0.74510  0.96530  Biso   1.000  H
  H2466    1.0000 0.79460  0.74510  0.03470  Biso   1.000  H
  H2467    1.0000 0.79460  0.25490  0.96530  Biso   1.000  H
  H2468    1.0000 0.20540  0.25490  0.03470  Biso   1.000  H
  H2469    1.0000 0.24510  0.46530  0.20540  Biso   1.000  H
  H2470    1.0000 0.24510  0.53470  0.79460  Biso   1.000  H
  H2471    1.0000 0.75490  0.46530  0.79460  Biso   1.000  H
  H2472    1.0000 0.75490  0.53470  0.20540  Biso   1.000  H
  H2473    1.0000 0.70540  0.46530  0.24510  Biso   1.000  H
  H2474    1.0000 0.29460  0.53470  0.24510  Biso   1.000  H
  H2475    1.0000 0.29460  0.46530  0.75490  Biso   1.000  H
  H2476    1.0000 0.70540  0.53470  0.75490  Biso   1.000  H
  H2477    1.0000 0.74510  0.70540  0.96530  Biso   1.000  H
  H2478    1.0000 0.74510  0.29460  0.03470  Biso   1.000  H
  H2479    1.0000 0.25490  0.29460  0.96530  Biso   1.000  H
  H2480    1.0000 0.25490  0.70540  0.03470  Biso   1.000  H
  H2481    1.0000 0.46530  0.74510  0.20540  Biso   1.000  H
  H2482    1.0000 0.53470  0.74510  0.79460  Biso   1.000  H
  H2483    1.0000 0.46530  0.25490  0.79460  Biso   1.000  H
  H2484    1.0000 0.53470  0.25490  0.20540  Biso   1.000  H
  H2485    1.0000 0.96530  0.20540  0.74510  Biso   1.000  H
  H2486    1.0000 0.03470  0.79460  0.74510  Biso   1.000  H
  H2487    1.0000 0.96530  0.79460  0.25490  Biso   1.000  H
  H2488    1.0000 0.03470  0.20540  0.25490  Biso   1.000  H
  H2489    1.0000 0.20540  0.24510  0.46530  Biso   1.000  H
  H2490    1.0000 0.79460  0.24510  0.53470  Biso   1.000  H
  H2491    1.0000 0.79460  0.75490  0.46530  Biso   1.000  H
  H2492    1.0000 0.20540  0.75490  0.53470  Biso   1.000  H
  H2493    1.0000 0.24510  0.96530  0.70540  Biso   1.000  H
  H2494    1.0000 0.24510  0.03470  0.29460  Biso   1.000  H
  H2495    1.0000 0.75490  0.96530  0.29460  Biso   1.000  H
  H2496    1.0000 0.75490  0.03470  0.70540  Biso   1.000  H
  C2689    1.0000 0.18116  0.95206  0.22132  Biso   1.000  C
  C2690    1.0000 0.81884  0.04794  0.22132  Biso   1.000  C
  C2691    1.0000 0.81884  0.95206  0.77868  Biso   1.000  C
  C2692    1.0000 0.18116  0.04794  0.77868  Biso   1.000  C
  C2693    1.0000 0.22132  0.18116  0.95206  Biso   1.000  C
  C2694    1.0000 0.22132  0.81884  0.04794  Biso   1.000  C
  C2695    1.0000 0.77868  0.81884  0.95206  Biso   1.000  C
  C2696    1.0000 0.77868  0.18116  0.04794  Biso   1.000  C
  C2697    1.0000 0.95206  0.22132  0.18116  Biso   1.000  C
  C2698    1.0000 0.04794  0.22132  0.81884  Biso   1.000  C
  C2699    1.0000 0.95206  0.77868  0.81884  Biso   1.000  C
  C2700    1.0000 0.04794  0.77868  0.18116  Biso   1.000  C
  C2701    1.0000 0.45206  0.68116  0.72132  Biso   1.000  C
  C2702    1.0000 0.54794  0.31884  0.72132  Biso   1.000  C
  C2703    1.0000 0.45206  0.31884  0.27868  Biso   1.000  C
  C2704    1.0000 0.54794  0.68116  0.27868  Biso   1.000  C
  C2705    1.0000 0.68116  0.72132  0.45206  Biso   1.000  C
  C2706    1.0000 0.31884  0.72132  0.54794  Biso   1.000  C
  C2707    1.0000 0.31884  0.27868  0.45206  Biso   1.000  C
  C2708    1.0000 0.68116  0.27868  0.54794  Biso   1.000  C
  C2709    1.0000 0.72132  0.45206  0.68116  Biso   1.000  C
  C2710    1.0000 0.72132  0.54794  0.31884  Biso   1.000  C
  C2711    1.0000 0.27868  0.45206  0.31884  Biso   1.000  C
  C2712    1.0000 0.27868  0.54794  0.68116  Biso   1.000  C
  C2713    1.0000 0.18116  0.45206  0.72132  Biso   1.000  C
  C2714    1.0000 0.81884  0.54794  0.72132  Biso   1.000  C
  C2715    1.0000 0.81884  0.45206  0.27868  Biso   1.000  C
  C2716    1.0000 0.18116  0.54794  0.27868  Biso   1.000  C
  C2717    1.0000 0.22132  0.68116  0.45206  Biso   1.000  C
  C2718    1.0000 0.22132  0.31884  0.54794  Biso   1.000  C
  C2719    1.0000 0.77868  0.31884  0.45206  Biso   1.000  C
  C2720    1.0000 0.77868  0.68116  0.54794  Biso   1.000  C
  C2721    1.0000 0.95206  0.72132  0.68116  Biso   1.000  C
  C2722    1.0000 0.04794  0.72132  0.31884  Biso   1.000  C
  C2723    1.0000 0.95206  0.27868  0.31884  Biso   1.000  C
  C2724    1.0000 0.04794  0.27868  0.68116  Biso   1.000  C
  C2725    1.0000 0.45206  0.18116  0.22132  Biso   1.000  C
  C2726    1.0000 0.54794  0.81884  0.22132  Biso   1.000  C
  C2727    1.0000 0.45206  0.81884  0.77868  Biso   1.000  C
  C2728    1.0000 0.54794  0.18116  0.77868  Biso   1.000  C
  C2729    1.0000 0.68116  0.22132  0.95206  Biso   1.000  C
  C2730    1.0000 0.31884  0.22132  0.04794  Biso   1.000  C
  C2731    1.0000 0.31884  0.77868  0.95206  Biso   1.000  C
  C2732    1.0000 0.68116  0.77868  0.04794  Biso   1.000  C
  C2733    1.0000 0.72132  0.95206  0.18116  Biso   1.000  C
  C2734    1.0000 0.72132  0.04794  0.81884  Biso   1.000  C
  C2735    1.0000 0.27868  0.95206  0.81884  Biso   1.000  C
  C2736    1.0000 0.27868  0.04794  0.18116  Biso   1.000  C
  C2737    1.0000 0.68116  0.95206  0.72132  Biso   1.000  C
  C2738    1.0000 0.31884  0.04794  0.72132  Biso   1.000  C
  C2739    1.0000 0.31884  0.95206  0.27868  Biso   1.000  C
  C2740    1.0000 0.68116  0.04794  0.27868  Biso   1.000  C
  C2741    1.0000 0.72132  0.18116  0.45206  Biso   1.000  C
  C2742    1.0000 0.72132  0.81884  0.54794  Biso   1.000  C
  C2743    1.0000 0.27868  0.81884  0.45206  Biso   1.000  C
  C2744    1.0000 0.27868  0.18116  0.54794  Biso   1.000  C
  C2745    1.0000 0.45206  0.22132  0.68116  Biso   1.000  C
  C2746    1.0000 0.54794  0.22132  0.31884  Biso   1.000  C
  C2747    1.0000 0.45206  0.77868  0.31884  Biso   1.000  C
  C2748    1.0000 0.54794  0.77868  0.68116  Biso   1.000  C
  C2749    1.0000 0.95206  0.68116  0.22132  Biso   1.000  C
  C2750    1.0000 0.04794  0.31884  0.22132  Biso   1.000  C
  C2751    1.0000 0.95206  0.31884  0.77868  Biso   1.000  C
  C2752    1.0000 0.04794  0.68116  0.77868  Biso   1.000  C
  C2753    1.0000 0.18116  0.72132  0.95206  Biso   1.000  C
  C2754    1.0000 0.81884  0.72132  0.04794  Biso   1.000  C
  C2755    1.0000 0.81884  0.27868  0.95206  Biso   1.000  C
  C2756    1.0000 0.18116  0.27868  0.04794  Biso   1.000  C
  C2757    1.0000 0.22132  0.45206  0.18116  Biso   1.000  C
  C2758    1.0000 0.22132  0.54794  0.81884  Biso   1.000  C
  C2759    1.0000 0.77868  0.45206  0.81884  Biso   1.000  C
  C2760    1.0000 0.77868  0.54794  0.18116  Biso   1.000  C
  C2761    1.0000 0.68116  0.45206  0.22132  Biso   1.000  C
  C2762    1.0000 0.31884  0.54794  0.22132  Biso   1.000  C
  C2763    1.0000 0.31884  0.45206  0.77868  Biso   1.000  C
  C2764    1.0000 0.68116  0.54794  0.77868  Biso   1.000  C
  C2765    1.0000 0.72132  0.68116  0.95206  Biso   1.000  C
  C2766    1.0000 0.72132  0.31884  0.04794  Biso   1.000  C
  C2767    1.0000 0.27868  0.31884  0.95206  Biso   1.000  C
  C2768    1.0000 0.27868  0.68116  0.04794  Biso   1.000  C
  C2769    1.0000 0.45206  0.72132  0.18116  Biso   1.000  C
  C2770    1.0000 0.54794  0.72132  0.81884  Biso   1.000  C
  C2771    1.0000 0.45206  0.27868  0.81884  Biso   1.000  C
  C2772    1.0000 0.54794  0.27868  0.18116  Biso   1.000  C
  C2773    1.0000 0.95206  0.18116  0.72132  Biso   1.000  C
  C2774    1.0000 0.04794  0.81884  0.72132  Biso   1.000  C
  C2775    1.0000 0.95206  0.81884  0.27868  Biso   1.000  C
  C2776    1.0000 0.04794  0.18116  0.27868  Biso   1.000  C
  C2777    1.0000 0.18116  0.22132  0.45206  Biso   1.000  C
  C2778    1.0000 0.81884  0.22132  0.54794  Biso   1.000  C
  C2779    1.0000 0.81884  0.77868  0.45206  Biso   1.000  C
  C2780    1.0000 0.18116  0.77868  0.54794  Biso   1.000  C
  C2781    1.0000 0.22132  0.95206  0.68116  Biso   1.000  C
  C2782    1.0000 0.22132  0.04794  0.31884  Biso   1.000  C
  C2783    1.0000 0.77868  0.95206  0.31884  Biso   1.000  C
  C2784    1.0000 0.77868  0.04794  0.68116  Biso   1.000  C
  H2497    1.0000 0.16930  0.96400  0.22370  Biso   1.000  H
  H2498    1.0000 0.83070  0.03600  0.22370  Biso   1.000  H
  H2499    1.0000 0.83070  0.96400  0.77630  Biso   1.000  H
  H2500    1.0000 0.16930  0.03600  0.77630  Biso   1.000  H
  H2501    1.0000 0.22370  0.16930  0.96400  Biso   1.000  H
  H2502    1.0000 0.22370  0.83070  0.03600  Biso   1.000  H
  H2503    1.0000 0.77630  0.83070  0.96400  Biso   1.000  H
  H2504    1.0000 0.77630  0.16930  0.03600  Biso   1.000  H
  H2505    1.0000 0.96400  0.22370  0.16930  Biso   1.000  H
  H2506    1.0000 0.03600  0.22370  0.83070  Biso   1.000  H
  H2507    1.0000 0.96400  0.77630  0.83070  Biso   1.000  H
  H2508    1.0000 0.03600  0.77630  0.16930  Biso   1.000  H
  H2509    1.0000 0.46400  0.66930  0.72370  Biso   1.000  H
  H2510    1.0000 0.53600  0.33070  0.72370  Biso   1.000  H
  H2511    1.0000 0.46400  0.33070  0.27630  Biso   1.000  H
  H2512    1.0000 0.53600  0.66930  0.27630  Biso   1.000  H
  H2513    1.0000 0.66930  0.72370  0.46400  Biso   1.000  H
  H2514    1.0000 0.33070  0.72370  0.53600  Biso   1.000  H
  H2515    1.0000 0.33070  0.27630  0.46400  Biso   1.000  H
  H2516    1.0000 0.66930  0.27630  0.53600  Biso   1.000  H
  H2517    1.0000 0.72370  0.46400  0.66930  Biso   1.000  H
  H2518    1.0000 0.72370  0.53600  0.33070  Biso   1.000  H
  H2519    1.0000 0.27630  0.46400  0.33070  Biso   1.000  H
  H2520    1.0000 0.27630  0.53600  0.66930  Biso   1.000  H
  H2521    1.0000 0.16930  0.46400  0.72370  Biso   1.000  H
  H2522    1.0000 0.83070  0.53600  0.72370  Biso   1.000  H
  H2523    1.0000 0.83070  0.46400  0.27630  Biso   1.000  H
  H2524    1.0000 0.16930  0.53600  0.27630  Biso   1.000  H
  H2525    1.0000 0.22370  0.66930  0.46400  Biso   1.000  H
  H2526    1.0000 0.22370  0.33070  0.53600  Biso   1.000  H
  H2527    1.0000 0.77630  0.33070  0.46400  Biso   1.000  H
  H2528    1.0000 0.77630  0.66930  0.53600  Biso   1.000  H
  H2529    1.0000 0.96400  0.72370  0.66930  Biso   1.000  H
  H2530    1.0000 0.03600  0.72370  0.33070  Biso   1.000  H
  H2531    1.0000 0.96400  0.27630  0.33070  Biso   1.000  H
  H2532    1.0000 0.03600  0.27630  0.66930  Biso   1.000  H
  H2533    1.0000 0.46400  0.16930  0.22370  Biso   1.000  H
  H2534    1.0000 0.53600  0.83070  0.22370  Biso   1.000  H
  H2535    1.0000 0.46400  0.83070  0.77630  Biso   1.000  H
  H2536    1.0000 0.53600  0.16930  0.77630  Biso   1.000  H
  H2537    1.0000 0.66930  0.22370  0.96400  Biso   1.000  H
  H2538    1.0000 0.33070  0.22370  0.03600  Biso   1.000  H
  H2539    1.0000 0.33070  0.77630  0.96400  Biso   1.000  H
  H2540    1.0000 0.66930  0.77630  0.03600  Biso   1.000  H
  H2541    1.0000 0.72370  0.96400  0.16930  Biso   1.000  H
  H2542    1.0000 0.72370  0.03600  0.83070  Biso   1.000  H
  H2543    1.0000 0.27630  0.96400  0.83070  Biso   1.000  H
  H2544    1.0000 0.27630  0.03600  0.16930  Biso   1.000  H
  H2545    1.0000 0.66930  0.96400  0.72370  Biso   1.000  H
  H2546    1.0000 0.33070  0.03600  0.72370  Biso   1.000  H
  H2547    1.0000 0.33070  0.96400  0.27630  Biso   1.000  H
  H2548    1.0000 0.66930  0.03600  0.27630  Biso   1.000  H
  H2549    1.0000 0.72370  0.16930  0.46400  Biso   1.000  H
  H2550    1.0000 0.72370  0.83070  0.53600  Biso   1.000  H
  H2551    1.0000 0.27630  0.83070  0.46400  Biso   1.000  H
  H2552    1.0000 0.27630  0.16930  0.53600  Biso   1.000  H
  H2553    1.0000 0.46400  0.22370  0.66930  Biso   1.000  H
  H2554    1.0000 0.53600  0.22370  0.33070  Biso   1.000  H
  H2555    1.0000 0.46400  0.77630  0.33070  Biso   1.000  H
  H2556    1.0000 0.53600  0.77630  0.66930  Biso   1.000  H
  H2557    1.0000 0.96400  0.66930  0.22370  Biso   1.000  H
  H2558    1.0000 0.03600  0.33070  0.22370  Biso   1.000  H
  H2559    1.0000 0.96400  0.33070  0.77630  Biso   1.000  H
  H2560    1.0000 0.03600  0.66930  0.77630  Biso   1.000  H
  H2561    1.0000 0.16930  0.72370  0.96400  Biso   1.000  H
  H2562    1.0000 0.83070  0.72370  0.03600  Biso   1.000  H
  H2563    1.0000 0.83070  0.27630  0.96400  Biso   1.000  H
  H2564    1.0000 0.16930  0.27630  0.03600  Biso   1.000  H
  H2565    1.0000 0.22370  0.46400  0.16930  Biso   1.000  H
  H2566    1.0000 0.22370  0.53600  0.83070  Biso   1.000  H
  H2567    1.0000 0.77630  0.46400  0.83070  Biso   1.000  H
  H2568    1.0000 0.77630  0.53600  0.16930  Biso   1.000  H
  H2569    1.0000 0.66930  0.46400  0.22370  Biso   1.000  H
  H2570    1.0000 0.33070  0.53600  0.22370  Biso   1.000  H
  H2571    1.0000 0.33070  0.46400  0.77630  Biso   1.000  H
  H2572    1.0000 0.66930  0.53600  0.77630  Biso   1.000  H
  H2573    1.0000 0.72370  0.66930  0.96400  Biso   1.000  H
  H2574    1.0000 0.72370  0.33070  0.03600  Biso   1.000  H
  H2575    1.0000 0.27630  0.33070  0.96400  Biso   1.000  H
  H2576    1.0000 0.27630  0.66930  0.03600  Biso   1.000  H
  H2577    1.0000 0.46400  0.72370  0.16930  Biso   1.000  H
  H2578    1.0000 0.53600  0.72370  0.83070  Biso   1.000  H
  H2579    1.0000 0.46400  0.27630  0.83070  Biso   1.000  H
  H2580    1.0000 0.53600  0.27630  0.16930  Biso   1.000  H
  H2581    1.0000 0.96400  0.16930  0.72370  Biso   1.000  H
  H2582    1.0000 0.03600  0.83070  0.72370  Biso   1.000  H
  H2583    1.0000 0.96400  0.83070  0.27630  Biso   1.000  H
  H2584    1.0000 0.03600  0.16930  0.27630  Biso   1.000  H
  H2585    1.0000 0.16930  0.22370  0.46400  Biso   1.000  H
  H2586    1.0000 0.83070  0.22370  0.53600  Biso   1.000  H
  H2587    1.0000 0.83070  0.77630  0.46400  Biso   1.000  H
  H2588    1.0000 0.16930  0.77630  0.53600  Biso   1.000  H
  H2589    1.0000 0.22370  0.96400  0.66930  Biso   1.000  H
  H2590    1.0000 0.22370  0.03600  0.33070  Biso   1.000  H
  H2591    1.0000 0.77630  0.96400  0.33070  Biso   1.000  H
  H2592    1.0000 0.77630  0.03600  0.66930  Biso   1.000  H
  C2785    1.0000 0.17766  0.93363  0.20506  Biso   1.000  C
  C2786    1.0000 0.82234  0.06637  0.20506  Biso   1.000  C
  C2787    1.0000 0.82234  0.93363  0.79494  Biso   1.000  C
  C2788    1.0000 0.17766  0.06637  0.79494  Biso   1.000  C
  C2789    1.0000 0.20506  0.17766  0.93363  Biso   1.000  C
  C2790    1.0000 0.20506  0.82234  0.06637  Biso   1.000  C
  C2791    1.0000 0.79494  0.82234  0.93363  Biso   1.000  C
  C2792    1.0000 0.79494  0.17766  0.06637  Biso   1.000  C
  C2793    1.0000 0.93363  0.20506  0.17766  Biso   1.000  C
  C2794    1.0000 0.06637  0.20506  0.82234  Biso   1.000  C
  C2795    1.0000 0.93363  0.79494  0.82234  Biso   1.000  C
  C2796    1.0000 0.06637  0.79494  0.17766  Biso   1.000  C
  C2797    1.0000 0.43363  0.67766  0.70506  Biso   1.000  C
  C2798    1.0000 0.56637  0.32234  0.70506  Biso   1.000  C
  C2799    1.0000 0.43363  0.32234  0.29494  Biso   1.000  C
  C2800    1.0000 0.56637  0.67766  0.29494  Biso   1.000  C
  C2801    1.0000 0.67766  0.70506  0.43363  Biso   1.000  C
  C2802    1.0000 0.32234  0.70506  0.56637  Biso   1.000  C
  C2803    1.0000 0.32234  0.29494  0.43363  Biso   1.000  C
  C2804    1.0000 0.67766  0.29494  0.56637  Biso   1.000  C
  C2805    1.0000 0.70506  0.43363  0.67766  Biso   1.000  C
  C2806    1.0000 0.70506  0.56637  0.32234  Biso   1.000  C
  C2807    1.0000 0.29494  0.43363  0.32234  Biso   1.000  C
  C2808    1.0000 0.29494  0.56637  0.67766  Biso   1.000  C
  C2809    1.0000 0.17766  0.43363  0.70506  Biso   1.000  C
  C2810    1.0000 0.82234  0.56637  0.70506  Biso   1.000  C
  C2811    1.0000 0.82234  0.43363  0.29494  Biso   1.000  C
  C2812    1.0000 0.17766  0.56637  0.29494  Biso   1.000  C
  C2813    1.0000 0.20506  0.67766  0.43363  Biso   1.000  C
  C2814    1.0000 0.20506  0.32234  0.56637  Biso   1.000  C
  C2815    1.0000 0.79494  0.32234  0.43363  Biso   1.000  C
  C2816    1.0000 0.79494  0.67766  0.56637  Biso   1.000  C
  C2817    1.0000 0.93363  0.70506  0.67766  Biso   1.000  C
  C2818    1.0000 0.06637  0.70506  0.32234  Biso   1.000  C
  C2819    1.0000 0.93363  0.29494  0.32234  Biso   1.000  C
  C2820    1.0000 0.06637  0.29494  0.67766  Biso   1.000  C
  C2821    1.0000 0.43363  0.17766  0.20506  Biso   1.000  C
  C2822    1.0000 0.56637  0.82234  0.20506  Biso   1.000  C
  C2823    1.0000 0.43363  0.82234  0.79494  Biso   1.000  C
  C2824    1.0000 0.56637  0.17766  0.79494  Biso   1.000  C
  C2825    1.0000 0.67766  0.20506  0.93363  Biso   1.000  C
  C2826    1.0000 0.32234  0.20506  0.06637  Biso   1.000  C
  C2827    1.0000 0.32234  0.79494  0.93363  Biso   1.000  C
  C2828    1.0000 0.67766  0.79494  0.06637  Biso   1.000  C
  C2829    1.0000 0.70506  0.93363  0.17766  Biso   1.000  C
  C2830    1.0000 0.70506  0.06637  0.82234  Biso   1.000  C
  C2831    1.0000 0.29494  0.93363  0.82234  Biso   1.000  C
  C2832    1.0000 0.29494  0.06637  0.17766  Biso   1.000  C
  C2833    1.0000 0.67766  0.93363  0.70506  Biso   1.000  C
  C2834    1.0000 0.32234  0.06637  0.70506  Biso   1.000  C
  C2835    1.0000 0.32234  0.93363  0.29494  Biso   1.000  C
  C2836    1.0000 0.67766  0.06637  0.29494  Biso   1.000  C
  C2837    1.0000 0.70506  0.17766  0.43363  Biso   1.000  C
  C2838    1.0000 0.70506  0.82234  0.56637  Biso   1.000  C
  C2839    1.0000 0.29494  0.82234  0.43363  Biso   1.000  C
  C2840    1.0000 0.29494  0.17766  0.56637  Biso   1.000  C
  C2841    1.0000 0.43363  0.20506  0.67766  Biso   1.000  C
  C2842    1.0000 0.56637  0.20506  0.32234  Biso   1.000  C
  C2843    1.0000 0.43363  0.79494  0.32234  Biso   1.000  C
  C2844    1.0000 0.56637  0.79494  0.67766  Biso   1.000  C
  C2845    1.0000 0.93363  0.67766  0.20506  Biso   1.000  C
  C2846    1.0000 0.06637  0.32234  0.20506  Biso   1.000  C
  C2847    1.0000 0.93363  0.32234  0.79494  Biso   1.000  C
  C2848    1.0000 0.06637  0.67766  0.79494  Biso   1.000  C
  C2849    1.0000 0.17766  0.70506  0.93363  Biso   1.000  C
  C2850    1.0000 0.82234  0.70506  0.06637  Biso   1.000  C
  C2851    1.0000 0.82234  0.29494  0.93363  Biso   1.000  C
  C2852    1.0000 0.17766  0.29494  0.06637  Biso   1.000  C
  C2853    1.0000 0.20506  0.43363  0.17766  Biso   1.000  C
  C2854    1.0000 0.20506  0.56637  0.82234  Biso   1.000  C
  C2855    1.0000 0.79494  0.43363  0.82234  Biso   1.000  C
  C2856    1.0000 0.79494  0.56637  0.17766  Biso   1.000  C
  C2857    1.0000 0.67766  0.43363  0.20506  Biso   1.000  C
  C2858    1.0000 0.32234  0.56637  0.20506  Biso   1.000  C
  C2859    1.0000 0.32234  0.43363  0.79494  Biso   1.000  C
  C2860    1.0000 0.67766  0.56637  0.79494  Biso   1.000  C
  C2861    1.0000 0.70506  0.67766  0.93363  Biso   1.000  C
  C2862    1.0000 0.70506  0.32234  0.06637  Biso   1.000  C
  C2863    1.0000 0.29494  0.32234  0.93363  Biso   1.000  C
  C2864    1.0000 0.29494  0.67766  0.06637  Biso   1.000  C
  C2865    1.0000 0.43363  0.70506  0.17766  Biso   1.000  C
  C2866    1.0000 0.56637  0.70506  0.82234  Biso   1.000  C
  C2867    1.0000 0.43363  0.29494  0.82234  Biso   1.000  C
  C2868    1.0000 0.56637  0.29494  0.17766  Biso   1.000  C
  C2869    1.0000 0.93363  0.17766  0.70506  Biso   1.000  C
  C2870    1.0000 0.06637  0.82234  0.70506  Biso   1.000  C
  C2871    1.0000 0.93363  0.82234  0.29494  Biso   1.000  C
  C2872    1.0000 0.06637  0.17766  0.29494  Biso   1.000  C
  C2873    1.0000 0.17766  0.20506  0.43363  Biso   1.000  C
  C2874    1.0000 0.82234  0.20506  0.56637  Biso   1.000  C
  C2875    1.0000 0.82234  0.79494  0.43363  Biso   1.000  C
  C2876    1.0000 0.17766  0.79494  0.56637  Biso   1.000  C
  C2877    1.0000 0.20506  0.93363  0.67766  Biso   1.000  C
  C2878    1.0000 0.20506  0.06637  0.32234  Biso   1.000  C
  C2879    1.0000 0.79494  0.93363  0.32234  Biso   1.000  C
  C2880    1.0000 0.79494  0.06637  0.67766  Biso   1.000  C
  C2881    1.0000 0.19480  0.91661  0.20296  Biso   1.000  C
  C2882    1.0000 0.80520  0.08339  0.20296  Biso   1.000  C
  C2883    1.0000 0.80520  0.91661  0.79704  Biso   1.000  C
  C2884    1.0000 0.19480  0.08339  0.79704  Biso   1.000  C
  C2885    1.0000 0.20296  0.19480  0.91661  Biso   1.000  C
  C2886    1.0000 0.20296  0.80520  0.08339  Biso   1.000  C
  C2887    1.0000 0.79704  0.80520  0.91661  Biso   1.000  C
  C2888    1.0000 0.79704  0.19480  0.08339  Biso   1.000  C
  C2889    1.0000 0.91661  0.20296  0.19480  Biso   1.000  C
  C2890    1.0000 0.08339  0.20296  0.80520  Biso   1.000  C
  C2891    1.0000 0.91661  0.79704  0.80520  Biso   1.000  C
  C2892    1.0000 0.08339  0.79704  0.19480  Biso   1.000  C
  C2893    1.0000 0.41661  0.69480  0.70296  Biso   1.000  C
  C2894    1.0000 0.58339  0.30520  0.70296  Biso   1.000  C
  C2895    1.0000 0.41661  0.30520  0.29704  Biso   1.000  C
  C2896    1.0000 0.58339  0.69480  0.29704  Biso   1.000  C
  C2897    1.0000 0.69480  0.70296  0.41661  Biso   1.000  C
  C2898    1.0000 0.30520  0.70296  0.58339  Biso   1.000  C
  C2899    1.0000 0.30520  0.29704  0.41661  Biso   1.000  C
  C2900    1.0000 0.69480  0.29704  0.58339  Biso   1.000  C
  C2901    1.0000 0.70296  0.41661  0.69480  Biso   1.000  C
  C2902    1.0000 0.70296  0.58339  0.30520  Biso   1.000  C
  C2903    1.0000 0.29704  0.41661  0.30520  Biso   1.000  C
  C2904    1.0000 0.29704  0.58339  0.69480  Biso   1.000  C
  C2905    1.0000 0.19480  0.41661  0.70296  Biso   1.000  C
  C2906    1.0000 0.80520  0.58339  0.70296  Biso   1.000  C
  C2907    1.0000 0.80520  0.41661  0.29704  Biso   1.000  C
  C2908    1.0000 0.19480  0.58339  0.29704  Biso   1.000  C
  C2909    1.0000 0.20296  0.69480  0.41661  Biso   1.000  C
  C2910    1.0000 0.20296  0.30520  0.58339  Biso   1.000  C
  C2911    1.0000 0.79704  0.30520  0.41661  Biso   1.000  C
  C2912    1.0000 0.79704  0.69480  0.58339  Biso   1.000  C
  C2913    1.0000 0.91661  0.70296  0.69480  Biso   1.000  C
  C2914    1.0000 0.08339  0.70296  0.30520  Biso   1.000  C
  C2915    1.0000 0.91661  0.29704  0.30520  Biso   1.000  C
  C2916    1.0000 0.08339  0.29704  0.69480  Biso   1.000  C
  C2917    1.0000 0.41661  0.19480  0.20296  Biso   1.000  C
  C2918    1.0000 0.58339  0.80520  0.20296  Biso   1.000  C
  C2919    1.0000 0.41661  0.80520  0.79704  Biso   1.000  C
  C2920    1.0000 0.58339  0.19480  0.79704  Biso   1.000  C
  C2921    1.0000 0.69480  0.20296  0.91661  Biso   1.000  C
  C2922    1.0000 0.30520  0.20296  0.08339  Biso   1.000  C
  C2923    1.0000 0.30520  0.79704  0.91661  Biso   1.000  C
  C2924    1.0000 0.69480  0.79704  0.08339  Biso   1.000  C
  C2925    1.0000 0.70296  0.91661  0.19480  Biso   1.000  C
  C2926    1.0000 0.70296  0.08339  0.80520  Biso   1.000  C
  C2927    1.0000 0.29704  0.91661  0.80520  Biso   1.000  C
  C2928    1.0000 0.29704  0.08339  0.19480  Biso   1.000  C
  C2929    1.0000 0.69480  0.91661  0.70296  Biso   1.000  C
  C2930    1.0000 0.30520  0.08339  0.70296  Biso   1.000  C
  C2931    1.0000 0.30520  0.91661  0.29704  Biso   1.000  C
  C2932    1.0000 0.69480  0.08339  0.29704  Biso   1.000  C
  C2933    1.0000 0.70296  0.19480  0.41661  Biso   1.000  C
  C2934    1.0000 0.70296  0.80520  0.58339  Biso   1.000  C
  C2935    1.0000 0.29704  0.80520  0.41661  Biso   1.000  C
  C2936    1.0000 0.29704  0.19480  0.58339  Biso   1.000  C
  C2937    1.0000 0.41661  0.20296  0.69480  Biso   1.000  C
  C2938    1.0000 0.58339  0.20296  0.30520  Biso   1.000  C
  C2939    1.0000 0.41661  0.79704  0.30520  Biso   1.000  C
  C2940    1.0000 0.58339  0.79704  0.69480  Biso   1.000  C
  C2941    1.0000 0.91661  0.69480  0.20296  Biso   1.000  C
  C2942    1.0000 0.08339  0.30520  0.20296  Biso   1.000  C
  C2943    1.0000 0.91661  0.30520  0.79704  Biso   1.000  C
  C2944    1.0000 0.08339  0.69480  0.79704  Biso   1.000  C
  C2945    1.0000 0.19480  0.70296  0.91661  Biso   1.000  C
  C2946    1.0000 0.80520  0.70296  0.08339  Biso   1.000  C
  C2947    1.0000 0.80520  0.29704  0.91661  Biso   1.000  C
  C2948    1.0000 0.19480  0.29704  0.08339  Biso   1.000  C
  C2949    1.0000 0.20296  0.41661  0.19480  Biso   1.000  C
  C2950    1.0000 0.20296  0.58339  0.80520  Biso   1.000  C
  C2951    1.0000 0.79704  0.41661  0.80520  Biso   1.000  C
  C2952    1.0000 0.79704  0.58339  0.19480  Biso   1.000  C
  C2953    1.0000 0.69480  0.41661  0.20296  Biso   1.000  C
  C2954    1.0000 0.30520  0.58339  0.20296  Biso   1.000  C
  C2955    1.0000 0.30520  0.41661  0.79704  Biso   1.000  C
  C2956    1.0000 0.69480  0.58339  0.79704  Biso   1.000  C
  C2957    1.0000 0.70296  0.69480  0.91661  Biso   1.000  C
  C2958    1.0000 0.70296  0.30520  0.08339  Biso   1.000  C
  C2959    1.0000 0.29704  0.30520  0.91661  Biso   1.000  C
  C2960    1.0000 0.29704  0.69480  0.08339  Biso   1.000  C
  C2961    1.0000 0.41661  0.70296  0.19480  Biso   1.000  C
  C2962    1.0000 0.58339  0.70296  0.80520  Biso   1.000  C
  C2963    1.0000 0.41661  0.29704  0.80520  Biso   1.000  C
  C2964    1.0000 0.58339  0.29704  0.19480  Biso   1.000  C
  C2965    1.0000 0.91661  0.19480  0.70296  Biso   1.000  C
  C2966    1.0000 0.08339  0.80520  0.70296  Biso   1.000  C
  C2967    1.0000 0.91661  0.80520  0.29704  Biso   1.000  C
  C2968    1.0000 0.08339  0.19480  0.29704  Biso   1.000  C
  C2969    1.0000 0.19480  0.20296  0.41661  Biso   1.000  C
  C2970    1.0000 0.80520  0.20296  0.58339  Biso   1.000  C
  C2971    1.0000 0.80520  0.79704  0.41661  Biso   1.000  C
  C2972    1.0000 0.19480  0.79704  0.58339  Biso   1.000  C
  C2973    1.0000 0.20296  0.91661  0.69480  Biso   1.000  C
  C2974    1.0000 0.20296  0.08339  0.30520  Biso   1.000  C
  C2975    1.0000 0.79704  0.91661  0.30520  Biso   1.000  C
  C2976    1.0000 0.79704  0.08339  0.69480  Biso   1.000  C
  H2593    1.0000 0.19250  0.90360  0.19230  Biso   1.000  H
  H2594    1.0000 0.80750  0.09640  0.19230  Biso   1.000  H
  H2595    1.0000 0.80750  0.90360  0.80770  Biso   1.000  H
  H2596    1.0000 0.19250  0.09640  0.80770  Biso   1.000  H
  H2597    1.0000 0.19230  0.19250  0.90360  Biso   1.000  H
  H2598    1.0000 0.19230  0.80750  0.09640  Biso   1.000  H
  H2599    1.0000 0.80770  0.80750  0.90360  Biso   1.000  H
  H2600    1.0000 0.80770  0.19250  0.09640  Biso   1.000  H
  H2601    1.0000 0.90360  0.19230  0.19250  Biso   1.000  H
  H2602    1.0000 0.09640  0.19230  0.80750  Biso   1.000  H
  H2603    1.0000 0.90360  0.80770  0.80750  Biso   1.000  H
  H2604    1.0000 0.09640  0.80770  0.19250  Biso   1.000  H
  H2605    1.0000 0.40360  0.69250  0.69230  Biso   1.000  H
  H2606    1.0000 0.59640  0.30750  0.69230  Biso   1.000  H
  H2607    1.0000 0.40360  0.30750  0.30770  Biso   1.000  H
  H2608    1.0000 0.59640  0.69250  0.30770  Biso   1.000  H
  H2609    1.0000 0.69250  0.69230  0.40360  Biso   1.000  H
  H2610    1.0000 0.30750  0.69230  0.59640  Biso   1.000  H
  H2611    1.0000 0.30750  0.30770  0.40360  Biso   1.000  H
  H2612    1.0000 0.69250  0.30770  0.59640  Biso   1.000  H
  H2613    1.0000 0.69230  0.40360  0.69250  Biso   1.000  H
  H2614    1.0000 0.69230  0.59640  0.30750  Biso   1.000  H
  H2615    1.0000 0.30770  0.40360  0.30750  Biso   1.000  H
  H2616    1.0000 0.30770  0.59640  0.69250  Biso   1.000  H
  H2617    1.0000 0.19250  0.40360  0.69230  Biso   1.000  H
  H2618    1.0000 0.80750  0.59640  0.69230  Biso   1.000  H
  H2619    1.0000 0.80750  0.40360  0.30770  Biso   1.000  H
  H2620    1.0000 0.19250  0.59640  0.30770  Biso   1.000  H
  H2621    1.0000 0.19230  0.69250  0.40360  Biso   1.000  H
  H2622    1.0000 0.19230  0.30750  0.59640  Biso   1.000  H
  H2623    1.0000 0.80770  0.30750  0.40360  Biso   1.000  H
  H2624    1.0000 0.80770  0.69250  0.59640  Biso   1.000  H
  H2625    1.0000 0.90360  0.69230  0.69250  Biso   1.000  H
  H2626    1.0000 0.09640  0.69230  0.30750  Biso   1.000  H
  H2627    1.0000 0.90360  0.30770  0.30750  Biso   1.000  H
  H2628    1.0000 0.09640  0.30770  0.69250  Biso   1.000  H
  H2629    1.0000 0.40360  0.19250  0.19230  Biso   1.000  H
  H2630    1.0000 0.59640  0.80750  0.19230  Biso   1.000  H
  H2631    1.0000 0.40360  0.80750  0.80770  Biso   1.000  H
  H2632    1.0000 0.59640  0.19250  0.80770  Biso   1.000  H
  H2633    1.0000 0.69250  0.19230  0.90360  Biso   1.000  H
  H2634    1.0000 0.30750  0.19230  0.09640  Biso   1.000  H
  H2635    1.0000 0.30750  0.80770  0.90360  Biso   1.000  H
  H2636    1.0000 0.69250  0.80770  0.09640  Biso   1.000  H
  H2637    1.0000 0.69230  0.90360  0.19250  Biso   1.000  H
  H2638    1.0000 0.69230  0.09640  0.80750  Biso   1.000  H
  H2639    1.0000 0.30770  0.90360  0.80750  Biso   1.000  H
  H2640    1.0000 0.30770  0.09640  0.19250  Biso   1.000  H
  H2641    1.0000 0.69250  0.90360  0.69230  Biso   1.000  H
  H2642    1.0000 0.30750  0.09640  0.69230  Biso   1.000  H
  H2643    1.0000 0.30750  0.90360  0.30770  Biso   1.000  H
  H2644    1.0000 0.69250  0.09640  0.30770  Biso   1.000  H
  H2645    1.0000 0.69230  0.19250  0.40360  Biso   1.000  H
  H2646    1.0000 0.69230  0.80750  0.59640  Biso   1.000  H
  H2647    1.0000 0.30770  0.80750  0.40360  Biso   1.000  H
  H2648    1.0000 0.30770  0.19250  0.59640  Biso   1.000  H
  H2649    1.0000 0.40360  0.19230  0.69250  Biso   1.000  H
  H2650    1.0000 0.59640  0.19230  0.30750  Biso   1.000  H
  H2651    1.0000 0.40360  0.80770  0.30750  Biso   1.000  H
  H2652    1.0000 0.59640  0.80770  0.69250  Biso   1.000  H
  H2653    1.0000 0.90360  0.69250  0.19230  Biso   1.000  H
  H2654    1.0000 0.09640  0.30750  0.19230  Biso   1.000  H
  H2655    1.0000 0.90360  0.30750  0.80770  Biso   1.000  H
  H2656    1.0000 0.09640  0.69250  0.80770  Biso   1.000  H
  H2657    1.0000 0.19250  0.69230  0.90360  Biso   1.000  H
  H2658    1.0000 0.80750  0.69230  0.09640  Biso   1.000  H
  H2659    1.0000 0.80750  0.30770  0.90360  Biso   1.000  H
  H2660    1.0000 0.19250  0.30770  0.09640  Biso   1.000  H
  H2661    1.0000 0.19230  0.40360  0.19250  Biso   1.000  H
  H2662    1.0000 0.19230  0.59640  0.80750  Biso   1.000  H
  H2663    1.0000 0.80770  0.40360  0.80750  Biso   1.000  H
  H2664    1.0000 0.80770  0.59640  0.19250  Biso   1.000  H
  H2665    1.0000 0.69250  0.40360  0.19230  Biso   1.000  H
  H2666    1.0000 0.30750  0.59640  0.19230  Biso   1.000  H
  H2667    1.0000 0.30750  0.40360  0.80770  Biso   1.000  H
  H2668    1.0000 0.69250  0.59640  0.80770  Biso   1.000  H
  H2669    1.0000 0.69230  0.69250  0.90360  Biso   1.000  H
  H2670    1.0000 0.69230  0.30750  0.09640  Biso   1.000  H
  H2671    1.0000 0.30770  0.30750  0.90360  Biso   1.000  H
  H2672    1.0000 0.30770  0.69250  0.09640  Biso   1.000  H
  H2673    1.0000 0.40360  0.69230  0.19250  Biso   1.000  H
  H2674    1.0000 0.59640  0.69230  0.80750  Biso   1.000  H
  H2675    1.0000 0.40360  0.30770  0.80750  Biso   1.000  H
  H2676    1.0000 0.59640  0.30770  0.19250  Biso   1.000  H
  H2677    1.0000 0.90360  0.19250  0.69230  Biso   1.000  H
  H2678    1.0000 0.09640  0.80750  0.69230  Biso   1.000  H
  H2679    1.0000 0.90360  0.80750  0.30770  Biso   1.000  H
  H2680    1.0000 0.09640  0.19250  0.30770  Biso   1.000  H
  H2681    1.0000 0.19250  0.19230  0.40360  Biso   1.000  H
  H2682    1.0000 0.80750  0.19230  0.59640  Biso   1.000  H
  H2683    1.0000 0.80750  0.80770  0.40360  Biso   1.000  H
  H2684    1.0000 0.19250  0.80770  0.59640  Biso   1.000  H
  H2685    1.0000 0.19230  0.90360  0.69250  Biso   1.000  H
  H2686    1.0000 0.19230  0.09640  0.30750  Biso   1.000  H
  H2687    1.0000 0.80770  0.90360  0.30750  Biso   1.000  H
  H2688    1.0000 0.80770  0.09640  0.69250  Biso   1.000  H
  C2977    1.0000 0.21503  0.91796  0.21587  Biso   1.000  C
  C2978    1.0000 0.78497  0.08204  0.21587  Biso   1.000  C
  C2979    1.0000 0.78497  0.91796  0.78413  Biso   1.000  C
  C2980    1.0000 0.21503  0.08204  0.78413  Biso   1.000  C
  C2981    1.0000 0.21587  0.21503  0.91796  Biso   1.000  C
  C2982    1.0000 0.21587  0.78497  0.08204  Biso   1.000  C
  C2983    1.0000 0.78413  0.78497  0.91796  Biso   1.000  C
  C2984    1.0000 0.78413  0.21503  0.08204  Biso   1.000  C
  C2985    1.0000 0.91796  0.21587  0.21503  Biso   1.000  C
  C2986    1.0000 0.08204  0.21587  0.78497  Biso   1.000  C
  C2987    1.0000 0.91796  0.78413  0.78497  Biso   1.000  C
  C2988    1.0000 0.08204  0.78413  0.21503  Biso   1.000  C
  C2989    1.0000 0.41796  0.71503  0.71587  Biso   1.000  C
  C2990    1.0000 0.58204  0.28497  0.71587  Biso   1.000  C
  C2991    1.0000 0.41796  0.28497  0.28413  Biso   1.000  C
  C2992    1.0000 0.58204  0.71503  0.28413  Biso   1.000  C
  C2993    1.0000 0.71503  0.71587  0.41796  Biso   1.000  C
  C2994    1.0000 0.28497  0.71587  0.58204  Biso   1.000  C
  C2995    1.0000 0.28497  0.28413  0.41796  Biso   1.000  C
  C2996    1.0000 0.71503  0.28413  0.58204  Biso   1.000  C
  C2997    1.0000 0.71587  0.41796  0.71503  Biso   1.000  C
  C2998    1.0000 0.71587  0.58204  0.28497  Biso   1.000  C
  C2999    1.0000 0.28413  0.41796  0.28497  Biso   1.000  C
  C3000    1.0000 0.28413  0.58204  0.71503  Biso   1.000  C
  C3001    1.0000 0.21503  0.41796  0.71587  Biso   1.000  C
  C3002    1.0000 0.78497  0.58204  0.71587  Biso   1.000  C
  C3003    1.0000 0.78497  0.41796  0.28413  Biso   1.000  C
  C3004    1.0000 0.21503  0.58204  0.28413  Biso   1.000  C
  C3005    1.0000 0.21587  0.71503  0.41796  Biso   1.000  C
  C3006    1.0000 0.21587  0.28497  0.58204  Biso   1.000  C
  C3007    1.0000 0.78413  0.28497  0.41796  Biso   1.000  C
  C3008    1.0000 0.78413  0.71503  0.58204  Biso   1.000  C
  C3009    1.0000 0.91796  0.71587  0.71503  Biso   1.000  C
  C3010    1.0000 0.08204  0.71587  0.28497  Biso   1.000  C
  C3011    1.0000 0.91796  0.28413  0.28497  Biso   1.000  C
  C3012    1.0000 0.08204  0.28413  0.71503  Biso   1.000  C
  C3013    1.0000 0.41796  0.21503  0.21587  Biso   1.000  C
  C3014    1.0000 0.58204  0.78497  0.21587  Biso   1.000  C
  C3015    1.0000 0.41796  0.78497  0.78413  Biso   1.000  C
  C3016    1.0000 0.58204  0.21503  0.78413  Biso   1.000  C
  C3017    1.0000 0.71503  0.21587  0.91796  Biso   1.000  C
  C3018    1.0000 0.28497  0.21587  0.08204  Biso   1.000  C
  C3019    1.0000 0.28497  0.78413  0.91796  Biso   1.000  C
  C3020    1.0000 0.71503  0.78413  0.08204  Biso   1.000  C
  C3021    1.0000 0.71587  0.91796  0.21503  Biso   1.000  C
  C3022    1.0000 0.71587  0.08204  0.78497  Biso   1.000  C
  C3023    1.0000 0.28413  0.91796  0.78497  Biso   1.000  C
  C3024    1.0000 0.28413  0.08204  0.21503  Biso   1.000  C
  C3025    1.0000 0.71503  0.91796  0.71587  Biso   1.000  C
  C3026    1.0000 0.28497  0.08204  0.71587  Biso   1.000  C
  C3027    1.0000 0.28497  0.91796  0.28413  Biso   1.000  C
  C3028    1.0000 0.71503  0.08204  0.28413  Biso   1.000  C
  C3029    1.0000 0.71587  0.21503  0.41796  Biso   1.000  C
  C3030    1.0000 0.71587  0.78497  0.58204  Biso   1.000  C
  C3031    1.0000 0.28413  0.78497  0.41796  Biso   1.000  C
  C3032    1.0000 0.28413  0.21503  0.58204  Biso   1.000  C
  C3033    1.0000 0.41796  0.21587  0.71503  Biso   1.000  C
  C3034    1.0000 0.58204  0.21587  0.28497  Biso   1.000  C
  C3035    1.0000 0.41796  0.78413  0.28497  Biso   1.000  C
  C3036    1.0000 0.58204  0.78413  0.71503  Biso   1.000  C
  C3037    1.0000 0.91796  0.71503  0.21587  Biso   1.000  C
  C3038    1.0000 0.08204  0.28497  0.21587  Biso   1.000  C
  C3039    1.0000 0.91796  0.28497  0.78413  Biso   1.000  C
  C3040    1.0000 0.08204  0.71503  0.78413  Biso   1.000  C
  C3041    1.0000 0.21503  0.71587  0.91796  Biso   1.000  C
  C3042    1.0000 0.78497  0.71587  0.08204  Biso   1.000  C
  C3043    1.0000 0.78497  0.28413  0.91796  Biso   1.000  C
  C3044    1.0000 0.21503  0.28413  0.08204  Biso   1.000  C
  C3045    1.0000 0.21587  0.41796  0.21503  Biso   1.000  C
  C3046    1.0000 0.21587  0.58204  0.78497  Biso   1.000  C
  C3047    1.0000 0.78413  0.41796  0.78497  Biso   1.000  C
  C3048    1.0000 0.78413  0.58204  0.21503  Biso   1.000  C
  C3049    1.0000 0.71503  0.41796  0.21587  Biso   1.000  C
  C3050    1.0000 0.28497  0.58204  0.21587  Biso   1.000  C
  C3051    1.0000 0.28497  0.41796  0.78413  Biso   1.000  C
  C3052    1.0000 0.71503  0.58204  0.78413  Biso   1.000  C
  C3053    1.0000 0.71587  0.71503  0.91796  Biso   1.000  C
  C3054    1.0000 0.71587  0.28497  0.08204  Biso   1.000  C
  C3055    1.0000 0.28413  0.28497  0.91796  Biso   1.000  C
  C3056    1.0000 0.28413  0.71503  0.08204  Biso   1.000  C
  C3057    1.0000 0.41796  0.71587  0.21503  Biso   1.000  C
  C3058    1.0000 0.58204  0.71587  0.78497  Biso   1.000  C
  C3059    1.0000 0.41796  0.28413  0.78497  Biso   1.000  C
  C3060    1.0000 0.58204  0.28413  0.21503  Biso   1.000  C
  C3061    1.0000 0.91796  0.21503  0.71587  Biso   1.000  C
  C3062    1.0000 0.08204  0.78497  0.71587  Biso   1.000  C
  C3063    1.0000 0.91796  0.78497  0.28413  Biso   1.000  C
  C3064    1.0000 0.08204  0.21503  0.28413  Biso   1.000  C
  C3065    1.0000 0.21503  0.21587  0.41796  Biso   1.000  C
  C3066    1.0000 0.78497  0.21587  0.58204  Biso   1.000  C
  C3067    1.0000 0.78497  0.78413  0.41796  Biso   1.000  C
  C3068    1.0000 0.21503  0.78413  0.58204  Biso   1.000  C
  C3069    1.0000 0.21587  0.91796  0.71503  Biso   1.000  C
  C3070    1.0000 0.21587  0.08204  0.28497  Biso   1.000  C
  C3071    1.0000 0.78413  0.91796  0.28497  Biso   1.000  C
  C3072    1.0000 0.78413  0.08204  0.71503  Biso   1.000  C
  H2689    1.0000 0.22680  0.90590  0.21380  Biso   1.000  H
  H2690    1.0000 0.77320  0.09410  0.21380  Biso   1.000  H
  H2691    1.0000 0.77320  0.90590  0.78620  Biso   1.000  H
  H2692    1.0000 0.22680  0.09410  0.78620  Biso   1.000  H
  H2693    1.0000 0.21380  0.22680  0.90590  Biso   1.000  H
  H2694    1.0000 0.21380  0.77320  0.09410  Biso   1.000  H
  H2695    1.0000 0.78620  0.77320  0.90590  Biso   1.000  H
  H2696    1.0000 0.78620  0.22680  0.09410  Biso   1.000  H
  H2697    1.0000 0.90590  0.21380  0.22680  Biso   1.000  H
  H2698    1.0000 0.09410  0.21380  0.77320  Biso   1.000  H
  H2699    1.0000 0.90590  0.78620  0.77320  Biso   1.000  H
  H2700    1.0000 0.09410  0.78620  0.22680  Biso   1.000  H
  H2701    1.0000 0.40590  0.72680  0.71380  Biso   1.000  H
  H2702    1.0000 0.59410  0.27320  0.71380  Biso   1.000  H
  H2703    1.0000 0.40590  0.27320  0.28620  Biso   1.000  H
  H2704    1.0000 0.59410  0.72680  0.28620  Biso   1.000  H
  H2705    1.0000 0.72680  0.71380  0.40590  Biso   1.000  H
  H2706    1.0000 0.27320  0.71380  0.59410  Biso   1.000  H
  H2707    1.0000 0.27320  0.28620  0.40590  Biso   1.000  H
  H2708    1.0000 0.72680  0.28620  0.59410  Biso   1.000  H
  H2709    1.0000 0.71380  0.40590  0.72680  Biso   1.000  H
  H2710    1.0000 0.71380  0.59410  0.27320  Biso   1.000  H
  H2711    1.0000 0.28620  0.40590  0.27320  Biso   1.000  H
  H2712    1.0000 0.28620  0.59410  0.72680  Biso   1.000  H
  H2713    1.0000 0.22680  0.40590  0.71380  Biso   1.000  H
  H2714    1.0000 0.77320  0.59410  0.71380  Biso   1.000  H
  H2715    1.0000 0.77320  0.40590  0.28620  Biso   1.000  H
  H2716    1.0000 0.22680  0.59410  0.28620  Biso   1.000  H
  H2717    1.0000 0.21380  0.72680  0.40590  Biso   1.000  H
  H2718    1.0000 0.21380  0.27320  0.59410  Biso   1.000  H
  H2719    1.0000 0.78620  0.27320  0.40590  Biso   1.000  H
  H2720    1.0000 0.78620  0.72680  0.59410  Biso   1.000  H
  H2721    1.0000 0.90590  0.71380  0.72680  Biso   1.000  H
  H2722    1.0000 0.09410  0.71380  0.27320  Biso   1.000  H
  H2723    1.0000 0.90590  0.28620  0.27320  Biso   1.000  H
  H2724    1.0000 0.09410  0.28620  0.72680  Biso   1.000  H
  H2725    1.0000 0.40590  0.22680  0.21380  Biso   1.000  H
  H2726    1.0000 0.59410  0.77320  0.21380  Biso   1.000  H
  H2727    1.0000 0.40590  0.77320  0.78620  Biso   1.000  H
  H2728    1.0000 0.59410  0.22680  0.78620  Biso   1.000  H
  H2729    1.0000 0.72680  0.21380  0.90590  Biso   1.000  H
  H2730    1.0000 0.27320  0.21380  0.09410  Biso   1.000  H
  H2731    1.0000 0.27320  0.78620  0.90590  Biso   1.000  H
  H2732    1.0000 0.72680  0.78620  0.09410  Biso   1.000  H
  H2733    1.0000 0.71380  0.90590  0.22680  Biso   1.000  H
  H2734    1.0000 0.71380  0.09410  0.77320  Biso   1.000  H
  H2735    1.0000 0.28620  0.90590  0.77320  Biso   1.000  H
  H2736    1.0000 0.28620  0.09410  0.22680  Biso   1.000  H
  H2737    1.0000 0.72680  0.90590  0.71380  Biso   1.000  H
  H2738    1.0000 0.27320  0.09410  0.71380  Biso   1.000  H
  H2739    1.0000 0.27320  0.90590  0.28620  Biso   1.000  H
  H2740    1.0000 0.72680  0.09410  0.28620  Biso   1.000  H
  H2741    1.0000 0.71380  0.22680  0.40590  Biso   1.000  H
  H2742    1.0000 0.71380  0.77320  0.59410  Biso   1.000  H
  H2743    1.0000 0.28620  0.77320  0.40590  Biso   1.000  H
  H2744    1.0000 0.28620  0.22680  0.59410  Biso   1.000  H
  H2745    1.0000 0.40590  0.21380  0.72680  Biso   1.000  H
  H2746    1.0000 0.59410  0.21380  0.27320  Biso   1.000  H
  H2747    1.0000 0.40590  0.78620  0.27320  Biso   1.000  H
  H2748    1.0000 0.59410  0.78620  0.72680  Biso   1.000  H
  H2749    1.0000 0.90590  0.72680  0.21380  Biso   1.000  H
  H2750    1.0000 0.09410  0.27320  0.21380  Biso   1.000  H
  H2751    1.0000 0.90590  0.27320  0.78620  Biso   1.000  H
  H2752    1.0000 0.09410  0.72680  0.78620  Biso   1.000  H
  H2753    1.0000 0.22680  0.71380  0.90590  Biso   1.000  H
  H2754    1.0000 0.77320  0.71380  0.09410  Biso   1.000  H
  H2755    1.0000 0.77320  0.28620  0.90590  Biso   1.000  H
  H2756    1.0000 0.22680  0.28620  0.09410  Biso   1.000  H
  H2757    1.0000 0.21380  0.40590  0.22680  Biso   1.000  H
  H2758    1.0000 0.21380  0.59410  0.77320  Biso   1.000  H
  H2759    1.0000 0.78620  0.40590  0.77320  Biso   1.000  H
  H2760    1.0000 0.78620  0.59410  0.22680  Biso   1.000  H
  H2761    1.0000 0.72680  0.40590  0.21380  Biso   1.000  H
  H2762    1.0000 0.27320  0.59410  0.21380  Biso   1.000  H
  H2763    1.0000 0.27320  0.40590  0.78620  Biso   1.000  H
  H2764    1.0000 0.72680  0.59410  0.78620  Biso   1.000  H
  H2765    1.0000 0.71380  0.72680  0.90590  Biso   1.000  H
  H2766    1.0000 0.71380  0.27320  0.09410  Biso   1.000  H
  H2767    1.0000 0.28620  0.27320  0.90590  Biso   1.000  H
  H2768    1.0000 0.28620  0.72680  0.09410  Biso   1.000  H
  H2769    1.0000 0.40590  0.71380  0.22680  Biso   1.000  H
  H2770    1.0000 0.59410  0.71380  0.77320  Biso   1.000  H
  H2771    1.0000 0.40590  0.28620  0.77320  Biso   1.000  H
  H2772    1.0000 0.59410  0.28620  0.22680  Biso   1.000  H
  H2773    1.0000 0.90590  0.22680  0.71380  Biso   1.000  H
  H2774    1.0000 0.09410  0.77320  0.71380  Biso   1.000  H
  H2775    1.0000 0.90590  0.77320  0.28620  Biso   1.000  H
  H2776    1.0000 0.09410  0.22680  0.28620  Biso   1.000  H
  H2777    1.0000 0.22680  0.21380  0.40590  Biso   1.000  H
  H2778    1.0000 0.77320  0.21380  0.59410  Biso   1.000  H
  H2779    1.0000 0.77320  0.78620  0.40590  Biso   1.000  H
  H2780    1.0000 0.22680  0.78620  0.59410  Biso   1.000  H
  H2781    1.0000 0.21380  0.90590  0.72680  Biso   1.000  H
  H2782    1.0000 0.21380  0.09410  0.27320  Biso   1.000  H
  H2783    1.0000 0.78620  0.90590  0.27320  Biso   1.000  H
  H2784    1.0000 0.78620  0.09410  0.72680  Biso   1.000  H
  C3073    1.0000 0.15488  0.93367  0.19078  Biso   1.000  C
  C3074    1.0000 0.84512  0.06633  0.19078  Biso   1.000  C
  C3075    1.0000 0.84512  0.93367  0.80922  Biso   1.000  C
  C3076    1.0000 0.15488  0.06633  0.80922  Biso   1.000  C
  C3077    1.0000 0.19078  0.15488  0.93367  Biso   1.000  C
  C3078    1.0000 0.19078  0.84512  0.06633  Biso   1.000  C
  C3079    1.0000 0.80922  0.84512  0.93367  Biso   1.000  C
  C3080    1.0000 0.80922  0.15488  0.06633  Biso   1.000  C
  C3081    1.0000 0.93367  0.19078  0.15488  Biso   1.000  C
  C3082    1.0000 0.06633  0.19078  0.84512  Biso   1.000  C
  C3083    1.0000 0.93367  0.80922  0.84512  Biso   1.000  C
  C3084    1.0000 0.06633  0.80922  0.15488  Biso   1.000  C
  C3085    1.0000 0.43367  0.65488  0.69078  Biso   1.000  C
  C3086    1.0000 0.56633  0.34512  0.69078  Biso   1.000  C
  C3087    1.0000 0.43367  0.34512  0.30922  Biso   1.000  C
  C3088    1.0000 0.56633  0.65488  0.30922  Biso   1.000  C
  C3089    1.0000 0.65488  0.69078  0.43367  Biso   1.000  C
  C3090    1.0000 0.34512  0.69078  0.56633  Biso   1.000  C
  C3091    1.0000 0.34512  0.30922  0.43367  Biso   1.000  C
  C3092    1.0000 0.65488  0.30922  0.56633  Biso   1.000  C
  C3093    1.0000 0.69078  0.43367  0.65488  Biso   1.000  C
  C3094    1.0000 0.69078  0.56633  0.34512  Biso   1.000  C
  C3095    1.0000 0.30922  0.43367  0.34512  Biso   1.000  C
  C3096    1.0000 0.30922  0.56633  0.65488  Biso   1.000  C
  C3097    1.0000 0.15488  0.43367  0.69078  Biso   1.000  C
  C3098    1.0000 0.84512  0.56633  0.69078  Biso   1.000  C
  C3099    1.0000 0.84512  0.43367  0.30922  Biso   1.000  C
  C3100    1.0000 0.15488  0.56633  0.30922  Biso   1.000  C
  C3101    1.0000 0.19078  0.65488  0.43367  Biso   1.000  C
  C3102    1.0000 0.19078  0.34512  0.56633  Biso   1.000  C
  C3103    1.0000 0.80922  0.34512  0.43367  Biso   1.000  C
  C3104    1.0000 0.80922  0.65488  0.56633  Biso   1.000  C
  C3105    1.0000 0.93367  0.69078  0.65488  Biso   1.000  C
  C3106    1.0000 0.06633  0.69078  0.34512  Biso   1.000  C
  C3107    1.0000 0.93367  0.30922  0.34512  Biso   1.000  C
  C3108    1.0000 0.06633  0.30922  0.65488  Biso   1.000  C
  C3109    1.0000 0.43367  0.15488  0.19078  Biso   1.000  C
  C3110    1.0000 0.56633  0.84512  0.19078  Biso   1.000  C
  C3111    1.0000 0.43367  0.84512  0.80922  Biso   1.000  C
  C3112    1.0000 0.56633  0.15488  0.80922  Biso   1.000  C
  C3113    1.0000 0.65488  0.19078  0.93367  Biso   1.000  C
  C3114    1.0000 0.34512  0.19078  0.06633  Biso   1.000  C
  C3115    1.0000 0.34512  0.80922  0.93367  Biso   1.000  C
  C3116    1.0000 0.65488  0.80922  0.06633  Biso   1.000  C
  C3117    1.0000 0.69078  0.93367  0.15488  Biso   1.000  C
  C3118    1.0000 0.69078  0.06633  0.84512  Biso   1.000  C
  C3119    1.0000 0.30922  0.93367  0.84512  Biso   1.000  C
  C3120    1.0000 0.30922  0.06633  0.15488  Biso   1.000  C
  C3121    1.0000 0.65488  0.93367  0.69078  Biso   1.000  C
  C3122    1.0000 0.34512  0.06633  0.69078  Biso   1.000  C
  C3123    1.0000 0.34512  0.93367  0.30922  Biso   1.000  C
  C3124    1.0000 0.65488  0.06633  0.30922  Biso   1.000  C
  C3125    1.0000 0.69078  0.15488  0.43367  Biso   1.000  C
  C3126    1.0000 0.69078  0.84512  0.56633  Biso   1.000  C
  C3127    1.0000 0.30922  0.84512  0.43367  Biso   1.000  C
  C3128    1.0000 0.30922  0.15488  0.56633  Biso   1.000  C
  C3129    1.0000 0.43367  0.19078  0.65488  Biso   1.000  C
  C3130    1.0000 0.56633  0.19078  0.34512  Biso   1.000  C
  C3131    1.0000 0.43367  0.80922  0.34512  Biso   1.000  C
  C3132    1.0000 0.56633  0.80922  0.65488  Biso   1.000  C
  C3133    1.0000 0.93367  0.65488  0.19078  Biso   1.000  C
  C3134    1.0000 0.06633  0.34512  0.19078  Biso   1.000  C
  C3135    1.0000 0.93367  0.34512  0.80922  Biso   1.000  C
  C3136    1.0000 0.06633  0.65488  0.80922  Biso   1.000  C
  C3137    1.0000 0.15488  0.69078  0.93367  Biso   1.000  C
  C3138    1.0000 0.84512  0.69078  0.06633  Biso   1.000  C
  C3139    1.0000 0.84512  0.30922  0.93367  Biso   1.000  C
  C3140    1.0000 0.15488  0.30922  0.06633  Biso   1.000  C
  C3141    1.0000 0.19078  0.43367  0.15488  Biso   1.000  C
  C3142    1.0000 0.19078  0.56633  0.84512  Biso   1.000  C
  C3143    1.0000 0.80922  0.43367  0.84512  Biso   1.000  C
  C3144    1.0000 0.80922  0.56633  0.15488  Biso   1.000  C
  C3145    1.0000 0.65488  0.43367  0.19078  Biso   1.000  C
  C3146    1.0000 0.34512  0.56633  0.19078  Biso   1.000  C
  C3147    1.0000 0.34512  0.43367  0.80922  Biso   1.000  C
  C3148    1.0000 0.65488  0.56633  0.80922  Biso   1.000  C
  C3149    1.0000 0.69078  0.65488  0.93367  Biso   1.000  C
  C3150    1.0000 0.69078  0.34512  0.06633  Biso   1.000  C
  C3151    1.0000 0.30922  0.34512  0.93367  Biso   1.000  C
  C3152    1.0000 0.30922  0.65488  0.06633  Biso   1.000  C
  C3153    1.0000 0.43367  0.69078  0.15488  Biso   1.000  C
  C3154    1.0000 0.56633  0.69078  0.84512  Biso   1.000  C
  C3155    1.0000 0.43367  0.30922  0.84512  Biso   1.000  C
  C3156    1.0000 0.56633  0.30922  0.15488  Biso   1.000  C
  C3157    1.0000 0.93367  0.15488  0.69078  Biso   1.000  C
  C3158    1.0000 0.06633  0.84512  0.69078  Biso   1.000  C
  C3159    1.0000 0.93367  0.84512  0.30922  Biso   1.000  C
  C3160    1.0000 0.06633  0.15488  0.30922  Biso   1.000  C
  C3161    1.0000 0.15488  0.19078  0.43367  Biso   1.000  C
  C3162    1.0000 0.84512  0.19078  0.56633  Biso   1.000  C
  C3163    1.0000 0.84512  0.80922  0.43367  Biso   1.000  C
  C3164    1.0000 0.15488  0.80922  0.56633  Biso   1.000  C
  C3165    1.0000 0.19078  0.93367  0.65488  Biso   1.000  C
  C3166    1.0000 0.19078  0.06633  0.34512  Biso   1.000  C
  C3167    1.0000 0.80922  0.93367  0.34512  Biso   1.000  C
  C3168    1.0000 0.80922  0.06633  0.65488  Biso   1.000  C
  H2785    1.0000 0.14110  0.93310  0.20190  Biso   1.000  H
  H2786    1.0000 0.85890  0.06690  0.20190  Biso   1.000  H
  H2787    1.0000 0.85890  0.93310  0.79810  Biso   1.000  H
  H2788    1.0000 0.14110  0.06690  0.79810  Biso   1.000  H
  H2789    1.0000 0.20190  0.14110  0.93310  Biso   1.000  H
  H2790    1.0000 0.20190  0.85890  0.06690  Biso   1.000  H
  H2791    1.0000 0.79810  0.85890  0.93310  Biso   1.000  H
  H2792    1.0000 0.79810  0.14110  0.06690  Biso   1.000  H
  H2793    1.0000 0.93310  0.20190  0.14110  Biso   1.000  H
  H2794    1.0000 0.06690  0.20190  0.85890  Biso   1.000  H
  H2795    1.0000 0.93310  0.79810  0.85890  Biso   1.000  H
  H2796    1.0000 0.06690  0.79810  0.14110  Biso   1.000  H
  H2797    1.0000 0.43310  0.64110  0.70190  Biso   1.000  H
  H2798    1.0000 0.56690  0.35890  0.70190  Biso   1.000  H
  H2799    1.0000 0.43310  0.35890  0.29810  Biso   1.000  H
  H2800    1.0000 0.56690  0.64110  0.29810  Biso   1.000  H
  H2801    1.0000 0.64110  0.70190  0.43310  Biso   1.000  H
  H2802    1.0000 0.35890  0.70190  0.56690  Biso   1.000  H
  H2803    1.0000 0.35890  0.29810  0.43310  Biso   1.000  H
  H2804    1.0000 0.64110  0.29810  0.56690  Biso   1.000  H
  H2805    1.0000 0.70190  0.43310  0.64110  Biso   1.000  H
  H2806    1.0000 0.70190  0.56690  0.35890  Biso   1.000  H
  H2807    1.0000 0.29810  0.43310  0.35890  Biso   1.000  H
  H2808    1.0000 0.29810  0.56690  0.64110  Biso   1.000  H
  H2809    1.0000 0.14110  0.43310  0.70190  Biso   1.000  H
  H2810    1.0000 0.85890  0.56690  0.70190  Biso   1.000  H
  H2811    1.0000 0.85890  0.43310  0.29810  Biso   1.000  H
  H2812    1.0000 0.14110  0.56690  0.29810  Biso   1.000  H
  H2813    1.0000 0.20190  0.64110  0.43310  Biso   1.000  H
  H2814    1.0000 0.20190  0.35890  0.56690  Biso   1.000  H
  H2815    1.0000 0.79810  0.35890  0.43310  Biso   1.000  H
  H2816    1.0000 0.79810  0.64110  0.56690  Biso   1.000  H
  H2817    1.0000 0.93310  0.70190  0.64110  Biso   1.000  H
  H2818    1.0000 0.06690  0.70190  0.35890  Biso   1.000  H
  H2819    1.0000 0.93310  0.29810  0.35890  Biso   1.000  H
  H2820    1.0000 0.06690  0.29810  0.64110  Biso   1.000  H
  H2821    1.0000 0.43310  0.14110  0.20190  Biso   1.000  H
  H2822    1.0000 0.56690  0.85890  0.20190  Biso   1.000  H
  H2823    1.0000 0.43310  0.85890  0.79810  Biso   1.000  H
  H2824    1.0000 0.56690  0.14110  0.79810  Biso   1.000  H
  H2825    1.0000 0.64110  0.20190  0.93310  Biso   1.000  H
  H2826    1.0000 0.35890  0.20190  0.06690  Biso   1.000  H
  H2827    1.0000 0.35890  0.79810  0.93310  Biso   1.000  H
  H2828    1.0000 0.64110  0.79810  0.06690  Biso   1.000  H
  H2829    1.0000 0.70190  0.93310  0.14110  Biso   1.000  H
  H2830    1.0000 0.70190  0.06690  0.85890  Biso   1.000  H
  H2831    1.0000 0.29810  0.93310  0.85890  Biso   1.000  H
  H2832    1.0000 0.29810  0.06690  0.14110  Biso   1.000  H
  H2833    1.0000 0.64110  0.93310  0.70190  Biso   1.000  H
  H2834    1.0000 0.35890  0.06690  0.70190  Biso   1.000  H
  H2835    1.0000 0.35890  0.93310  0.29810  Biso   1.000  H
  H2836    1.0000 0.64110  0.06690  0.29810  Biso   1.000  H
  H2837    1.0000 0.70190  0.14110  0.43310  Biso   1.000  H
  H2838    1.0000 0.70190  0.85890  0.56690  Biso   1.000  H
  H2839    1.0000 0.29810  0.85890  0.43310  Biso   1.000  H
  H2840    1.0000 0.29810  0.14110  0.56690  Biso   1.000  H
  H2841    1.0000 0.43310  0.20190  0.64110  Biso   1.000  H
  H2842    1.0000 0.56690  0.20190  0.35890  Biso   1.000  H
  H2843    1.0000 0.43310  0.79810  0.35890  Biso   1.000  H
  H2844    1.0000 0.56690  0.79810  0.64110  Biso   1.000  H
  H2845    1.0000 0.93310  0.64110  0.20190  Biso   1.000  H
  H2846    1.0000 0.06690  0.35890  0.20190  Biso   1.000  H
  H2847    1.0000 0.93310  0.35890  0.79810  Biso   1.000  H
  H2848    1.0000 0.06690  0.64110  0.79810  Biso   1.000  H
  H2849    1.0000 0.14110  0.70190  0.93310  Biso   1.000  H
  H2850    1.0000 0.85890  0.70190  0.06690  Biso   1.000  H
  H2851    1.0000 0.85890  0.29810  0.93310  Biso   1.000  H
  H2852    1.0000 0.14110  0.29810  0.06690  Biso   1.000  H
  H2853    1.0000 0.20190  0.43310  0.14110  Biso   1.000  H
  H2854    1.0000 0.20190  0.56690  0.85890  Biso   1.000  H
  H2855    1.0000 0.79810  0.43310  0.85890  Biso   1.000  H
  H2856    1.0000 0.79810  0.56690  0.14110  Biso   1.000  H
  H2857    1.0000 0.64110  0.43310  0.20190  Biso   1.000  H
  H2858    1.0000 0.35890  0.56690  0.20190  Biso   1.000  H
  H2859    1.0000 0.35890  0.43310  0.79810  Biso   1.000  H
  H2860    1.0000 0.64110  0.56690  0.79810  Biso   1.000  H
  H2861    1.0000 0.70190  0.64110  0.93310  Biso   1.000  H
  H2862    1.0000 0.70190  0.35890  0.06690  Biso   1.000  H
  H2863    1.0000 0.29810  0.35890  0.93310  Biso   1.000  H
  H2864    1.0000 0.29810  0.64110  0.06690  Biso   1.000  H
  H2865    1.0000 0.43310  0.70190  0.14110  Biso   1.000  H
  H2866    1.0000 0.56690  0.70190  0.85890  Biso   1.000  H
  H2867    1.0000 0.43310  0.29810  0.85890  Biso   1.000  H
  H2868    1.0000 0.56690  0.29810  0.14110  Biso   1.000  H
  H2869    1.0000 0.93310  0.14110  0.70190  Biso   1.000  H
  H2870    1.0000 0.06690  0.85890  0.70190  Biso   1.000  H
  H2871    1.0000 0.93310  0.85890  0.29810  Biso   1.000  H
  H2872    1.0000 0.06690  0.14110  0.29810  Biso   1.000  H
  H2873    1.0000 0.14110  0.20190  0.43310  Biso   1.000  H
  H2874    1.0000 0.85890  0.20190  0.56690  Biso   1.000  H
  H2875    1.0000 0.85890  0.79810  0.43310  Biso   1.000  H
  H2876    1.0000 0.14110  0.79810  0.56690  Biso   1.000  H
  H2877    1.0000 0.20190  0.93310  0.64110  Biso   1.000  H
  H2878    1.0000 0.20190  0.06690  0.35890  Biso   1.000  H
  H2879    1.0000 0.79810  0.93310  0.35890  Biso   1.000  H
  H2880    1.0000 0.79810  0.06690  0.64110  Biso   1.000  H
  H2881    1.0000 0.15390  0.94880  0.18170  Biso   1.000  H
  H2882    1.0000 0.84610  0.05120  0.18170  Biso   1.000  H
  H2883    1.0000 0.84610  0.94880  0.81830  Biso   1.000  H
  H2884    1.0000 0.15390  0.05120  0.81830  Biso   1.000  H
  H2885    1.0000 0.18170  0.15390  0.94880  Biso   1.000  H
  H2886    1.0000 0.18170  0.84610  0.05120  Biso   1.000  H
  H2887    1.0000 0.81830  0.84610  0.94880  Biso   1.000  H
  H2888    1.0000 0.81830  0.15390  0.05120  Biso   1.000  H
  H2889    1.0000 0.94880  0.18170  0.15390  Biso   1.000  H
  H2890    1.0000 0.05120  0.18170  0.84610  Biso   1.000  H
  H2891    1.0000 0.94880  0.81830  0.84610  Biso   1.000  H
  H2892    1.0000 0.05120  0.81830  0.15390  Biso   1.000  H
  H2893    1.0000 0.44880  0.65390  0.68170  Biso   1.000  H
  H2894    1.0000 0.55120  0.34610  0.68170  Biso   1.000  H
  H2895    1.0000 0.44880  0.34610  0.31830  Biso   1.000  H
  H2896    1.0000 0.55120  0.65390  0.31830  Biso   1.000  H
  H2897    1.0000 0.65390  0.68170  0.44880  Biso   1.000  H
  H2898    1.0000 0.34610  0.68170  0.55120  Biso   1.000  H
  H2899    1.0000 0.34610  0.31830  0.44880  Biso   1.000  H
  H2900    1.0000 0.65390  0.31830  0.55120  Biso   1.000  H
  H2901    1.0000 0.68170  0.44880  0.65390  Biso   1.000  H
  H2902    1.0000 0.68170  0.55120  0.34610  Biso   1.000  H
  H2903    1.0000 0.31830  0.44880  0.34610  Biso   1.000  H
  H2904    1.0000 0.31830  0.55120  0.65390  Biso   1.000  H
  H2905    1.0000 0.15390  0.44880  0.68170  Biso   1.000  H
  H2906    1.0000 0.84610  0.55120  0.68170  Biso   1.000  H
  H2907    1.0000 0.84610  0.44880  0.31830  Biso   1.000  H
  H2908    1.0000 0.15390  0.55120  0.31830  Biso   1.000  H
  H2909    1.0000 0.18170  0.65390  0.44880  Biso   1.000  H
  H2910    1.0000 0.18170  0.34610  0.55120  Biso   1.000  H
  H2911    1.0000 0.81830  0.34610  0.44880  Biso   1.000  H
  H2912    1.0000 0.81830  0.65390  0.55120  Biso   1.000  H
  H2913    1.0000 0.94880  0.68170  0.65390  Biso   1.000  H
  H2914    1.0000 0.05120  0.68170  0.34610  Biso   1.000  H
  H2915    1.0000 0.94880  0.31830  0.34610  Biso   1.000  H
  H2916    1.0000 0.05120  0.31830  0.65390  Biso   1.000  H
  H2917    1.0000 0.44880  0.15390  0.18170  Biso   1.000  H
  H2918    1.0000 0.55120  0.84610  0.18170  Biso   1.000  H
  H2919    1.0000 0.44880  0.84610  0.81830  Biso   1.000  H
  H2920    1.0000 0.55120  0.15390  0.81830  Biso   1.000  H
  H2921    1.0000 0.65390  0.18170  0.94880  Biso   1.000  H
  H2922    1.0000 0.34610  0.18170  0.05120  Biso   1.000  H
  H2923    1.0000 0.34610  0.81830  0.94880  Biso   1.000  H
  H2924    1.0000 0.65390  0.81830  0.05120  Biso   1.000  H
  H2925    1.0000 0.68170  0.94880  0.15390  Biso   1.000  H
  H2926    1.0000 0.68170  0.05120  0.84610  Biso   1.000  H
  H2927    1.0000 0.31830  0.94880  0.84610  Biso   1.000  H
  H2928    1.0000 0.31830  0.05120  0.15390  Biso   1.000  H
  H2929    1.0000 0.65390  0.94880  0.68170  Biso   1.000  H
  H2930    1.0000 0.34610  0.05120  0.68170  Biso   1.000  H
  H2931    1.0000 0.34610  0.94880  0.31830  Biso   1.000  H
  H2932    1.0000 0.65390  0.05120  0.31830  Biso   1.000  H
  H2933    1.0000 0.68170  0.15390  0.44880  Biso   1.000  H
  H2934    1.0000 0.68170  0.84610  0.55120  Biso   1.000  H
  H2935    1.0000 0.31830  0.84610  0.44880  Biso   1.000  H
  H2936    1.0000 0.31830  0.15390  0.55120  Biso   1.000  H
  H2937    1.0000 0.44880  0.18170  0.65390  Biso   1.000  H
  H2938    1.0000 0.55120  0.18170  0.34610  Biso   1.000  H
  H2939    1.0000 0.44880  0.81830  0.34610  Biso   1.000  H
  H2940    1.0000 0.55120  0.81830  0.65390  Biso   1.000  H
  H2941    1.0000 0.94880  0.65390  0.18170  Biso   1.000  H
  H2942    1.0000 0.05120  0.34610  0.18170  Biso   1.000  H
  H2943    1.0000 0.94880  0.34610  0.81830  Biso   1.000  H
  H2944    1.0000 0.05120  0.65390  0.81830  Biso   1.000  H
  H2945    1.0000 0.15390  0.68170  0.94880  Biso   1.000  H
  H2946    1.0000 0.84610  0.68170  0.05120  Biso   1.000  H
  H2947    1.0000 0.84610  0.31830  0.94880  Biso   1.000  H
  H2948    1.0000 0.15390  0.31830  0.05120  Biso   1.000  H
  H2949    1.0000 0.18170  0.44880  0.15390  Biso   1.000  H
  H2950    1.0000 0.18170  0.55120  0.84610  Biso   1.000  H
  H2951    1.0000 0.81830  0.44880  0.84610  Biso   1.000  H
  H2952    1.0000 0.81830  0.55120  0.15390  Biso   1.000  H
  H2953    1.0000 0.65390  0.44880  0.18170  Biso   1.000  H
  H2954    1.0000 0.34610  0.55120  0.18170  Biso   1.000  H
  H2955    1.0000 0.34610  0.44880  0.81830  Biso   1.000  H
  H2956    1.0000 0.65390  0.55120  0.81830  Biso   1.000  H
  H2957    1.0000 0.68170  0.65390  0.94880  Biso   1.000  H
  H2958    1.0000 0.68170  0.34610  0.05120  Biso   1.000  H
  H2959    1.0000 0.31830  0.34610  0.94880  Biso   1.000  H
  H2960    1.0000 0.31830  0.65390  0.05120  Biso   1.000  H
  H2961    1.0000 0.44880  0.68170  0.15390  Biso   1.000  H
  H2962    1.0000 0.55120  0.68170  0.84610  Biso   1.000  H
  H2963    1.0000 0.44880  0.31830  0.84610  Biso   1.000  H
  H2964    1.0000 0.55120  0.31830  0.15390  Biso   1.000  H
  H2965    1.0000 0.94880  0.15390  0.68170  Biso   1.000  H
  H2966    1.0000 0.05120  0.84610  0.68170  Biso   1.000  H
  H2967    1.0000 0.94880  0.84610  0.31830  Biso   1.000  H
  H2968    1.0000 0.05120  0.15390  0.31830  Biso   1.000  H
  H2969    1.0000 0.15390  0.18170  0.44880  Biso   1.000  H
  H2970    1.0000 0.84610  0.18170  0.55120  Biso   1.000  H
  H2971    1.0000 0.84610  0.81830  0.44880  Biso   1.000  H
  H2972    1.0000 0.15390  0.81830  0.55120  Biso   1.000  H
  H2973    1.0000 0.18170  0.94880  0.65390  Biso   1.000  H
  H2974    1.0000 0.18170  0.05120  0.34610  Biso   1.000  H
  H2975    1.0000 0.81830  0.94880  0.34610  Biso   1.000  H
  H2976    1.0000 0.81830  0.05120  0.65390  Biso   1.000  H
  C3169    1.0000 0.14451  0.89261  0.18078  Biso   1.000  C
  C3170    1.0000 0.85549  0.10739  0.18078  Biso   1.000  C
  C3171    1.0000 0.85549  0.89261  0.81922  Biso   1.000  C
  C3172    1.0000 0.14451  0.10739  0.81922  Biso   1.000  C
  C3173    1.0000 0.18078  0.14451  0.89261  Biso   1.000  C
  C3174    1.0000 0.18078  0.85549  0.10739  Biso   1.000  C
  C3175    1.0000 0.81922  0.85549  0.89261  Biso   1.000  C
  C3176    1.0000 0.81922  0.14451  0.10739  Biso   1.000  C
  C3177    1.0000 0.89261  0.18078  0.14451  Biso   1.000  C
  C3178    1.0000 0.10739  0.18078  0.85549  Biso   1.000  C
  C3179    1.0000 0.89261  0.81922  0.85549  Biso   1.000  C
  C3180    1.0000 0.10739  0.81922  0.14451  Biso   1.000  C
  C3181    1.0000 0.39261  0.64451  0.68078  Biso   1.000  C
  C3182    1.0000 0.60739  0.35549  0.68078  Biso   1.000  C
  C3183    1.0000 0.39261  0.35549  0.31922  Biso   1.000  C
  C3184    1.0000 0.60739  0.64451  0.31922  Biso   1.000  C
  C3185    1.0000 0.64451  0.68078  0.39261  Biso   1.000  C
  C3186    1.0000 0.35549  0.68078  0.60739  Biso   1.000  C
  C3187    1.0000 0.35549  0.31922  0.39261  Biso   1.000  C
  C3188    1.0000 0.64451  0.31922  0.60739  Biso   1.000  C
  C3189    1.0000 0.68078  0.39261  0.64451  Biso   1.000  C
  C3190    1.0000 0.68078  0.60739  0.35549  Biso   1.000  C
  C3191    1.0000 0.31922  0.39261  0.35549  Biso   1.000  C
  C3192    1.0000 0.31922  0.60739  0.64451  Biso   1.000  C
  C3193    1.0000 0.14451  0.39261  0.68078  Biso   1.000  C
  C3194    1.0000 0.85549  0.60739  0.68078  Biso   1.000  C
  C3195    1.0000 0.85549  0.39261  0.31922  Biso   1.000  C
  C3196    1.0000 0.14451  0.60739  0.31922  Biso   1.000  C
  C3197    1.0000 0.18078  0.64451  0.39261  Biso   1.000  C
  C3198    1.0000 0.18078  0.35549  0.60739  Biso   1.000  C
  C3199    1.0000 0.81922  0.35549  0.39261  Biso   1.000  C
  C3200    1.0000 0.81922  0.64451  0.60739  Biso   1.000  C
  C3201    1.0000 0.89261  0.68078  0.64451  Biso   1.000  C
  C3202    1.0000 0.10739  0.68078  0.35549  Biso   1.000  C
  C3203    1.0000 0.89261  0.31922  0.35549  Biso   1.000  C
  C3204    1.0000 0.10739  0.31922  0.64451  Biso   1.000  C
  C3205    1.0000 0.39261  0.14451  0.18078  Biso   1.000  C
  C3206    1.0000 0.60739  0.85549  0.18078  Biso   1.000  C
  C3207    1.0000 0.39261  0.85549  0.81922  Biso   1.000  C
  C3208    1.0000 0.60739  0.14451  0.81922  Biso   1.000  C
  C3209    1.0000 0.64451  0.18078  0.89261  Biso   1.000  C
  C3210    1.0000 0.35549  0.18078  0.10739  Biso   1.000  C
  C3211    1.0000 0.35549  0.81922  0.89261  Biso   1.000  C
  C3212    1.0000 0.64451  0.81922  0.10739  Biso   1.000  C
  C3213    1.0000 0.68078  0.89261  0.14451  Biso   1.000  C
  C3214    1.0000 0.68078  0.10739  0.85549  Biso   1.000  C
  C3215    1.0000 0.31922  0.89261  0.85549  Biso   1.000  C
  C3216    1.0000 0.31922  0.10739  0.14451  Biso   1.000  C
  C3217    1.0000 0.64451  0.89261  0.68078  Biso   1.000  C
  C3218    1.0000 0.35549  0.10739  0.68078  Biso   1.000  C
  C3219    1.0000 0.35549  0.89261  0.31922  Biso   1.000  C
  C3220    1.0000 0.64451  0.10739  0.31922  Biso   1.000  C
  C3221    1.0000 0.68078  0.14451  0.39261  Biso   1.000  C
  C3222    1.0000 0.68078  0.85549  0.60739  Biso   1.000  C
  C3223    1.0000 0.31922  0.85549  0.39261  Biso   1.000  C
  C3224    1.0000 0.31922  0.14451  0.60739  Biso   1.000  C
  C3225    1.0000 0.39261  0.18078  0.64451  Biso   1.000  C
  C3226    1.0000 0.60739  0.18078  0.35549  Biso   1.000  C
  C3227    1.0000 0.39261  0.81922  0.35549  Biso   1.000  C
  C3228    1.0000 0.60739  0.81922  0.64451  Biso   1.000  C
  C3229    1.0000 0.89261  0.64451  0.18078  Biso   1.000  C
  C3230    1.0000 0.10739  0.35549  0.18078  Biso   1.000  C
  C3231    1.0000 0.89261  0.35549  0.81922  Biso   1.000  C
  C3232    1.0000 0.10739  0.64451  0.81922  Biso   1.000  C
  C3233    1.0000 0.14451  0.68078  0.89261  Biso   1.000  C
  C3234    1.0000 0.85549  0.68078  0.10739  Biso   1.000  C
  C3235    1.0000 0.85549  0.31922  0.89261  Biso   1.000  C
  C3236    1.0000 0.14451  0.31922  0.10739  Biso   1.000  C
  C3237    1.0000 0.18078  0.39261  0.14451  Biso   1.000  C
  C3238    1.0000 0.18078  0.60739  0.85549  Biso   1.000  C
  C3239    1.0000 0.81922  0.39261  0.85549  Biso   1.000  C
  C3240    1.0000 0.81922  0.60739  0.14451  Biso   1.000  C
  C3241    1.0000 0.64451  0.39261  0.18078  Biso   1.000  C
  C3242    1.0000 0.35549  0.60739  0.18078  Biso   1.000  C
  C3243    1.0000 0.35549  0.39261  0.81922  Biso   1.000  C
  C3244    1.0000 0.64451  0.60739  0.81922  Biso   1.000  C
  C3245    1.0000 0.68078  0.64451  0.89261  Biso   1.000  C
  C3246    1.0000 0.68078  0.35549  0.10739  Biso   1.000  C
  C3247    1.0000 0.31922  0.35549  0.89261  Biso   1.000  C
  C3248    1.0000 0.31922  0.64451  0.10739  Biso   1.000  C
  C3249    1.0000 0.39261  0.68078  0.14451  Biso   1.000  C
  C3250    1.0000 0.60739  0.68078  0.85549  Biso   1.000  C
  C3251    1.0000 0.39261  0.31922  0.85549  Biso   1.000  C
  C3252    1.0000 0.60739  0.31922  0.14451  Biso   1.000  C
  C3253    1.0000 0.89261  0.14451  0.68078  Biso   1.000  C
  C3254    1.0000 0.10739  0.85549  0.68078  Biso   1.000  C
  C3255    1.0000 0.89261  0.85549  0.31922  Biso   1.000  C
  C3256    1.0000 0.10739  0.14451  0.31922  Biso   1.000  C
  C3257    1.0000 0.14451  0.18078  0.39261  Biso   1.000  C
  C3258    1.0000 0.85549  0.18078  0.60739  Biso   1.000  C
  C3259    1.0000 0.85549  0.81922  0.39261  Biso   1.000  C
  C3260    1.0000 0.14451  0.81922  0.60739  Biso   1.000  C
  C3261    1.0000 0.18078  0.89261  0.64451  Biso   1.000  C
  C3262    1.0000 0.18078  0.10739  0.35549  Biso   1.000  C
  C3263    1.0000 0.81922  0.89261  0.35549  Biso   1.000  C
  C3264    1.0000 0.81922  0.10739  0.64451  Biso   1.000  C
  C3265    1.0000 0.14490  0.87347  0.16183  Biso   1.000  C
  C3266    1.0000 0.85510  0.12653  0.16183  Biso   1.000  C
  C3267    1.0000 0.85510  0.87347  0.83817  Biso   1.000  C
  C3268    1.0000 0.14490  0.12653  0.83817  Biso   1.000  C
  C3269    1.0000 0.16183  0.14490  0.87347  Biso   1.000  C
  C3270    1.0000 0.16183  0.85510  0.12653  Biso   1.000  C
  C3271    1.0000 0.83817  0.85510  0.87347  Biso   1.000  C
  C3272    1.0000 0.83817  0.14490  0.12653  Biso   1.000  C
  C3273    1.0000 0.87347  0.16183  0.14490  Biso   1.000  C
  C3274    1.0000 0.12653  0.16183  0.85510  Biso   1.000  C
  C3275    1.0000 0.87347  0.83817  0.85510  Biso   1.000  C
  C3276    1.0000 0.12653  0.83817  0.14490  Biso   1.000  C
  C3277    1.0000 0.37347  0.64490  0.66183  Biso   1.000  C
  C3278    1.0000 0.62653  0.35510  0.66183  Biso   1.000  C
  C3279    1.0000 0.37347  0.35510  0.33817  Biso   1.000  C
  C3280    1.0000 0.62653  0.64490  0.33817  Biso   1.000  C
  C3281    1.0000 0.64490  0.66183  0.37347  Biso   1.000  C
  C3282    1.0000 0.35510  0.66183  0.62653  Biso   1.000  C
  C3283    1.0000 0.35510  0.33817  0.37347  Biso   1.000  C
  C3284    1.0000 0.64490  0.33817  0.62653  Biso   1.000  C
  C3285    1.0000 0.66183  0.37347  0.64490  Biso   1.000  C
  C3286    1.0000 0.66183  0.62653  0.35510  Biso   1.000  C
  C3287    1.0000 0.33817  0.37347  0.35510  Biso   1.000  C
  C3288    1.0000 0.33817  0.62653  0.64490  Biso   1.000  C
  C3289    1.0000 0.14490  0.37347  0.66183  Biso   1.000  C
  C3290    1.0000 0.85510  0.62653  0.66183  Biso   1.000  C
  C3291    1.0000 0.85510  0.37347  0.33817  Biso   1.000  C
  C3292    1.0000 0.14490  0.62653  0.33817  Biso   1.000  C
  C3293    1.0000 0.16183  0.64490  0.37347  Biso   1.000  C
  C3294    1.0000 0.16183  0.35510  0.62653  Biso   1.000  C
  C3295    1.0000 0.83817  0.35510  0.37347  Biso   1.000  C
  C3296    1.0000 0.83817  0.64490  0.62653  Biso   1.000  C
  C3297    1.0000 0.87347  0.66183  0.64490  Biso   1.000  C
  C3298    1.0000 0.12653  0.66183  0.35510  Biso   1.000  C
  C3299    1.0000 0.87347  0.33817  0.35510  Biso   1.000  C
  C3300    1.0000 0.12653  0.33817  0.64490  Biso   1.000  C
  C3301    1.0000 0.37347  0.14490  0.16183  Biso   1.000  C
  C3302    1.0000 0.62653  0.85510  0.16183  Biso   1.000  C
  C3303    1.0000 0.37347  0.85510  0.83817  Biso   1.000  C
  C3304    1.0000 0.62653  0.14490  0.83817  Biso   1.000  C
  C3305    1.0000 0.64490  0.16183  0.87347  Biso   1.000  C
  C3306    1.0000 0.35510  0.16183  0.12653  Biso   1.000  C
  C3307    1.0000 0.35510  0.83817  0.87347  Biso   1.000  C
  C3308    1.0000 0.64490  0.83817  0.12653  Biso   1.000  C
  C3309    1.0000 0.66183  0.87347  0.14490  Biso   1.000  C
  C3310    1.0000 0.66183  0.12653  0.85510  Biso   1.000  C
  C3311    1.0000 0.33817  0.87347  0.85510  Biso   1.000  C
  C3312    1.0000 0.33817  0.12653  0.14490  Biso   1.000  C
  C3313    1.0000 0.64490  0.87347  0.66183  Biso   1.000  C
  C3314    1.0000 0.35510  0.12653  0.66183  Biso   1.000  C
  C3315    1.0000 0.35510  0.87347  0.33817  Biso   1.000  C
  C3316    1.0000 0.64490  0.12653  0.33817  Biso   1.000  C
  C3317    1.0000 0.66183  0.14490  0.37347  Biso   1.000  C
  C3318    1.0000 0.66183  0.85510  0.62653  Biso   1.000  C
  C3319    1.0000 0.33817  0.85510  0.37347  Biso   1.000  C
  C3320    1.0000 0.33817  0.14490  0.62653  Biso   1.000  C
  C3321    1.0000 0.37347  0.16183  0.64490  Biso   1.000  C
  C3322    1.0000 0.62653  0.16183  0.35510  Biso   1.000  C
  C3323    1.0000 0.37347  0.83817  0.35510  Biso   1.000  C
  C3324    1.0000 0.62653  0.83817  0.64490  Biso   1.000  C
  C3325    1.0000 0.87347  0.64490  0.16183  Biso   1.000  C
  C3326    1.0000 0.12653  0.35510  0.16183  Biso   1.000  C
  C3327    1.0000 0.87347  0.35510  0.83817  Biso   1.000  C
  C3328    1.0000 0.12653  0.64490  0.83817  Biso   1.000  C
  C3329    1.0000 0.14490  0.66183  0.87347  Biso   1.000  C
  C3330    1.0000 0.85510  0.66183  0.12653  Biso   1.000  C
  C3331    1.0000 0.85510  0.33817  0.87347  Biso   1.000  C
  C3332    1.0000 0.14490  0.33817  0.12653  Biso   1.000  C
  C3333    1.0000 0.16183  0.37347  0.14490  Biso   1.000  C
  C3334    1.0000 0.16183  0.62653  0.85510  Biso   1.000  C
  C3335    1.0000 0.83817  0.37347  0.85510  Biso   1.000  C
  C3336    1.0000 0.83817  0.62653  0.14490  Biso   1.000  C
  C3337    1.0000 0.64490  0.37347  0.16183  Biso   1.000  C
  C3338    1.0000 0.35510  0.62653  0.16183  Biso   1.000  C
  C3339    1.0000 0.35510  0.37347  0.83817  Biso   1.000  C
  C3340    1.0000 0.64490  0.62653  0.83817  Biso   1.000  C
  C3341    1.0000 0.66183  0.64490  0.87347  Biso   1.000  C
  C3342    1.0000 0.66183  0.35510  0.12653  Biso   1.000  C
  C3343    1.0000 0.33817  0.35510  0.87347  Biso   1.000  C
  C3344    1.0000 0.33817  0.64490  0.12653  Biso   1.000  C
  C3345    1.0000 0.37347  0.66183  0.14490  Biso   1.000  C
  C3346    1.0000 0.62653  0.66183  0.85510  Biso   1.000  C
  C3347    1.0000 0.37347  0.33817  0.85510  Biso   1.000  C
  C3348    1.0000 0.62653  0.33817  0.14490  Biso   1.000  C
  C3349    1.0000 0.87347  0.14490  0.66183  Biso   1.000  C
  C3350    1.0000 0.12653  0.85510  0.66183  Biso   1.000  C
  C3351    1.0000 0.87347  0.85510  0.33817  Biso   1.000  C
  C3352    1.0000 0.12653  0.14490  0.33817  Biso   1.000  C
  C3353    1.0000 0.14490  0.16183  0.37347  Biso   1.000  C
  C3354    1.0000 0.85510  0.16183  0.62653  Biso   1.000  C
  C3355    1.0000 0.85510  0.83817  0.37347  Biso   1.000  C
  C3356    1.0000 0.14490  0.83817  0.62653  Biso   1.000  C
  C3357    1.0000 0.16183  0.87347  0.64490  Biso   1.000  C
  C3358    1.0000 0.16183  0.12653  0.35510  Biso   1.000  C
  C3359    1.0000 0.83817  0.87347  0.35510  Biso   1.000  C
  C3360    1.0000 0.83817  0.12653  0.64490  Biso   1.000  C
  C3361    1.0000 0.12743  0.85581  0.16259  Biso   1.000  C
  C3362    1.0000 0.87257  0.14419  0.16259  Biso   1.000  C
  C3363    1.0000 0.87257  0.85581  0.83741  Biso   1.000  C
  C3364    1.0000 0.12743  0.14419  0.83741  Biso   1.000  C
  C3365    1.0000 0.16259  0.12743  0.85581  Biso   1.000  C
  C3366    1.0000 0.16259  0.87257  0.14419  Biso   1.000  C
  C3367    1.0000 0.83741  0.87257  0.85581  Biso   1.000  C
  C3368    1.0000 0.83741  0.12743  0.14419  Biso   1.000  C
  C3369    1.0000 0.85581  0.16259  0.12743  Biso   1.000  C
  C3370    1.0000 0.14419  0.16259  0.87257  Biso   1.000  C
  C3371    1.0000 0.85581  0.83741  0.87257  Biso   1.000  C
  C3372    1.0000 0.14419  0.83741  0.12743  Biso   1.000  C
  C3373    1.0000 0.35581  0.62743  0.66259  Biso   1.000  C
  C3374    1.0000 0.64419  0.37257  0.66259  Biso   1.000  C
  C3375    1.0000 0.35581  0.37257  0.33741  Biso   1.000  C
  C3376    1.0000 0.64419  0.62743  0.33741  Biso   1.000  C
  C3377    1.0000 0.62743  0.66259  0.35581  Biso   1.000  C
  C3378    1.0000 0.37257  0.66259  0.64419  Biso   1.000  C
  C3379    1.0000 0.37257  0.33741  0.35581  Biso   1.000  C
  C3380    1.0000 0.62743  0.33741  0.64419  Biso   1.000  C
  C3381    1.0000 0.66259  0.35581  0.62743  Biso   1.000  C
  C3382    1.0000 0.66259  0.64419  0.37257  Biso   1.000  C
  C3383    1.0000 0.33741  0.35581  0.37257  Biso   1.000  C
  C3384    1.0000 0.33741  0.64419  0.62743  Biso   1.000  C
  C3385    1.0000 0.12743  0.35581  0.66259  Biso   1.000  C
  C3386    1.0000 0.87257  0.64419  0.66259  Biso   1.000  C
  C3387    1.0000 0.87257  0.35581  0.33741  Biso   1.000  C
  C3388    1.0000 0.12743  0.64419  0.33741  Biso   1.000  C
  C3389    1.0000 0.16259  0.62743  0.35581  Biso   1.000  C
  C3390    1.0000 0.16259  0.37257  0.64419  Biso   1.000  C
  C3391    1.0000 0.83741  0.37257  0.35581  Biso   1.000  C
  C3392    1.0000 0.83741  0.62743  0.64419  Biso   1.000  C
  C3393    1.0000 0.85581  0.66259  0.62743  Biso   1.000  C
  C3394    1.0000 0.14419  0.66259  0.37257  Biso   1.000  C
  C3395    1.0000 0.85581  0.33741  0.37257  Biso   1.000  C
  C3396    1.0000 0.14419  0.33741  0.62743  Biso   1.000  C
  C3397    1.0000 0.35581  0.12743  0.16259  Biso   1.000  C
  C3398    1.0000 0.64419  0.87257  0.16259  Biso   1.000  C
  C3399    1.0000 0.35581  0.87257  0.83741  Biso   1.000  C
  C3400    1.0000 0.64419  0.12743  0.83741  Biso   1.000  C
  C3401    1.0000 0.62743  0.16259  0.85581  Biso   1.000  C
  C3402    1.0000 0.37257  0.16259  0.14419  Biso   1.000  C
  C3403    1.0000 0.37257  0.83741  0.85581  Biso   1.000  C
  C3404    1.0000 0.62743  0.83741  0.14419  Biso   1.000  C
  C3405    1.0000 0.66259  0.85581  0.12743  Biso   1.000  C
  C3406    1.0000 0.66259  0.14419  0.87257  Biso   1.000  C
  C3407    1.0000 0.33741  0.85581  0.87257  Biso   1.000  C
  C3408    1.0000 0.33741  0.14419  0.12743  Biso   1.000  C
  C3409    1.0000 0.62743  0.85581  0.66259  Biso   1.000  C
  C3410    1.0000 0.37257  0.14419  0.66259  Biso   1.000  C
  C3411    1.0000 0.37257  0.85581  0.33741  Biso   1.000  C
  C3412    1.0000 0.62743  0.14419  0.33741  Biso   1.000  C
  C3413    1.0000 0.66259  0.12743  0.35581  Biso   1.000  C
  C3414    1.0000 0.66259  0.87257  0.64419  Biso   1.000  C
  C3415    1.0000 0.33741  0.87257  0.35581  Biso   1.000  C
  C3416    1.0000 0.33741  0.12743  0.64419  Biso   1.000  C
  C3417    1.0000 0.35581  0.16259  0.62743  Biso   1.000  C
  C3418    1.0000 0.64419  0.16259  0.37257  Biso   1.000  C
  C3419    1.0000 0.35581  0.83741  0.37257  Biso   1.000  C
  C3420    1.0000 0.64419  0.83741  0.62743  Biso   1.000  C
  C3421    1.0000 0.85581  0.62743  0.16259  Biso   1.000  C
  C3422    1.0000 0.14419  0.37257  0.16259  Biso   1.000  C
  C3423    1.0000 0.85581  0.37257  0.83741  Biso   1.000  C
  C3424    1.0000 0.14419  0.62743  0.83741  Biso   1.000  C
  C3425    1.0000 0.12743  0.66259  0.85581  Biso   1.000  C
  C3426    1.0000 0.87257  0.66259  0.14419  Biso   1.000  C
  C3427    1.0000 0.87257  0.33741  0.85581  Biso   1.000  C
  C3428    1.0000 0.12743  0.33741  0.14419  Biso   1.000  C
  C3429    1.0000 0.16259  0.35581  0.12743  Biso   1.000  C
  C3430    1.0000 0.16259  0.64419  0.87257  Biso   1.000  C
  C3431    1.0000 0.83741  0.35581  0.87257  Biso   1.000  C
  C3432    1.0000 0.83741  0.64419  0.12743  Biso   1.000  C
  C3433    1.0000 0.62743  0.35581  0.16259  Biso   1.000  C
  C3434    1.0000 0.37257  0.64419  0.16259  Biso   1.000  C
  C3435    1.0000 0.37257  0.35581  0.83741  Biso   1.000  C
  C3436    1.0000 0.62743  0.64419  0.83741  Biso   1.000  C
  C3437    1.0000 0.66259  0.62743  0.85581  Biso   1.000  C
  C3438    1.0000 0.66259  0.37257  0.14419  Biso   1.000  C
  C3439    1.0000 0.33741  0.37257  0.85581  Biso   1.000  C
  C3440    1.0000 0.33741  0.62743  0.14419  Biso   1.000  C
  C3441    1.0000 0.35581  0.66259  0.12743  Biso   1.000  C
  C3442    1.0000 0.64419  0.66259  0.87257  Biso   1.000  C
  C3443    1.0000 0.35581  0.33741  0.87257  Biso   1.000  C
  C3444    1.0000 0.64419  0.33741  0.12743  Biso   1.000  C
  C3445    1.0000 0.85581  0.12743  0.66259  Biso   1.000  C
  C3446    1.0000 0.14419  0.87257  0.66259  Biso   1.000  C
  C3447    1.0000 0.85581  0.87257  0.33741  Biso   1.000  C
  C3448    1.0000 0.14419  0.12743  0.33741  Biso   1.000  C
  C3449    1.0000 0.12743  0.16259  0.35581  Biso   1.000  C
  C3450    1.0000 0.87257  0.16259  0.64419  Biso   1.000  C
  C3451    1.0000 0.87257  0.83741  0.35581  Biso   1.000  C
  C3452    1.0000 0.12743  0.83741  0.64419  Biso   1.000  C
  C3453    1.0000 0.16259  0.85581  0.62743  Biso   1.000  C
  C3454    1.0000 0.16259  0.14419  0.37257  Biso   1.000  C
  C3455    1.0000 0.83741  0.85581  0.37257  Biso   1.000  C
  C3456    1.0000 0.83741  0.14419  0.62743  Biso   1.000  C
  H2977    1.0000 0.11600  0.85570  0.17520  Biso   1.000  H
  H2978    1.0000 0.88400  0.14430  0.17520  Biso   1.000  H
  H2979    1.0000 0.88400  0.85570  0.82480  Biso   1.000  H
  H2980    1.0000 0.11600  0.14430  0.82480  Biso   1.000  H
  H2981    1.0000 0.17520  0.11600  0.85570  Biso   1.000  H
  H2982    1.0000 0.17520  0.88400  0.14430  Biso   1.000  H
  H2983    1.0000 0.82480  0.88400  0.85570  Biso   1.000  H
  H2984    1.0000 0.82480  0.11600  0.14430  Biso   1.000  H
  H2985    1.0000 0.85570  0.17520  0.11600  Biso   1.000  H
  H2986    1.0000 0.14430  0.17520  0.88400  Biso   1.000  H
  H2987    1.0000 0.85570  0.82480  0.88400  Biso   1.000  H
  H2988    1.0000 0.14430  0.82480  0.11600  Biso   1.000  H
  H2989    1.0000 0.35570  0.61600  0.67520  Biso   1.000  H
  H2990    1.0000 0.64430  0.38400  0.67520  Biso   1.000  H
  H2991    1.0000 0.35570  0.38400  0.32480  Biso   1.000  H
  H2992    1.0000 0.64430  0.61600  0.32480  Biso   1.000  H
  H2993    1.0000 0.61600  0.67520  0.35570  Biso   1.000  H
  H2994    1.0000 0.38400  0.67520  0.64430  Biso   1.000  H
  H2995    1.0000 0.38400  0.32480  0.35570  Biso   1.000  H
  H2996    1.0000 0.61600  0.32480  0.64430  Biso   1.000  H
  H2997    1.0000 0.67520  0.35570  0.61600  Biso   1.000  H
  H2998    1.0000 0.67520  0.64430  0.38400  Biso   1.000  H
  H2999    1.0000 0.32480  0.35570  0.38400  Biso   1.000  H
  H3000    1.0000 0.32480  0.64430  0.61600  Biso   1.000  H
  H3001    1.0000 0.11600  0.35570  0.67520  Biso   1.000  H
  H3002    1.0000 0.88400  0.64430  0.67520  Biso   1.000  H
  H3003    1.0000 0.88400  0.35570  0.32480  Biso   1.000  H
  H3004    1.0000 0.11600  0.64430  0.32480  Biso   1.000  H
  H3005    1.0000 0.17520  0.61600  0.35570  Biso   1.000  H
  H3006    1.0000 0.17520  0.38400  0.64430  Biso   1.000  H
  H3007    1.0000 0.82480  0.38400  0.35570  Biso   1.000  H
  H3008    1.0000 0.82480  0.61600  0.64430  Biso   1.000  H
  H3009    1.0000 0.85570  0.67520  0.61600  Biso   1.000  H
  H3010    1.0000 0.14430  0.67520  0.38400  Biso   1.000  H
  H3011    1.0000 0.85570  0.32480  0.38400  Biso   1.000  H
  H3012    1.0000 0.14430  0.32480  0.61600  Biso   1.000  H
  H3013    1.0000 0.35570  0.11600  0.17520  Biso   1.000  H
  H3014    1.0000 0.64430  0.88400  0.17520  Biso   1.000  H
  H3015    1.0000 0.35570  0.88400  0.82480  Biso   1.000  H
  H3016    1.0000 0.64430  0.11600  0.82480  Biso   1.000  H
  H3017    1.0000 0.61600  0.17520  0.85570  Biso   1.000  H
  H3018    1.0000 0.38400  0.17520  0.14430  Biso   1.000  H
  H3019    1.0000 0.38400  0.82480  0.85570  Biso   1.000  H
  H3020    1.0000 0.61600  0.82480  0.14430  Biso   1.000  H
  H3021    1.0000 0.67520  0.85570  0.11600  Biso   1.000  H
  H3022    1.0000 0.67520  0.14430  0.88400  Biso   1.000  H
  H3023    1.0000 0.32480  0.85570  0.88400  Biso   1.000  H
  H3024    1.0000 0.32480  0.14430  0.11600  Biso   1.000  H
  H3025    1.0000 0.61600  0.85570  0.67520  Biso   1.000  H
  H3026    1.0000 0.38400  0.14430  0.67520  Biso   1.000  H
  H3027    1.0000 0.38400  0.85570  0.32480  Biso   1.000  H
  H3028    1.0000 0.61600  0.14430  0.32480  Biso   1.000  H
  H3029    1.0000 0.67520  0.11600  0.35570  Biso   1.000  H
  H3030    1.0000 0.67520  0.88400  0.64430  Biso   1.000  H
  H3031    1.0000 0.32480  0.88400  0.35570  Biso   1.000  H
  H3032    1.0000 0.32480  0.11600  0.64430  Biso   1.000  H
  H3033    1.0000 0.35570  0.17520  0.61600  Biso   1.000  H
  H3034    1.0000 0.64430  0.17520  0.38400  Biso   1.000  H
  H3035    1.0000 0.35570  0.82480  0.38400  Biso   1.000  H
  H3036    1.0000 0.64430  0.82480  0.61600  Biso   1.000  H
  H3037    1.0000 0.85570  0.61600  0.17520  Biso   1.000  H
  H3038    1.0000 0.14430  0.38400  0.17520  Biso   1.000  H
  H3039    1.0000 0.85570  0.38400  0.82480  Biso   1.000  H
  H3040    1.0000 0.14430  0.61600  0.82480  Biso   1.000  H
  H3041    1.0000 0.11600  0.67520  0.85570  Biso   1.000  H
  H3042    1.0000 0.88400  0.67520  0.14430  Biso   1.000  H
  H3043    1.0000 0.88400  0.32480  0.85570  Biso   1.000  H
  H3044    1.0000 0.11600  0.32480  0.14430  Biso   1.000  H
  H3045    1.0000 0.17520  0.35570  0.11600  Biso   1.000  H
  H3046    1.0000 0.17520  0.64430  0.88400  Biso   1.000  H
  H3047    1.0000 0.82480  0.35570  0.88400  Biso   1.000  H
  H3048    1.0000 0.82480  0.64430  0.11600  Biso   1.000  H
  H3049    1.0000 0.61600  0.35570  0.17520  Biso   1.000  H
  H3050    1.0000 0.38400  0.64430  0.17520  Biso   1.000  H
  H3051    1.0000 0.38400  0.35570  0.82480  Biso   1.000  H
  H3052    1.0000 0.61600  0.64430  0.82480  Biso   1.000  H
  H3053    1.0000 0.67520  0.61600  0.85570  Biso   1.000  H
  H3054    1.0000 0.67520  0.38400  0.14430  Biso   1.000  H
  H3055    1.0000 0.32480  0.38400  0.85570  Biso   1.000  H
  H3056    1.0000 0.32480  0.61600  0.14430  Biso   1.000  H
  H3057    1.0000 0.35570  0.67520  0.11600  Biso   1.000  H
  H3058    1.0000 0.64430  0.67520  0.88400  Biso   1.000  H
  H3059    1.0000 0.35570  0.32480  0.88400  Biso   1.000  H
  H3060    1.0000 0.64430  0.32480  0.11600  Biso   1.000  H
  H3061    1.0000 0.85570  0.11600  0.67520  Biso   1.000  H
  H3062    1.0000 0.14430  0.88400  0.67520  Biso   1.000  H
  H3063    1.0000 0.85570  0.88400  0.32480  Biso   1.000  H
  H3064    1.0000 0.14430  0.11600  0.32480  Biso   1.000  H
  H3065    1.0000 0.11600  0.17520  0.35570  Biso   1.000  H
  H3066    1.0000 0.88400  0.17520  0.64430  Biso   1.000  H
  H3067    1.0000 0.88400  0.82480  0.35570  Biso   1.000  H
  H3068    1.0000 0.11600  0.82480  0.64430  Biso   1.000  H
  H3069    1.0000 0.17520  0.85570  0.61600  Biso   1.000  H
  H3070    1.0000 0.17520  0.14430  0.38400  Biso   1.000  H
  H3071    1.0000 0.82480  0.85570  0.38400  Biso   1.000  H
  H3072    1.0000 0.82480  0.14430  0.61600  Biso   1.000  H
  N865     1.0000 0.56443  0.80481  0.13182  Biso   1.000  N
  N866     1.0000 0.43557  0.19519  0.13182  Biso   1.000  N
  N867     1.0000 0.43557  0.80481  0.86818  Biso   1.000  N
  N868     1.0000 0.56443  0.19519  0.86818  Biso   1.000  N
  N869     1.0000 0.13182  0.56443  0.80481  Biso   1.000  N
  N870     1.0000 0.13182  0.43557  0.19519  Biso   1.000  N
  N871     1.0000 0.86818  0.43557  0.80481  Biso   1.000  N
  N872     1.0000 0.86818  0.56443  0.19519  Biso   1.000  N
  N873     1.0000 0.80481  0.13182  0.56443  Biso   1.000  N
  N874     1.0000 0.19519  0.13182  0.43557  Biso   1.000  N
  N875     1.0000 0.80481  0.86818  0.43557  Biso   1.000  N
  N876     1.0000 0.19519  0.86818  0.56443  Biso   1.000  N
  N877     1.0000 0.30481  0.06443  0.63182  Biso   1.000  N
  N878     1.0000 0.69519  0.93557  0.63182  Biso   1.000  N
  N879     1.0000 0.30481  0.93557  0.36818  Biso   1.000  N
  N880     1.0000 0.69519  0.06443  0.36818  Biso   1.000  N
  N881     1.0000 0.06443  0.63182  0.30481  Biso   1.000  N
  N882     1.0000 0.93557  0.63182  0.69519  Biso   1.000  N
  N883     1.0000 0.93557  0.36818  0.30481  Biso   1.000  N
  N884     1.0000 0.06443  0.36818  0.69519  Biso   1.000  N
  N885     1.0000 0.63182  0.30481  0.06443  Biso   1.000  N
  N886     1.0000 0.63182  0.69519  0.93557  Biso   1.000  N
  N887     1.0000 0.36818  0.30481  0.93557  Biso   1.000  N
  N888     1.0000 0.36818  0.69519  0.06443  Biso   1.000  N
  N889     1.0000 0.56443  0.30481  0.63182  Biso   1.000  N
  N890     1.0000 0.43557  0.69519  0.63182  Biso   1.000  N
  N891     1.0000 0.43557  0.30481  0.36818  Biso   1.000  N
  N892     1.0000 0.56443  0.69519  0.36818  Biso   1.000  N
  N893     1.0000 0.13182  0.06443  0.30481  Biso   1.000  N
  N894     1.0000 0.13182  0.93557  0.69519  Biso   1.000  N
  N895     1.0000 0.86818  0.93557  0.30481  Biso   1.000  N
  N896     1.0000 0.86818  0.06443  0.69519  Biso   1.000  N
  N897     1.0000 0.80481  0.63182  0.06443  Biso   1.000  N
  N898     1.0000 0.19519  0.63182  0.93557  Biso   1.000  N
  N899     1.0000 0.80481  0.36818  0.93557  Biso   1.000  N
  N900     1.0000 0.19519  0.36818  0.06443  Biso   1.000  N
  N901     1.0000 0.30481  0.56443  0.13182  Biso   1.000  N
  N902     1.0000 0.69519  0.43557  0.13182  Biso   1.000  N
  N903     1.0000 0.30481  0.43557  0.86818  Biso   1.000  N
  N904     1.0000 0.69519  0.56443  0.86818  Biso   1.000  N
  N905     1.0000 0.06443  0.13182  0.80481  Biso   1.000  N
  N906     1.0000 0.93557  0.13182  0.19519  Biso   1.000  N
  N907     1.0000 0.93557  0.86818  0.80481  Biso   1.000  N
  N908     1.0000 0.06443  0.86818  0.19519  Biso   1.000  N
  N909     1.0000 0.63182  0.80481  0.56443  Biso   1.000  N
  N910     1.0000 0.63182  0.19519  0.43557  Biso   1.000  N
  N911     1.0000 0.36818  0.80481  0.43557  Biso   1.000  N
  N912     1.0000 0.36818  0.19519  0.56443  Biso   1.000  N
  N913     1.0000 0.06443  0.80481  0.63182  Biso   1.000  N
  N914     1.0000 0.93557  0.19519  0.63182  Biso   1.000  N
  N915     1.0000 0.93557  0.80481  0.36818  Biso   1.000  N
  N916     1.0000 0.06443  0.19519  0.36818  Biso   1.000  N
  N917     1.0000 0.63182  0.56443  0.30481  Biso   1.000  N
  N918     1.0000 0.63182  0.43557  0.69519  Biso   1.000  N
  N919     1.0000 0.36818  0.43557  0.30481  Biso   1.000  N
  N920     1.0000 0.36818  0.56443  0.69519  Biso   1.000  N
  N921     1.0000 0.30481  0.13182  0.06443  Biso   1.000  N
  N922     1.0000 0.69519  0.13182  0.93557  Biso   1.000  N
  N923     1.0000 0.30481  0.86818  0.93557  Biso   1.000  N
  N924     1.0000 0.69519  0.86818  0.06443  Biso   1.000  N
  N925     1.0000 0.80481  0.06443  0.13182  Biso   1.000  N
  N926     1.0000 0.19519  0.93557  0.13182  Biso   1.000  N
  N927     1.0000 0.80481  0.93557  0.86818  Biso   1.000  N
  N928     1.0000 0.19519  0.06443  0.86818  Biso   1.000  N
  N929     1.0000 0.56443  0.63182  0.80481  Biso   1.000  N
  N930     1.0000 0.43557  0.63182  0.19519  Biso   1.000  N
  N931     1.0000 0.43557  0.36818  0.80481  Biso   1.000  N
  N932     1.0000 0.56443  0.36818  0.19519  Biso   1.000  N
  N933     1.0000 0.13182  0.30481  0.56443  Biso   1.000  N
  N934     1.0000 0.13182  0.69519  0.43557  Biso   1.000  N
  N935     1.0000 0.86818  0.30481  0.43557  Biso   1.000  N
  N936     1.0000 0.86818  0.69519  0.56443  Biso   1.000  N
  N937     1.0000 0.06443  0.30481  0.13182  Biso   1.000  N
  N938     1.0000 0.93557  0.69519  0.13182  Biso   1.000  N
  N939     1.0000 0.93557  0.30481  0.86818  Biso   1.000  N
  N940     1.0000 0.06443  0.69519  0.86818  Biso   1.000  N
  N941     1.0000 0.63182  0.06443  0.80481  Biso   1.000  N
  N942     1.0000 0.63182  0.93557  0.19519  Biso   1.000  N
  N943     1.0000 0.36818  0.93557  0.80481  Biso   1.000  N
  N944     1.0000 0.36818  0.06443  0.19519  Biso   1.000  N
  N945     1.0000 0.30481  0.63182  0.56443  Biso   1.000  N
  N946     1.0000 0.69519  0.63182  0.43557  Biso   1.000  N
  N947     1.0000 0.30481  0.36818  0.43557  Biso   1.000  N
  N948     1.0000 0.69519  0.36818  0.56443  Biso   1.000  N
  N949     1.0000 0.80481  0.56443  0.63182  Biso   1.000  N
  N950     1.0000 0.19519  0.43557  0.63182  Biso   1.000  N
  N951     1.0000 0.80481  0.43557  0.36818  Biso   1.000  N
  N952     1.0000 0.19519  0.56443  0.36818  Biso   1.000  N
  N953     1.0000 0.56443  0.13182  0.30481  Biso   1.000  N
  N954     1.0000 0.43557  0.13182  0.69519  Biso   1.000  N
  N955     1.0000 0.43557  0.86818  0.30481  Biso   1.000  N
  N956     1.0000 0.56443  0.86818  0.69519  Biso   1.000  N
  N957     1.0000 0.13182  0.80481  0.06443  Biso   1.000  N
  N958     1.0000 0.13182  0.19519  0.93557  Biso   1.000  N
  N959     1.0000 0.86818  0.80481  0.93557  Biso   1.000  N
  N960     1.0000 0.86818  0.19519  0.06443  Biso   1.000  N
  O769     1.0000 0.57218  0.82548  0.12963  Biso   1.000  O
  O770     1.0000 0.42782  0.17452  0.12963  Biso   1.000  O
  O771     1.0000 0.42782  0.82548  0.87037  Biso   1.000  O
  O772     1.0000 0.57218  0.17452  0.87037  Biso   1.000  O
  O773     1.0000 0.12963  0.57218  0.82548  Biso   1.000  O
  O774     1.0000 0.12963  0.42782  0.17452  Biso   1.000  O
  O775     1.0000 0.87037  0.42782  0.82548  Biso   1.000  O
  O776     1.0000 0.87037  0.57218  0.17452  Biso   1.000  O
  O777     1.0000 0.82548  0.12963  0.57218  Biso   1.000  O
  O778     1.0000 0.17452  0.12963  0.42782  Biso   1.000  O
  O779     1.0000 0.82548  0.87037  0.42782  Biso   1.000  O
  O780     1.0000 0.17452  0.87037  0.57218  Biso   1.000  O
  O781     1.0000 0.32548  0.07218  0.62963  Biso   1.000  O
  O782     1.0000 0.67452  0.92782  0.62963  Biso   1.000  O
  O783     1.0000 0.32548  0.92782  0.37037  Biso   1.000  O
  O784     1.0000 0.67452  0.07218  0.37037  Biso   1.000  O
  O785     1.0000 0.07218  0.62963  0.32548  Biso   1.000  O
  O786     1.0000 0.92782  0.62963  0.67452  Biso   1.000  O
  O787     1.0000 0.92782  0.37037  0.32548  Biso   1.000  O
  O788     1.0000 0.07218  0.37037  0.67452  Biso   1.000  O
  O789     1.0000 0.62963  0.32548  0.07218  Biso   1.000  O
  O790     1.0000 0.62963  0.67452  0.92782  Biso   1.000  O
  O791     1.0000 0.37037  0.32548  0.92782  Biso   1.000  O
  O792     1.0000 0.37037  0.67452  0.07218  Biso   1.000  O
  O793     1.0000 0.57218  0.32548  0.62963  Biso   1.000  O
  O794     1.0000 0.42782  0.67452  0.62963  Biso   1.000  O
  O795     1.0000 0.42782  0.32548  0.37037  Biso   1.000  O
  O796     1.0000 0.57218  0.67452  0.37037  Biso   1.000  O
  O797     1.0000 0.12963  0.07218  0.32548  Biso   1.000  O
  O798     1.0000 0.12963  0.92782  0.67452  Biso   1.000  O
  O799     1.0000 0.87037  0.92782  0.32548  Biso   1.000  O
  O800     1.0000 0.87037  0.07218  0.67452  Biso   1.000  O
  O801     1.0000 0.82548  0.62963  0.07218  Biso   1.000  O
  O802     1.0000 0.17452  0.62963  0.92782  Biso   1.000  O
  O803     1.0000 0.82548  0.37037  0.92782  Biso   1.000  O
  O804     1.0000 0.17452  0.37037  0.07218  Biso   1.000  O
  O805     1.0000 0.32548  0.57218  0.12963  Biso   1.000  O
  O806     1.0000 0.67452  0.42782  0.12963  Biso   1.000  O
  O807     1.0000 0.32548  0.42782  0.87037  Biso   1.000  O
  O808     1.0000 0.67452  0.57218  0.87037  Biso   1.000  O
  O809     1.0000 0.07218  0.12963  0.82548  Biso   1.000  O
  O810     1.0000 0.92782  0.12963  0.17452  Biso   1.000  O
  O811     1.0000 0.92782  0.87037  0.82548  Biso   1.000  O
  O812     1.0000 0.07218  0.87037  0.17452  Biso   1.000  O
  O813     1.0000 0.62963  0.82548  0.57218  Biso   1.000  O
  O814     1.0000 0.62963  0.17452  0.42782  Biso   1.000  O
  O815     1.0000 0.37037  0.82548  0.42782  Biso   1.000  O
  O816     1.0000 0.37037  0.17452  0.57218  Biso   1.000  O
  O817     1.0000 0.07218  0.82548  0.62963  Biso   1.000  O
  O818     1.0000 0.92782  0.17452  0.62963  Biso   1.000  O
  O819     1.0000 0.92782  0.82548  0.37037  Biso   1.000  O
  O820     1.0000 0.07218  0.17452  0.37037  Biso   1.000  O
  O821     1.0000 0.62963  0.57218  0.32548  Biso   1.000  O
  O822     1.0000 0.62963  0.42782  0.67452  Biso   1.000  O
  O823     1.0000 0.37037  0.42782  0.32548  Biso   1.000  O
  O824     1.0000 0.37037  0.57218  0.67452  Biso   1.000  O
  O825     1.0000 0.32548  0.12963  0.07218  Biso   1.000  O
  O826     1.0000 0.67452  0.12963  0.92782  Biso   1.000  O
  O827     1.0000 0.32548  0.87037  0.92782  Biso   1.000  O
  O828     1.0000 0.67452  0.87037  0.07218  Biso   1.000  O
  O829     1.0000 0.82548  0.07218  0.12963  Biso   1.000  O
  O830     1.0000 0.17452  0.92782  0.12963  Biso   1.000  O
  O831     1.0000 0.82548  0.92782  0.87037  Biso   1.000  O
  O832     1.0000 0.17452  0.07218  0.87037  Biso   1.000  O
  O833     1.0000 0.57218  0.62963  0.82548  Biso   1.000  O
  O834     1.0000 0.42782  0.62963  0.17452  Biso   1.000  O
  O835     1.0000 0.42782  0.37037  0.82548  Biso   1.000  O
  O836     1.0000 0.57218  0.37037  0.17452  Biso   1.000  O
  O837     1.0000 0.12963  0.32548  0.57218  Biso   1.000  O
  O838     1.0000 0.12963  0.67452  0.42782  Biso   1.000  O
  O839     1.0000 0.87037  0.32548  0.42782  Biso   1.000  O
  O840     1.0000 0.87037  0.67452  0.57218  Biso   1.000  O
  O841     1.0000 0.07218  0.32548  0.12963  Biso   1.000  O
  O842     1.0000 0.92782  0.67452  0.12963  Biso   1.000  O
  O843     1.0000 0.92782  0.32548  0.87037  Biso   1.000  O
  O844     1.0000 0.07218  0.67452  0.87037  Biso   1.000  O
  O845     1.0000 0.62963  0.07218  0.82548  Biso   1.000  O
  O846     1.0000 0.62963  0.92782  0.17452  Biso   1.000  O
  O847     1.0000 0.37037  0.92782  0.82548  Biso   1.000  O
  O848     1.0000 0.37037  0.07218  0.17452  Biso   1.000  O
  O849     1.0000 0.32548  0.62963  0.57218  Biso   1.000  O
  O850     1.0000 0.67452  0.62963  0.42782  Biso   1.000  O
  O851     1.0000 0.32548  0.37037  0.42782  Biso   1.000  O
  O852     1.0000 0.67452  0.37037  0.57218  Biso   1.000  O
  O853     1.0000 0.82548  0.57218  0.62963  Biso   1.000  O
  O854     1.0000 0.17452  0.42782  0.62963  Biso   1.000  O
  O855     1.0000 0.82548  0.42782  0.37037  Biso   1.000  O
  O856     1.0000 0.17452  0.57218  0.37037  Biso   1.000  O
  O857     1.0000 0.57218  0.12963  0.32548  Biso   1.000  O
  O858     1.0000 0.42782  0.12963  0.67452  Biso   1.000  O
  O859     1.0000 0.42782  0.87037  0.32548  Biso   1.000  O
  O860     1.0000 0.57218  0.87037  0.67452  Biso   1.000  O
  O861     1.0000 0.12963  0.82548  0.07218  Biso   1.000  O
  O862     1.0000 0.12963  0.17452  0.92782  Biso   1.000  O
  O863     1.0000 0.87037  0.82548  0.92782  Biso   1.000  O
  O864     1.0000 0.87037  0.17452  0.07218  Biso   1.000  O
  O865     1.0000 0.55990  0.79168  0.11375  Biso   1.000  O
  O866     1.0000 0.44010  0.20832  0.11375  Biso   1.000  O
  O867     1.0000 0.44010  0.79168  0.88625  Biso   1.000  O
  O868     1.0000 0.55990  0.20832  0.88625  Biso   1.000  O
  O869     1.0000 0.11375  0.55990  0.79168  Biso   1.000  O
  O870     1.0000 0.11375  0.44010  0.20832  Biso   1.000  O
  O871     1.0000 0.88625  0.44010  0.79168  Biso   1.000  O
  O872     1.0000 0.88625  0.55990  0.20832  Biso   1.000  O
  O873     1.0000 0.79168  0.11375  0.55990  Biso   1.000  O
  O874     1.0000 0.20832  0.11375  0.44010  Biso   1.000  O
  O875     1.0000 0.79168  0.88625  0.44010  Biso   1.000  O
  O876     1.0000 0.20832  0.88625  0.55990  Biso   1.000  O
  O877     1.0000 0.29168  0.05990  0.61375  Biso   1.000  O
  O878     1.0000 0.70832  0.94010  0.61375  Biso   1.000  O
  O879     1.0000 0.29168  0.94010  0.38625  Biso   1.000  O
  O880     1.0000 0.70832  0.05990  0.38625  Biso   1.000  O
  O881     1.0000 0.05990  0.61375  0.29168  Biso   1.000  O
  O882     1.0000 0.94010  0.61375  0.70832  Biso   1.000  O
  O883     1.0000 0.94010  0.38625  0.29168  Biso   1.000  O
  O884     1.0000 0.05990  0.38625  0.70832  Biso   1.000  O
  O885     1.0000 0.61375  0.29168  0.05990  Biso   1.000  O
  O886     1.0000 0.61375  0.70832  0.94010  Biso   1.000  O
  O887     1.0000 0.38625  0.29168  0.94010  Biso   1.000  O
  O888     1.0000 0.38625  0.70832  0.05990  Biso   1.000  O
  O889     1.0000 0.55990  0.29168  0.61375  Biso   1.000  O
  O890     1.0000 0.44010  0.70832  0.61375  Biso   1.000  O
  O891     1.0000 0.44010  0.29168  0.38625  Biso   1.000  O
  O892     1.0000 0.55990  0.70832  0.38625  Biso   1.000  O
  O893     1.0000 0.11375  0.05990  0.29168  Biso   1.000  O
  O894     1.0000 0.11375  0.94010  0.70832  Biso   1.000  O
  O895     1.0000 0.88625  0.94010  0.29168  Biso   1.000  O
  O896     1.0000 0.88625  0.05990  0.70832  Biso   1.000  O
  O897     1.0000 0.79168  0.61375  0.05990  Biso   1.000  O
  O898     1.0000 0.20832  0.61375  0.94010  Biso   1.000  O
  O899     1.0000 0.79168  0.38625  0.94010  Biso   1.000  O
  O900     1.0000 0.20832  0.38625  0.05990  Biso   1.000  O
  O901     1.0000 0.29168  0.55990  0.11375  Biso   1.000  O
  O902     1.0000 0.70832  0.44010  0.11375  Biso   1.000  O
  O903     1.0000 0.29168  0.44010  0.88625  Biso   1.000  O
  O904     1.0000 0.70832  0.55990  0.88625  Biso   1.000  O
  O905     1.0000 0.05990  0.11375  0.79168  Biso   1.000  O
  O906     1.0000 0.94010  0.11375  0.20832  Biso   1.000  O
  O907     1.0000 0.94010  0.88625  0.79168  Biso   1.000  O
  O908     1.0000 0.05990  0.88625  0.20832  Biso   1.000  O
  O909     1.0000 0.61375  0.79168  0.55990  Biso   1.000  O
  O910     1.0000 0.61375  0.20832  0.44010  Biso   1.000  O
  O911     1.0000 0.38625  0.79168  0.44010  Biso   1.000  O
  O912     1.0000 0.38625  0.20832  0.55990  Biso   1.000  O
  O913     1.0000 0.05990  0.79168  0.61375  Biso   1.000  O
  O914     1.0000 0.94010  0.20832  0.61375  Biso   1.000  O
  O915     1.0000 0.94010  0.79168  0.38625  Biso   1.000  O
  O916     1.0000 0.05990  0.20832  0.38625  Biso   1.000  O
  O917     1.0000 0.61375  0.55990  0.29168  Biso   1.000  O
  O918     1.0000 0.61375  0.44010  0.70832  Biso   1.000  O
  O919     1.0000 0.38625  0.44010  0.29168  Biso   1.000  O
  O920     1.0000 0.38625  0.55990  0.70832  Biso   1.000  O
  O921     1.0000 0.29168  0.11375  0.05990  Biso   1.000  O
  O922     1.0000 0.70832  0.11375  0.94010  Biso   1.000  O
  O923     1.0000 0.29168  0.88625  0.94010  Biso   1.000  O
  O924     1.0000 0.70832  0.88625  0.05990  Biso   1.000  O
  O925     1.0000 0.79168  0.05990  0.11375  Biso   1.000  O
  O926     1.0000 0.20832  0.94010  0.11375  Biso   1.000  O
  O927     1.0000 0.79168  0.94010  0.88625  Biso   1.000  O
  O928     1.0000 0.20832  0.05990  0.88625  Biso   1.000  O
  O929     1.0000 0.55990  0.61375  0.79168  Biso   1.000  O
  O930     1.0000 0.44010  0.61375  0.20832  Biso   1.000  O
  O931     1.0000 0.44010  0.38625  0.79168  Biso   1.000  O
  O932     1.0000 0.55990  0.38625  0.20832  Biso   1.000  O
  O933     1.0000 0.11375  0.29168  0.55990  Biso   1.000  O
  O934     1.0000 0.11375  0.70832  0.44010  Biso   1.000  O
  O935     1.0000 0.88625  0.29168  0.44010  Biso   1.000  O
  O936     1.0000 0.88625  0.70832  0.55990  Biso   1.000  O
  O937     1.0000 0.05990  0.29168  0.11375  Biso   1.000  O
  O938     1.0000 0.94010  0.70832  0.11375  Biso   1.000  O
  O939     1.0000 0.94010  0.29168  0.88625  Biso   1.000  O
  O940     1.0000 0.05990  0.70832  0.88625  Biso   1.000  O
  O941     1.0000 0.61375  0.05990  0.79168  Biso   1.000  O
  O942     1.0000 0.61375  0.94010  0.20832  Biso   1.000  O
  O943     1.0000 0.38625  0.94010  0.79168  Biso   1.000  O
  O944     1.0000 0.38625  0.05990  0.20832  Biso   1.000  O
  O945     1.0000 0.29168  0.61375  0.55990  Biso   1.000  O
  O946     1.0000 0.70832  0.61375  0.44010  Biso   1.000  O
  O947     1.0000 0.29168  0.38625  0.44010  Biso   1.000  O
  O948     1.0000 0.70832  0.38625  0.55990  Biso   1.000  O
  O949     1.0000 0.79168  0.55990  0.61375  Biso   1.000  O
  O950     1.0000 0.20832  0.44010  0.61375  Biso   1.000  O
  O951     1.0000 0.79168  0.44010  0.38625  Biso   1.000  O
  O952     1.0000 0.20832  0.55990  0.38625  Biso   1.000  O
  O953     1.0000 0.55990  0.11375  0.29168  Biso   1.000  O
  O954     1.0000 0.44010  0.11375  0.70832  Biso   1.000  O
  O955     1.0000 0.44010  0.88625  0.29168  Biso   1.000  O
  O956     1.0000 0.55990  0.88625  0.70832  Biso   1.000  O
  O957     1.0000 0.11375  0.79168  0.05990  Biso   1.000  O
  O958     1.0000 0.11375  0.20832  0.94010  Biso   1.000  O
  O959     1.0000 0.88625  0.79168  0.94010  Biso   1.000  O
  O960     1.0000 0.88625  0.20832  0.05990  Biso   1.000  O
  O961     1.0000 0.55614  0.79925  0.15203  Biso   1.000  O
  O962     1.0000 0.44386  0.20075  0.15203  Biso   1.000  O
  O963     1.0000 0.44386  0.79925  0.84797  Biso   1.000  O
  O964     1.0000 0.55614  0.20075  0.84797  Biso   1.000  O
  O965     1.0000 0.15203  0.55614  0.79925  Biso   1.000  O
  O966     1.0000 0.15203  0.44386  0.20075  Biso   1.000  O
  O967     1.0000 0.84797  0.44386  0.79925  Biso   1.000  O
  O968     1.0000 0.84797  0.55614  0.20075  Biso   1.000  O
  O969     1.0000 0.79925  0.15203  0.55614  Biso   1.000  O
  O970     1.0000 0.20075  0.15203  0.44386  Biso   1.000  O
  O971     1.0000 0.79925  0.84797  0.44386  Biso   1.000  O
  O972     1.0000 0.20075  0.84797  0.55614  Biso   1.000  O
  O973     1.0000 0.29925  0.05614  0.65203  Biso   1.000  O
  O974     1.0000 0.70075  0.94386  0.65203  Biso   1.000  O
  O975     1.0000 0.29925  0.94386  0.34797  Biso   1.000  O
  O976     1.0000 0.70075  0.05614  0.34797  Biso   1.000  O
  O977     1.0000 0.05614  0.65203  0.29925  Biso   1.000  O
  O978     1.0000 0.94386  0.65203  0.70075  Biso   1.000  O
  O979     1.0000 0.94386  0.34797  0.29925  Biso   1.000  O
  O980     1.0000 0.05614  0.34797  0.70075  Biso   1.000  O
  O981     1.0000 0.65203  0.29925  0.05614  Biso   1.000  O
  O982     1.0000 0.65203  0.70075  0.94386  Biso   1.000  O
  O983     1.0000 0.34797  0.29925  0.94386  Biso   1.000  O
  O984     1.0000 0.34797  0.70075  0.05614  Biso   1.000  O
  O985     1.0000 0.55614  0.29925  0.65203  Biso   1.000  O
  O986     1.0000 0.44386  0.70075  0.65203  Biso   1.000  O
  O987     1.0000 0.44386  0.29925  0.34797  Biso   1.000  O
  O988     1.0000 0.55614  0.70075  0.34797  Biso   1.000  O
  O989     1.0000 0.15203  0.05614  0.29925  Biso   1.000  O
  O990     1.0000 0.15203  0.94386  0.70075  Biso   1.000  O
  O991     1.0000 0.84797  0.94386  0.29925  Biso   1.000  O
  O992     1.0000 0.84797  0.05614  0.70075  Biso   1.000  O
  O993     1.0000 0.79925  0.65203  0.05614  Biso   1.000  O
  O994     1.0000 0.20075  0.65203  0.94386  Biso   1.000  O
  O995     1.0000 0.79925  0.34797  0.94386  Biso   1.000  O
  O996     1.0000 0.20075  0.34797  0.05614  Biso   1.000  O
  O997     1.0000 0.29925  0.55614  0.15203  Biso   1.000  O
  O998     1.0000 0.70075  0.44386  0.15203  Biso   1.000  O
  O999     1.0000 0.29925  0.44386  0.84797  Biso   1.000  O
  O1000    1.0000 0.70075  0.55614  0.84797  Biso   1.000  O
  O1001    1.0000 0.05614  0.15203  0.79925  Biso   1.000  O
  O1002    1.0000 0.94386  0.15203  0.20075  Biso   1.000  O
  O1003    1.0000 0.94386  0.84797  0.79925  Biso   1.000  O
  O1004    1.0000 0.05614  0.84797  0.20075  Biso   1.000  O
  O1005    1.0000 0.65203  0.79925  0.55614  Biso   1.000  O
  O1006    1.0000 0.65203  0.20075  0.44386  Biso   1.000  O
  O1007    1.0000 0.34797  0.79925  0.44386  Biso   1.000  O
  O1008    1.0000 0.34797  0.20075  0.55614  Biso   1.000  O
  O1009    1.0000 0.05614  0.79925  0.65203  Biso   1.000  O
  O1010    1.0000 0.94386  0.20075  0.65203  Biso   1.000  O
  O1011    1.0000 0.94386  0.79925  0.34797  Biso   1.000  O
  O1012    1.0000 0.05614  0.20075  0.34797  Biso   1.000  O
  O1013    1.0000 0.65203  0.55614  0.29925  Biso   1.000  O
  O1014    1.0000 0.65203  0.44386  0.70075  Biso   1.000  O
  O1015    1.0000 0.34797  0.44386  0.29925  Biso   1.000  O
  O1016    1.0000 0.34797  0.55614  0.70075  Biso   1.000  O
  O1017    1.0000 0.29925  0.15203  0.05614  Biso   1.000  O
  O1018    1.0000 0.70075  0.15203  0.94386  Biso   1.000  O
  O1019    1.0000 0.29925  0.84797  0.94386  Biso   1.000  O
  O1020    1.0000 0.70075  0.84797  0.05614  Biso   1.000  O
  O1021    1.0000 0.79925  0.05614  0.15203  Biso   1.000  O
  O1022    1.0000 0.20075  0.94386  0.15203  Biso   1.000  O
  O1023    1.0000 0.79925  0.94386  0.84797  Biso   1.000  O
  O1024    1.0000 0.20075  0.05614  0.84797  Biso   1.000  O
  O1025    1.0000 0.55614  0.65203  0.79925  Biso   1.000  O
  O1026    1.0000 0.44386  0.65203  0.20075  Biso   1.000  O
  O1027    1.0000 0.44386  0.34797  0.79925  Biso   1.000  O
  O1028    1.0000 0.55614  0.34797  0.20075  Biso   1.000  O
  O1029    1.0000 0.15203  0.29925  0.55614  Biso   1.000  O
  O1030    1.0000 0.15203  0.70075  0.44386  Biso   1.000  O
  O1031    1.0000 0.84797  0.29925  0.44386  Biso   1.000  O
  O1032    1.0000 0.84797  0.70075  0.55614  Biso   1.000  O
  O1033    1.0000 0.05614  0.29925  0.15203  Biso   1.000  O
  O1034    1.0000 0.94386  0.70075  0.15203  Biso   1.000  O
  O1035    1.0000 0.94386  0.29925  0.84797  Biso   1.000  O
  O1036    1.0000 0.05614  0.70075  0.84797  Biso   1.000  O
  O1037    1.0000 0.65203  0.05614  0.79925  Biso   1.000  O
  O1038    1.0000 0.65203  0.94386  0.20075  Biso   1.000  O
  O1039    1.0000 0.34797  0.94386  0.79925  Biso   1.000  O
  O1040    1.0000 0.34797  0.05614  0.20075  Biso   1.000  O
  O1041    1.0000 0.29925  0.65203  0.55614  Biso   1.000  O
  O1042    1.0000 0.70075  0.65203  0.44386  Biso   1.000  O
  O1043    1.0000 0.29925  0.34797  0.44386  Biso   1.000  O
  O1044    1.0000 0.70075  0.34797  0.55614  Biso   1.000  O
  O1045    1.0000 0.79925  0.55614  0.65203  Biso   1.000  O
  O1046    1.0000 0.20075  0.44386  0.65203  Biso   1.000  O
  O1047    1.0000 0.79925  0.44386  0.34797  Biso   1.000  O
  O1048    1.0000 0.20075  0.55614  0.34797  Biso   1.000  O
  O1049    1.0000 0.55614  0.15203  0.29925  Biso   1.000  O
  O1050    1.0000 0.44386  0.15203  0.70075  Biso   1.000  O
  O1051    1.0000 0.44386  0.84797  0.29925  Biso   1.000  O
  O1052    1.0000 0.55614  0.84797  0.70075  Biso   1.000  O
  O1053    1.0000 0.15203  0.79925  0.05614  Biso   1.000  O
  O1054    1.0000 0.15203  0.20075  0.94386  Biso   1.000  O
  O1055    1.0000 0.84797  0.79925  0.94386  Biso   1.000  O
  O1056    1.0000 0.84797  0.20075  0.05614  Biso   1.000  O
