data_image0
_cell_length_a       26.36
_cell_length_b       35.07
_cell_length_c       38.697
_cell_angle_alpha    90
_cell_angle_beta     90
_cell_angle_gamma    90

_symmetry_space_group_name_H-M    "P 1"
_symmetry_int_tables_number       1

loop_
  _symmetry_equiv_pos_as_xyz
  'x, y, z'

loop_
  _atom_site_label
  _atom_site_occupancy
  _atom_site_fract_x
  _atom_site_fract_y
  _atom_site_fract_z
  _atom_site_thermal_displace_type
  _atom_site_B_iso_or_equiv
  _atom_site_type_symbol
  Cu1      1.0000 0.37139  0.25000  0.25000  Biso   1.000  Cu
  Cu2      1.0000 0.87139  0.75000  0.25000  Biso   1.000  Cu
  Cu3      1.0000 0.12861  0.75000  0.25000  Biso   1.000  Cu
  Cu4      1.0000 0.62861  0.25000  0.25000  Biso   1.000  Cu
  Cu5      1.0000 0.62861  0.75000  0.75000  Biso   1.000  Cu
  Cu6      1.0000 0.12861  0.25000  0.75000  Biso   1.000  Cu
  Cu7      1.0000 0.87139  0.25000  0.75000  Biso   1.000  Cu
  Cu8      1.0000 0.37139  0.75000  0.75000  Biso   1.000  Cu
  N1       1.0000 0.50000  0.25000  0.25000  Biso   1.000  N
  N2       1.0000 0.00000  0.75000  0.25000  Biso   1.000  N
  N3       1.0000 0.50000  0.75000  0.75000  Biso   1.000  N
  N4       1.0000 0.00000  0.25000  0.75000  Biso   1.000  N
  O1       1.0000 0.46217  0.25000  0.25000  Biso   1.000  O
  O2       1.0000 0.96217  0.75000  0.25000  Biso   1.000  O
  O3       1.0000 0.03783  0.75000  0.25000  Biso   1.000  O
  O4       1.0000 0.53783  0.25000  0.25000  Biso   1.000  O
  O5       1.0000 0.53783  0.75000  0.75000  Biso   1.000  O
  O6       1.0000 0.03783  0.25000  0.75000  Biso   1.000  O
  O7       1.0000 0.96217  0.25000  0.75000  Biso   1.000  O
  O8       1.0000 0.46217  0.75000  0.75000  Biso   1.000  O
  O9       1.0000 0.50000  0.29580  0.25000  Biso   1.000  O
  O10      1.0000 0.00000  0.79580  0.25000  Biso   1.000  O
  O11      1.0000 0.00000  0.70420  0.25000  Biso   1.000  O
  O12      1.0000 0.50000  0.20420  0.25000  Biso   1.000  O
  O13      1.0000 0.50000  0.70420  0.75000  Biso   1.000  O
  O14      1.0000 0.00000  0.20420  0.75000  Biso   1.000  O
  O15      1.0000 0.00000  0.29580  0.75000  Biso   1.000  O
  O16      1.0000 0.50000  0.79580  0.75000  Biso   1.000  O
  N5       1.0000 0.23070  0.25000  0.25000  Biso   1.000  N
  N6       1.0000 0.73070  0.75000  0.25000  Biso   1.000  N
  N7       1.0000 0.26930  0.75000  0.25000  Biso   1.000  N
  N8       1.0000 0.76930  0.25000  0.25000  Biso   1.000  N
  N9       1.0000 0.76930  0.75000  0.75000  Biso   1.000  N
  N10      1.0000 0.26930  0.25000  0.75000  Biso   1.000  N
  N11      1.0000 0.73070  0.25000  0.75000  Biso   1.000  N
  N12      1.0000 0.23070  0.75000  0.75000  Biso   1.000  N
  O17      1.0000 0.27768  0.25000  0.25000  Biso   1.000  O
  O18      1.0000 0.77768  0.75000  0.25000  Biso   1.000  O
  O19      1.0000 0.22232  0.75000  0.25000  Biso   1.000  O
  O20      1.0000 0.72232  0.25000  0.25000  Biso   1.000  O
  O21      1.0000 0.72232  0.75000  0.75000  Biso   1.000  O
  O22      1.0000 0.22232  0.25000  0.75000  Biso   1.000  O
  O23      1.0000 0.77768  0.25000  0.75000  Biso   1.000  O
  O24      1.0000 0.27768  0.75000  0.75000  Biso   1.000  O
  O25      1.0000 0.22160  0.27330  0.23520  Biso   1.000  O
  O26      1.0000 0.72160  0.77330  0.23520  Biso   1.000  O
  O27      1.0000 0.27840  0.72670  0.23520  Biso   1.000  O
  O28      1.0000 0.77840  0.27330  0.26480  Biso   1.000  O
  O29      1.0000 0.72160  0.72670  0.26480  Biso   1.000  O
  O30      1.0000 0.77840  0.22670  0.23520  Biso   1.000  O
  O31      1.0000 0.27840  0.77330  0.26480  Biso   1.000  O
  O32      1.0000 0.22160  0.22670  0.26480  Biso   1.000  O
  O33      1.0000 0.77840  0.72670  0.76480  Biso   1.000  O
  O34      1.0000 0.27840  0.22670  0.76480  Biso   1.000  O
  O35      1.0000 0.72160  0.27330  0.76480  Biso   1.000  O
  O36      1.0000 0.22160  0.72670  0.73520  Biso   1.000  O
  O37      1.0000 0.27840  0.27330  0.73520  Biso   1.000  O
  O38      1.0000 0.22160  0.77330  0.76480  Biso   1.000  O
  O39      1.0000 0.72160  0.22670  0.73520  Biso   1.000  O
  O40      1.0000 0.77840  0.77330  0.73520  Biso   1.000  O
  Cu9      1.0000 0.00069  0.44832  0.07269  Biso   1.000  Cu
  Cu10     1.0000 0.50069  0.94832  0.07269  Biso   1.000  Cu
  Cu11     1.0000 0.49931  0.55168  0.07269  Biso   1.000  Cu
  Cu12     1.0000 0.99931  0.44832  0.42731  Biso   1.000  Cu
  Cu13     1.0000 0.50069  0.55168  0.42731  Biso   1.000  Cu
  Cu14     1.0000 0.99931  0.05168  0.07269  Biso   1.000  Cu
  Cu15     1.0000 0.49931  0.94832  0.42731  Biso   1.000  Cu
  Cu16     1.0000 0.00069  0.05168  0.42731  Biso   1.000  Cu
  Cu17     1.0000 0.99931  0.55168  0.92731  Biso   1.000  Cu
  Cu18     1.0000 0.49931  0.05168  0.92731  Biso   1.000  Cu
  Cu19     1.0000 0.50069  0.44832  0.92731  Biso   1.000  Cu
  Cu20     1.0000 0.00069  0.55168  0.57269  Biso   1.000  Cu
  Cu21     1.0000 0.49931  0.44832  0.57269  Biso   1.000  Cu
  Cu22     1.0000 0.00069  0.94832  0.92731  Biso   1.000  Cu
  Cu23     1.0000 0.50069  0.05168  0.57269  Biso   1.000  Cu
  Cu24     1.0000 0.99931  0.94832  0.57269  Biso   1.000  Cu
  N13      1.0000 0.01880  0.51151  0.00540  Biso   1.000  N
  N14      1.0000 0.51880  0.01151  0.00540  Biso   1.000  N
  N15      1.0000 0.48120  0.48849  0.00540  Biso   1.000  N
  N16      1.0000 0.98120  0.51151  0.49460  Biso   1.000  N
  N17      1.0000 0.51880  0.48849  0.49460  Biso   1.000  N
  N18      1.0000 0.98120  0.98849  0.00540  Biso   1.000  N
  N19      1.0000 0.48120  0.01151  0.49460  Biso   1.000  N
  N20      1.0000 0.01880  0.98849  0.49460  Biso   1.000  N
  N21      1.0000 0.98120  0.48849  0.99460  Biso   1.000  N
  N22      1.0000 0.48120  0.98849  0.99460  Biso   1.000  N
  N23      1.0000 0.51880  0.51151  0.99460  Biso   1.000  N
  N24      1.0000 0.01880  0.48849  0.50540  Biso   1.000  N
  N25      1.0000 0.48120  0.51151  0.50540  Biso   1.000  N
  N26      1.0000 0.01880  0.01151  0.99460  Biso   1.000  N
  N27      1.0000 0.51880  0.98849  0.50540  Biso   1.000  N
  N28      1.0000 0.98120  0.01151  0.50540  Biso   1.000  N
  O41      1.0000 0.99184  0.49577  0.02651  Biso   1.000  O
  O42      1.0000 0.49184  0.99577  0.02651  Biso   1.000  O
  O43      1.0000 0.50816  0.50423  0.02651  Biso   1.000  O
  O44      1.0000 0.00816  0.49577  0.47349  Biso   1.000  O
  O45      1.0000 0.49184  0.50423  0.47349  Biso   1.000  O
  O46      1.0000 0.00816  0.00423  0.02651  Biso   1.000  O
  O47      1.0000 0.50816  0.99577  0.47349  Biso   1.000  O
  O48      1.0000 0.99184  0.00423  0.47349  Biso   1.000  O
  O49      1.0000 0.00816  0.50423  0.97349  Biso   1.000  O
  O50      1.0000 0.50816  0.00423  0.97349  Biso   1.000  O
  O51      1.0000 0.49184  0.49577  0.97349  Biso   1.000  O
  O52      1.0000 0.99184  0.50423  0.52651  Biso   1.000  O
  O53      1.0000 0.50816  0.49577  0.52651  Biso   1.000  O
  O54      1.0000 0.99184  0.99577  0.97349  Biso   1.000  O
  O55      1.0000 0.49184  0.00423  0.52651  Biso   1.000  O
  O56      1.0000 0.00816  0.99577  0.52651  Biso   1.000  O
  O57      1.0000 0.05580  0.53253  0.01409  Biso   1.000  O
  O58      1.0000 0.55580  0.03253  0.01409  Biso   1.000  O
  O59      1.0000 0.44420  0.46747  0.01409  Biso   1.000  O
  O60      1.0000 0.94420  0.53253  0.48591  Biso   1.000  O
  O61      1.0000 0.55580  0.46747  0.48591  Biso   1.000  O
  O62      1.0000 0.94420  0.96747  0.01409  Biso   1.000  O
  O63      1.0000 0.44420  0.03253  0.48591  Biso   1.000  O
  O64      1.0000 0.05580  0.96747  0.48591  Biso   1.000  O
  O65      1.0000 0.94420  0.46747  0.98591  Biso   1.000  O
  O66      1.0000 0.44420  0.96747  0.98591  Biso   1.000  O
  O67      1.0000 0.55580  0.53253  0.98591  Biso   1.000  O
  O68      1.0000 0.05580  0.46747  0.51409  Biso   1.000  O
  O69      1.0000 0.44420  0.53253  0.51409  Biso   1.000  O
  O70      1.0000 0.05580  0.03253  0.98591  Biso   1.000  O
  O71      1.0000 0.55580  0.96747  0.51409  Biso   1.000  O
  O72      1.0000 0.94420  0.03253  0.51409  Biso   1.000  O
  S1       1.0000 0.00359  0.37469  0.14707  Biso   1.000  S
  S2       1.0000 0.50359  0.87469  0.14707  Biso   1.000  S
  S3       1.0000 0.49641  0.62531  0.14707  Biso   1.000  S
  S4       1.0000 0.99641  0.37469  0.35293  Biso   1.000  S
  S5       1.0000 0.50359  0.62531  0.35293  Biso   1.000  S
  S6       1.0000 0.99641  0.12531  0.14707  Biso   1.000  S
  S7       1.0000 0.49641  0.87469  0.35293  Biso   1.000  S
  S8       1.0000 0.00359  0.12531  0.35293  Biso   1.000  S
  S9       1.0000 0.99641  0.62531  0.85293  Biso   1.000  S
  S10      1.0000 0.49641  0.12531  0.85293  Biso   1.000  S
  S11      1.0000 0.50359  0.37469  0.85293  Biso   1.000  S
  S12      1.0000 0.00359  0.62531  0.64707  Biso   1.000  S
  S13      1.0000 0.49641  0.37469  0.64707  Biso   1.000  S
  S14      1.0000 0.00359  0.87469  0.85293  Biso   1.000  S
  S15      1.0000 0.50359  0.12531  0.64707  Biso   1.000  S
  S16      1.0000 0.99641  0.87469  0.64707  Biso   1.000  S
  O73      1.0000 0.00216  0.40140  0.11836  Biso   1.000  O
  O74      1.0000 0.50216  0.90140  0.11836  Biso   1.000  O
  O75      1.0000 0.49784  0.59860  0.11836  Biso   1.000  O
  O76      1.0000 0.99784  0.40140  0.38164  Biso   1.000  O
  O77      1.0000 0.50216  0.59860  0.38164  Biso   1.000  O
  O78      1.0000 0.99784  0.09860  0.11836  Biso   1.000  O
  O79      1.0000 0.49784  0.90140  0.38164  Biso   1.000  O
  O80      1.0000 0.00216  0.09860  0.38164  Biso   1.000  O
  O81      1.0000 0.99784  0.59860  0.88164  Biso   1.000  O
  O82      1.0000 0.49784  0.09860  0.88164  Biso   1.000  O
  O83      1.0000 0.50216  0.40140  0.88164  Biso   1.000  O
  O84      1.0000 0.00216  0.59860  0.61836  Biso   1.000  O
  O85      1.0000 0.49784  0.40140  0.61836  Biso   1.000  O
  O86      1.0000 0.00216  0.90140  0.88164  Biso   1.000  O
  O87      1.0000 0.50216  0.09860  0.61836  Biso   1.000  O
  O88      1.0000 0.99784  0.90140  0.61836  Biso   1.000  O
  C1       1.0000 0.00890  0.32820  0.12760  Biso   1.000  C
  C2       1.0000 0.50890  0.82820  0.12760  Biso   1.000  C
  C3       1.0000 0.49110  0.67180  0.12760  Biso   1.000  C
  C4       1.0000 0.99110  0.32820  0.37240  Biso   1.000  C
  C5       1.0000 0.50890  0.67180  0.37240  Biso   1.000  C
  C6       1.0000 0.99110  0.17180  0.12760  Biso   1.000  C
  C7       1.0000 0.49110  0.82820  0.37240  Biso   1.000  C
  C8       1.0000 0.00890  0.17180  0.37240  Biso   1.000  C
  C9       1.0000 0.99110  0.67180  0.87240  Biso   1.000  C
  C10      1.0000 0.49110  0.17180  0.87240  Biso   1.000  C
  C11      1.0000 0.50890  0.32820  0.87240  Biso   1.000  C
  C12      1.0000 0.00890  0.67180  0.62760  Biso   1.000  C
  C13      1.0000 0.49110  0.32820  0.62760  Biso   1.000  C
  C14      1.0000 0.00890  0.82820  0.87240  Biso   1.000  C
  C15      1.0000 0.50890  0.17180  0.62760  Biso   1.000  C
  C16      1.0000 0.99110  0.82820  0.62760  Biso   1.000  C
  H1       1.0000 0.97930  0.32350  0.11290  Biso   1.000  H
  H2       1.0000 0.47930  0.82350  0.11290  Biso   1.000  H
  H3       1.0000 0.52070  0.67650  0.11290  Biso   1.000  H
  H4       1.0000 0.02070  0.32350  0.38710  Biso   1.000  H
  H5       1.0000 0.47930  0.67650  0.38710  Biso   1.000  H
  H6       1.0000 0.02070  0.17650  0.11290  Biso   1.000  H
  H7       1.0000 0.52070  0.82350  0.38710  Biso   1.000  H
  H8       1.0000 0.97930  0.17650  0.38710  Biso   1.000  H
  H9       1.0000 0.02070  0.67650  0.88710  Biso   1.000  H
  H10      1.0000 0.52070  0.17650  0.88710  Biso   1.000  H
  H11      1.0000 0.47930  0.32350  0.88710  Biso   1.000  H
  H12      1.0000 0.97930  0.67650  0.61290  Biso   1.000  H
  H13      1.0000 0.52070  0.32350  0.61290  Biso   1.000  H
  H14      1.0000 0.97930  0.82350  0.88710  Biso   1.000  H
  H15      1.0000 0.47930  0.17650  0.61290  Biso   1.000  H
  H16      1.0000 0.02070  0.82350  0.61290  Biso   1.000  H
  H17      1.0000 0.01050  0.30880  0.14580  Biso   1.000  H
  H18      1.0000 0.51050  0.80880  0.14580  Biso   1.000  H
  H19      1.0000 0.48950  0.69120  0.14580  Biso   1.000  H
  H20      1.0000 0.98950  0.30880  0.35420  Biso   1.000  H
  H21      1.0000 0.51050  0.69120  0.35420  Biso   1.000  H
  H22      1.0000 0.98950  0.19120  0.14580  Biso   1.000  H
  H23      1.0000 0.48950  0.80880  0.35420  Biso   1.000  H
  H24      1.0000 0.01050  0.19120  0.35420  Biso   1.000  H
  H25      1.0000 0.98950  0.69120  0.85420  Biso   1.000  H
  H26      1.0000 0.48950  0.19120  0.85420  Biso   1.000  H
  H27      1.0000 0.51050  0.30880  0.85420  Biso   1.000  H
  H28      1.0000 0.01050  0.69120  0.64580  Biso   1.000  H
  H29      1.0000 0.48950  0.30880  0.64580  Biso   1.000  H
  H30      1.0000 0.01050  0.80880  0.85420  Biso   1.000  H
  H31      1.0000 0.51050  0.19120  0.64580  Biso   1.000  H
  H32      1.0000 0.98950  0.80880  0.64580  Biso   1.000  H
  H33      1.0000 0.03980  0.32710  0.11360  Biso   1.000  H
  H34      1.0000 0.53980  0.82710  0.11360  Biso   1.000  H
  H35      1.0000 0.46020  0.67290  0.11360  Biso   1.000  H
  H36      1.0000 0.96020  0.32710  0.38640  Biso   1.000  H
  H37      1.0000 0.53980  0.67290  0.38640  Biso   1.000  H
  H38      1.0000 0.96020  0.17290  0.11360  Biso   1.000  H
  H39      1.0000 0.46020  0.82710  0.38640  Biso   1.000  H
  H40      1.0000 0.03980  0.17290  0.38640  Biso   1.000  H
  H41      1.0000 0.96020  0.67290  0.88640  Biso   1.000  H
  H42      1.0000 0.46020  0.17290  0.88640  Biso   1.000  H
  H43      1.0000 0.53980  0.32710  0.88640  Biso   1.000  H
  H44      1.0000 0.03980  0.67290  0.61360  Biso   1.000  H
  H45      1.0000 0.46020  0.32710  0.61360  Biso   1.000  H
  H46      1.0000 0.03980  0.82710  0.88640  Biso   1.000  H
  H47      1.0000 0.53980  0.17290  0.61360  Biso   1.000  H
  H48      1.0000 0.96020  0.82710  0.61360  Biso   1.000  H
  C17      1.0000 0.93960  0.36880  0.16040  Biso   1.000  C
  C18      1.0000 0.43960  0.86880  0.16040  Biso   1.000  C
  C19      1.0000 0.56040  0.63120  0.16040  Biso   1.000  C
  C20      1.0000 0.06040  0.36880  0.33960  Biso   1.000  C
  C21      1.0000 0.43960  0.63120  0.33960  Biso   1.000  C
  C22      1.0000 0.06040  0.13120  0.16040  Biso   1.000  C
  C23      1.0000 0.56040  0.86880  0.33960  Biso   1.000  C
  C24      1.0000 0.93960  0.13120  0.33960  Biso   1.000  C
  C25      1.0000 0.06040  0.63120  0.83960  Biso   1.000  C
  C26      1.0000 0.56040  0.13120  0.83960  Biso   1.000  C
  C27      1.0000 0.43960  0.36880  0.83960  Biso   1.000  C
  C28      1.0000 0.93960  0.63120  0.66040  Biso   1.000  C
  C29      1.0000 0.56040  0.36880  0.66040  Biso   1.000  C
  C30      1.0000 0.93960  0.86880  0.83960  Biso   1.000  C
  C31      1.0000 0.43960  0.13120  0.66040  Biso   1.000  C
  C32      1.0000 0.06040  0.86880  0.66040  Biso   1.000  C
  H49      1.0000 0.93140  0.38780  0.17810  Biso   1.000  H
  H50      1.0000 0.43140  0.88780  0.17810  Biso   1.000  H
  H51      1.0000 0.56860  0.61220  0.17810  Biso   1.000  H
  H52      1.0000 0.06860  0.38780  0.32190  Biso   1.000  H
  H53      1.0000 0.43140  0.61220  0.32190  Biso   1.000  H
  H54      1.0000 0.06860  0.11220  0.17810  Biso   1.000  H
  H55      1.0000 0.56860  0.88780  0.32190  Biso   1.000  H
  H56      1.0000 0.93140  0.11220  0.32190  Biso   1.000  H
  H57      1.0000 0.06860  0.61220  0.82190  Biso   1.000  H
  H58      1.0000 0.56860  0.11220  0.82190  Biso   1.000  H
  H59      1.0000 0.43140  0.38780  0.82190  Biso   1.000  H
  H60      1.0000 0.93140  0.61220  0.67810  Biso   1.000  H
  H61      1.0000 0.56860  0.38780  0.67810  Biso   1.000  H
  H62      1.0000 0.93140  0.88780  0.82190  Biso   1.000  H
  H63      1.0000 0.43140  0.11220  0.67810  Biso   1.000  H
  H64      1.0000 0.06860  0.88780  0.67810  Biso   1.000  H
  H65      1.0000 0.93510  0.34310  0.16990  Biso   1.000  H
  H66      1.0000 0.43510  0.84310  0.16990  Biso   1.000  H
  H67      1.0000 0.56490  0.65690  0.16990  Biso   1.000  H
  H68      1.0000 0.06490  0.34310  0.33010  Biso   1.000  H
  H69      1.0000 0.43510  0.65690  0.33010  Biso   1.000  H
  H70      1.0000 0.06490  0.15690  0.16990  Biso   1.000  H
  H71      1.0000 0.56490  0.84310  0.33010  Biso   1.000  H
  H72      1.0000 0.93510  0.15690  0.33010  Biso   1.000  H
  H73      1.0000 0.06490  0.65690  0.83010  Biso   1.000  H
  H74      1.0000 0.56490  0.15690  0.83010  Biso   1.000  H
  H75      1.0000 0.43510  0.34310  0.83010  Biso   1.000  H
  H76      1.0000 0.93510  0.65690  0.66990  Biso   1.000  H
  H77      1.0000 0.56490  0.34310  0.66990  Biso   1.000  H
  H78      1.0000 0.93510  0.84310  0.83010  Biso   1.000  H
  H79      1.0000 0.43510  0.15690  0.66990  Biso   1.000  H
  H80      1.0000 0.06490  0.84310  0.66990  Biso   1.000  H
  H81      1.0000 0.91710  0.37220  0.14050  Biso   1.000  H
  H82      1.0000 0.41710  0.87220  0.14050  Biso   1.000  H
  H83      1.0000 0.58290  0.62780  0.14050  Biso   1.000  H
  H84      1.0000 0.08290  0.37220  0.35950  Biso   1.000  H
  H85      1.0000 0.41710  0.62780  0.35950  Biso   1.000  H
  H86      1.0000 0.08290  0.12780  0.14050  Biso   1.000  H
  H87      1.0000 0.58290  0.87220  0.35950  Biso   1.000  H
  H88      1.0000 0.91710  0.12780  0.35950  Biso   1.000  H
  H89      1.0000 0.08290  0.62780  0.85950  Biso   1.000  H
  H90      1.0000 0.58290  0.12780  0.85950  Biso   1.000  H
  H91      1.0000 0.41710  0.37220  0.85950  Biso   1.000  H
  H92      1.0000 0.91710  0.62780  0.64050  Biso   1.000  H
  H93      1.0000 0.58290  0.37220  0.64050  Biso   1.000  H
  H94      1.0000 0.91710  0.87220  0.85950  Biso   1.000  H
  H95      1.0000 0.41710  0.12780  0.64050  Biso   1.000  H
  H96      1.0000 0.08290  0.87220  0.64050  Biso   1.000  H
  O89      1.0000 0.29615  0.43231  0.18717  Biso   1.000  O
  O90      1.0000 0.79615  0.93231  0.18717  Biso   1.000  O
  O91      1.0000 0.20385  0.56769  0.18717  Biso   1.000  O
  O92      1.0000 0.70385  0.43231  0.31283  Biso   1.000  O
  O93      1.0000 0.79615  0.56769  0.31283  Biso   1.000  O
  O94      1.0000 0.70385  0.06769  0.18717  Biso   1.000  O
  O95      1.0000 0.20385  0.93231  0.31283  Biso   1.000  O
  O96      1.0000 0.29615  0.06769  0.31283  Biso   1.000  O
  O97      1.0000 0.70385  0.56769  0.81283  Biso   1.000  O
  O98      1.0000 0.20385  0.06769  0.81283  Biso   1.000  O
  O99      1.0000 0.79615  0.43231  0.81283  Biso   1.000  O
  O100     1.0000 0.29615  0.56769  0.68717  Biso   1.000  O
  O101     1.0000 0.20385  0.43231  0.68717  Biso   1.000  O
  O102     1.0000 0.29615  0.93231  0.81283  Biso   1.000  O
  O103     1.0000 0.79615  0.06769  0.68717  Biso   1.000  O
  O104     1.0000 0.70385  0.93231  0.68717  Biso   1.000  O
  O105     1.0000 0.10577  0.53335  0.22029  Biso   1.000  O
  O106     1.0000 0.60577  0.03335  0.22029  Biso   1.000  O
  O107     1.0000 0.39423  0.46665  0.22029  Biso   1.000  O
  O108     1.0000 0.89423  0.53335  0.27971  Biso   1.000  O
  O109     1.0000 0.60577  0.46665  0.27971  Biso   1.000  O
  O110     1.0000 0.89423  0.96665  0.22029  Biso   1.000  O
  O111     1.0000 0.39423  0.03335  0.27971  Biso   1.000  O
  O112     1.0000 0.10577  0.96665  0.27971  Biso   1.000  O
  O113     1.0000 0.89423  0.46665  0.77971  Biso   1.000  O
  O114     1.0000 0.39423  0.96665  0.77971  Biso   1.000  O
  O115     1.0000 0.60577  0.53335  0.77971  Biso   1.000  O
  O116     1.0000 0.10577  0.46665  0.72029  Biso   1.000  O
  O117     1.0000 0.39423  0.53335  0.72029  Biso   1.000  O
  O118     1.0000 0.10577  0.03335  0.77971  Biso   1.000  O
  O119     1.0000 0.60577  0.96665  0.72029  Biso   1.000  O
  O120     1.0000 0.89423  0.03335  0.72029  Biso   1.000  O
  O121     1.0000 0.23242  0.45662  0.34069  Biso   1.000  O
  O122     1.0000 0.73242  0.95662  0.34069  Biso   1.000  O
  O123     1.0000 0.26758  0.54338  0.34069  Biso   1.000  O
  O124     1.0000 0.76758  0.45662  0.15931  Biso   1.000  O
  O125     1.0000 0.73242  0.54338  0.15931  Biso   1.000  O
  O126     1.0000 0.76758  0.04338  0.34069  Biso   1.000  O
  O127     1.0000 0.26758  0.95662  0.15931  Biso   1.000  O
  O128     1.0000 0.23242  0.04338  0.15931  Biso   1.000  O
  O129     1.0000 0.76758  0.54338  0.65931  Biso   1.000  O
  O130     1.0000 0.26758  0.04338  0.65931  Biso   1.000  O
  O131     1.0000 0.73242  0.45662  0.65931  Biso   1.000  O
  O132     1.0000 0.23242  0.54338  0.84069  Biso   1.000  O
  O133     1.0000 0.26758  0.45662  0.84069  Biso   1.000  O
  O134     1.0000 0.23242  0.95662  0.65931  Biso   1.000  O
  O135     1.0000 0.73242  0.04338  0.84069  Biso   1.000  O
  O136     1.0000 0.76758  0.95662  0.84069  Biso   1.000  O
  N29      1.0000 0.36993  0.30131  0.22581  Biso   1.000  N
  N30      1.0000 0.86993  0.80131  0.22581  Biso   1.000  N
  N31      1.0000 0.13007  0.69869  0.22581  Biso   1.000  N
  N32      1.0000 0.63007  0.30131  0.27419  Biso   1.000  N
  N33      1.0000 0.86993  0.69869  0.27419  Biso   1.000  N
  N34      1.0000 0.63007  0.19869  0.22581  Biso   1.000  N
  N35      1.0000 0.13007  0.80131  0.27419  Biso   1.000  N
  N36      1.0000 0.36993  0.19869  0.27419  Biso   1.000  N
  N37      1.0000 0.63007  0.69869  0.77419  Biso   1.000  N
  N38      1.0000 0.13007  0.19869  0.77419  Biso   1.000  N
  N39      1.0000 0.86993  0.30131  0.77419  Biso   1.000  N
  N40      1.0000 0.36993  0.69869  0.72581  Biso   1.000  N
  N41      1.0000 0.13007  0.30131  0.72581  Biso   1.000  N
  N42      1.0000 0.36993  0.80131  0.77419  Biso   1.000  N
  N43      1.0000 0.86993  0.19869  0.72581  Biso   1.000  N
  N44      1.0000 0.63007  0.80131  0.72581  Biso   1.000  N
  N45      1.0000 0.29639  0.38938  0.23159  Biso   1.000  N
  N46      1.0000 0.79639  0.88938  0.23159  Biso   1.000  N
  N47      1.0000 0.20361  0.61062  0.23159  Biso   1.000  N
  N48      1.0000 0.70361  0.38938  0.26841  Biso   1.000  N
  N49      1.0000 0.79639  0.61062  0.26841  Biso   1.000  N
  N50      1.0000 0.70361  0.11062  0.23159  Biso   1.000  N
  N51      1.0000 0.20361  0.88938  0.26841  Biso   1.000  N
  N52      1.0000 0.29639  0.11062  0.26841  Biso   1.000  N
  N53      1.0000 0.70361  0.61062  0.76841  Biso   1.000  N
  N54      1.0000 0.20361  0.11062  0.76841  Biso   1.000  N
  N55      1.0000 0.79639  0.38938  0.76841  Biso   1.000  N
  N56      1.0000 0.29639  0.61062  0.73159  Biso   1.000  N
  N57      1.0000 0.20361  0.38938  0.73159  Biso   1.000  N
  N58      1.0000 0.29639  0.88938  0.76841  Biso   1.000  N
  N59      1.0000 0.79639  0.11062  0.73159  Biso   1.000  N
  N60      1.0000 0.70361  0.88938  0.73159  Biso   1.000  N
  H97      1.0000 0.28210  0.38410  0.25160  Biso   1.000  H
  H98      1.0000 0.78210  0.88410  0.25160  Biso   1.000  H
  H99      1.0000 0.21790  0.61590  0.25160  Biso   1.000  H
  H100     1.0000 0.71790  0.38410  0.24840  Biso   1.000  H
  H101     1.0000 0.78210  0.61590  0.24840  Biso   1.000  H
  H102     1.0000 0.71790  0.11590  0.25160  Biso   1.000  H
  H103     1.0000 0.21790  0.88410  0.24840  Biso   1.000  H
  H104     1.0000 0.28210  0.11590  0.24840  Biso   1.000  H
  H105     1.0000 0.71790  0.61590  0.74840  Biso   1.000  H
  H106     1.0000 0.21790  0.11590  0.74840  Biso   1.000  H
  H107     1.0000 0.78210  0.38410  0.74840  Biso   1.000  H
  H108     1.0000 0.28210  0.61590  0.75160  Biso   1.000  H
  H109     1.0000 0.21790  0.38410  0.75160  Biso   1.000  H
  H110     1.0000 0.28210  0.88410  0.74840  Biso   1.000  H
  H111     1.0000 0.78210  0.11590  0.75160  Biso   1.000  H
  H112     1.0000 0.71790  0.88410  0.75160  Biso   1.000  H
  N61      1.0000 0.02554  0.48846  0.10589  Biso   1.000  N
  N62      1.0000 0.52554  0.98846  0.10589  Biso   1.000  N
  N63      1.0000 0.47446  0.51154  0.10589  Biso   1.000  N
  N64      1.0000 0.97446  0.48846  0.39411  Biso   1.000  N
  N65      1.0000 0.52554  0.51154  0.39411  Biso   1.000  N
  N66      1.0000 0.97446  0.01154  0.10589  Biso   1.000  N
  N67      1.0000 0.47446  0.98846  0.39411  Biso   1.000  N
  N68      1.0000 0.02554  0.01154  0.39411  Biso   1.000  N
  N69      1.0000 0.97446  0.51154  0.89411  Biso   1.000  N
  N70      1.0000 0.47446  0.01154  0.89411  Biso   1.000  N
  N71      1.0000 0.52554  0.48846  0.89411  Biso   1.000  N
  N72      1.0000 0.02554  0.51154  0.60589  Biso   1.000  N
  N73      1.0000 0.47446  0.48846  0.60589  Biso   1.000  N
  N74      1.0000 0.02554  0.98846  0.89411  Biso   1.000  N
  N75      1.0000 0.52554  0.01154  0.60589  Biso   1.000  N
  N76      1.0000 0.97446  0.98846  0.60589  Biso   1.000  N
  N77      1.0000 0.11542  0.48924  0.17725  Biso   1.000  N
  N78      1.0000 0.61542  0.98924  0.17725  Biso   1.000  N
  N79      1.0000 0.38458  0.51076  0.17725  Biso   1.000  N
  N80      1.0000 0.88458  0.48924  0.32275  Biso   1.000  N
  N81      1.0000 0.61542  0.51076  0.32275  Biso   1.000  N
  N82      1.0000 0.88458  0.01076  0.17725  Biso   1.000  N
  N83      1.0000 0.38458  0.98924  0.32275  Biso   1.000  N
  N84      1.0000 0.11542  0.01076  0.32275  Biso   1.000  N
  N85      1.0000 0.88458  0.51076  0.82275  Biso   1.000  N
  N86      1.0000 0.38458  0.01076  0.82275  Biso   1.000  N
  N87      1.0000 0.61542  0.48924  0.82275  Biso   1.000  N
  N88      1.0000 0.11542  0.51076  0.67725  Biso   1.000  N
  N89      1.0000 0.38458  0.48924  0.67725  Biso   1.000  N
  N90      1.0000 0.11542  0.98924  0.82275  Biso   1.000  N
  N91      1.0000 0.61542  0.01076  0.67725  Biso   1.000  N
  N92      1.0000 0.88458  0.98924  0.67725  Biso   1.000  N
  H113     1.0000 0.13190  0.46850  0.17120  Biso   1.000  H
  H114     1.0000 0.63190  0.96850  0.17120  Biso   1.000  H
  H115     1.0000 0.36810  0.53150  0.17120  Biso   1.000  H
  H116     1.0000 0.86810  0.46850  0.32880  Biso   1.000  H
  H117     1.0000 0.63190  0.53150  0.32880  Biso   1.000  H
  H118     1.0000 0.86810  0.03150  0.17120  Biso   1.000  H
  H119     1.0000 0.36810  0.96850  0.32880  Biso   1.000  H
  H120     1.0000 0.13190  0.03150  0.32880  Biso   1.000  H
  H121     1.0000 0.86810  0.53150  0.82880  Biso   1.000  H
  H122     1.0000 0.36810  0.03150  0.82880  Biso   1.000  H
  H123     1.0000 0.63190  0.46850  0.82880  Biso   1.000  H
  H124     1.0000 0.13190  0.53150  0.67120  Biso   1.000  H
  H125     1.0000 0.36810  0.46850  0.67120  Biso   1.000  H
  H126     1.0000 0.13190  0.96850  0.82880  Biso   1.000  H
  H127     1.0000 0.63190  0.03150  0.67120  Biso   1.000  H
  H128     1.0000 0.86810  0.96850  0.67120  Biso   1.000  H
  N93      1.0000 0.07216  0.46001  0.41570  Biso   1.000  N
  N94      1.0000 0.57216  0.96001  0.41570  Biso   1.000  N
  N95      1.0000 0.42784  0.53999  0.41570  Biso   1.000  N
  N96      1.0000 0.92784  0.46001  0.08430  Biso   1.000  N
  N97      1.0000 0.57216  0.53999  0.08430  Biso   1.000  N
  N98      1.0000 0.92784  0.03999  0.41570  Biso   1.000  N
  N99      1.0000 0.42784  0.96001  0.08430  Biso   1.000  N
  N100     1.0000 0.07216  0.03999  0.08430  Biso   1.000  N
  N101     1.0000 0.92784  0.53999  0.58430  Biso   1.000  N
  N102     1.0000 0.42784  0.03999  0.58430  Biso   1.000  N
  N103     1.0000 0.57216  0.46001  0.58430  Biso   1.000  N
  N104     1.0000 0.07216  0.53999  0.91570  Biso   1.000  N
  N105     1.0000 0.42784  0.46001  0.91570  Biso   1.000  N
  N106     1.0000 0.07216  0.96001  0.58430  Biso   1.000  N
  N107     1.0000 0.57216  0.03999  0.91570  Biso   1.000  N
  N108     1.0000 0.92784  0.96001  0.91570  Biso   1.000  N
  N109     1.0000 0.14900  0.47126  0.33806  Biso   1.000  N
  N110     1.0000 0.64900  0.97126  0.33806  Biso   1.000  N
  N111     1.0000 0.35100  0.52874  0.33806  Biso   1.000  N
  N112     1.0000 0.85100  0.47126  0.16194  Biso   1.000  N
  N113     1.0000 0.64900  0.52874  0.16194  Biso   1.000  N
  N114     1.0000 0.85100  0.02874  0.33806  Biso   1.000  N
  N115     1.0000 0.35100  0.97126  0.16194  Biso   1.000  N
  N116     1.0000 0.14900  0.02874  0.16194  Biso   1.000  N
  N117     1.0000 0.85100  0.52874  0.66194  Biso   1.000  N
  N118     1.0000 0.35100  0.02874  0.66194  Biso   1.000  N
  N119     1.0000 0.64900  0.47126  0.66194  Biso   1.000  N
  N120     1.0000 0.14900  0.52874  0.83806  Biso   1.000  N
  N121     1.0000 0.35100  0.47126  0.83806  Biso   1.000  N
  N122     1.0000 0.14900  0.97126  0.66194  Biso   1.000  N
  N123     1.0000 0.64900  0.02874  0.83806  Biso   1.000  N
  N124     1.0000 0.85100  0.97126  0.83806  Biso   1.000  N
  H129     1.0000 0.12410  0.47730  0.32390  Biso   1.000  H
  H130     1.0000 0.62410  0.97730  0.32390  Biso   1.000  H
  H131     1.0000 0.37590  0.52270  0.32390  Biso   1.000  H
  H132     1.0000 0.87590  0.47730  0.17610  Biso   1.000  H
  H133     1.0000 0.62410  0.52270  0.17610  Biso   1.000  H
  H134     1.0000 0.87590  0.02270  0.32390  Biso   1.000  H
  H135     1.0000 0.37590  0.97730  0.17610  Biso   1.000  H
  H136     1.0000 0.12410  0.02270  0.17610  Biso   1.000  H
  H137     1.0000 0.87590  0.52270  0.67610  Biso   1.000  H
  H138     1.0000 0.37590  0.02270  0.67610  Biso   1.000  H
  H139     1.0000 0.62410  0.47730  0.67610  Biso   1.000  H
  H140     1.0000 0.12410  0.52270  0.82390  Biso   1.000  H
  H141     1.0000 0.37590  0.47730  0.82390  Biso   1.000  H
  H142     1.0000 0.12410  0.97730  0.67610  Biso   1.000  H
  H143     1.0000 0.62410  0.02270  0.82390  Biso   1.000  H
  H144     1.0000 0.87590  0.97730  0.82390  Biso   1.000  H
  C33      1.0000 0.40202  0.30966  0.20058  Biso   1.000  C
  C34      1.0000 0.90202  0.80966  0.20058  Biso   1.000  C
  C35      1.0000 0.09798  0.69034  0.20058  Biso   1.000  C
  C36      1.0000 0.59798  0.30966  0.29942  Biso   1.000  C
  C37      1.0000 0.90202  0.69034  0.29942  Biso   1.000  C
  C38      1.0000 0.59798  0.19034  0.20058  Biso   1.000  C
  C39      1.0000 0.09798  0.80966  0.29942  Biso   1.000  C
  C40      1.0000 0.40202  0.19034  0.29942  Biso   1.000  C
  C41      1.0000 0.59798  0.69034  0.79942  Biso   1.000  C
  C42      1.0000 0.09798  0.19034  0.79942  Biso   1.000  C
  C43      1.0000 0.90202  0.30966  0.79942  Biso   1.000  C
  C44      1.0000 0.40202  0.69034  0.70058  Biso   1.000  C
  C45      1.0000 0.09798  0.30966  0.70058  Biso   1.000  C
  C46      1.0000 0.40202  0.80966  0.79942  Biso   1.000  C
  C47      1.0000 0.90202  0.19034  0.70058  Biso   1.000  C
  C48      1.0000 0.59798  0.80966  0.70058  Biso   1.000  C
  H145     1.0000 0.42590  0.29090  0.19370  Biso   1.000  H
  H146     1.0000 0.92590  0.79090  0.19370  Biso   1.000  H
  H147     1.0000 0.07410  0.70910  0.19370  Biso   1.000  H
  H148     1.0000 0.57410  0.29090  0.30630  Biso   1.000  H
  H149     1.0000 0.92590  0.70910  0.30630  Biso   1.000  H
  H150     1.0000 0.57410  0.20910  0.19370  Biso   1.000  H
  H151     1.0000 0.07410  0.79090  0.30630  Biso   1.000  H
  H152     1.0000 0.42590  0.20910  0.30630  Biso   1.000  H
  H153     1.0000 0.57410  0.70910  0.80630  Biso   1.000  H
  H154     1.0000 0.07410  0.20910  0.80630  Biso   1.000  H
  H155     1.0000 0.92590  0.29090  0.80630  Biso   1.000  H
  H156     1.0000 0.42590  0.70910  0.69370  Biso   1.000  H
  H157     1.0000 0.07410  0.29090  0.69370  Biso   1.000  H
  H158     1.0000 0.42590  0.79090  0.80630  Biso   1.000  H
  H159     1.0000 0.92590  0.20910  0.69370  Biso   1.000  H
  H160     1.0000 0.57410  0.79090  0.69370  Biso   1.000  H
  C49      1.0000 0.40230  0.34413  0.18400  Biso   1.000  C
  C50      1.0000 0.90230  0.84413  0.18400  Biso   1.000  C
  C51      1.0000 0.09770  0.65587  0.18400  Biso   1.000  C
  C52      1.0000 0.59770  0.34413  0.31600  Biso   1.000  C
  C53      1.0000 0.90230  0.65587  0.31600  Biso   1.000  C
  C54      1.0000 0.59770  0.15587  0.18400  Biso   1.000  C
  C55      1.0000 0.09770  0.84413  0.31600  Biso   1.000  C
  C56      1.0000 0.40230  0.15587  0.31600  Biso   1.000  C
  C57      1.0000 0.59770  0.65587  0.81600  Biso   1.000  C
  C58      1.0000 0.09770  0.15587  0.81600  Biso   1.000  C
  C59      1.0000 0.90230  0.34413  0.81600  Biso   1.000  C
  C60      1.0000 0.40230  0.65587  0.68400  Biso   1.000  C
  C61      1.0000 0.09770  0.34413  0.68400  Biso   1.000  C
  C62      1.0000 0.40230  0.84413  0.81600  Biso   1.000  C
  C63      1.0000 0.90230  0.15587  0.68400  Biso   1.000  C
  C64      1.0000 0.59770  0.84413  0.68400  Biso   1.000  C
  H161     1.0000 0.42610  0.34910  0.16610  Biso   1.000  H
  H162     1.0000 0.92610  0.84910  0.16610  Biso   1.000  H
  H163     1.0000 0.07390  0.65090  0.16610  Biso   1.000  H
  H164     1.0000 0.57390  0.34910  0.33390  Biso   1.000  H
  H165     1.0000 0.92610  0.65090  0.33390  Biso   1.000  H
  H166     1.0000 0.57390  0.15090  0.16610  Biso   1.000  H
  H167     1.0000 0.07390  0.84910  0.33390  Biso   1.000  H
  H168     1.0000 0.42610  0.15090  0.33390  Biso   1.000  H
  H169     1.0000 0.57390  0.65090  0.83390  Biso   1.000  H
  H170     1.0000 0.07390  0.15090  0.83390  Biso   1.000  H
  H171     1.0000 0.92610  0.34910  0.83390  Biso   1.000  H
  H172     1.0000 0.42610  0.65090  0.66610  Biso   1.000  H
  H173     1.0000 0.07390  0.34910  0.66610  Biso   1.000  H
  H174     1.0000 0.42610  0.84910  0.83390  Biso   1.000  H
  H175     1.0000 0.92610  0.15090  0.66610  Biso   1.000  H
  H176     1.0000 0.57390  0.84910  0.66610  Biso   1.000  H
  C65      1.0000 0.36750  0.37171  0.19370  Biso   1.000  C
  C66      1.0000 0.86750  0.87171  0.19370  Biso   1.000  C
  C67      1.0000 0.13250  0.62829  0.19370  Biso   1.000  C
  C68      1.0000 0.63250  0.37171  0.30630  Biso   1.000  C
  C69      1.0000 0.86750  0.62829  0.30630  Biso   1.000  C
  C70      1.0000 0.63250  0.12829  0.19370  Biso   1.000  C
  C71      1.0000 0.13250  0.87171  0.30630  Biso   1.000  C
  C72      1.0000 0.36750  0.12829  0.30630  Biso   1.000  C
  C73      1.0000 0.63250  0.62829  0.80630  Biso   1.000  C
  C74      1.0000 0.13250  0.12829  0.80630  Biso   1.000  C
  C75      1.0000 0.86750  0.37171  0.80630  Biso   1.000  C
  C76      1.0000 0.36750  0.62829  0.69370  Biso   1.000  C
  C77      1.0000 0.13250  0.37171  0.69370  Biso   1.000  C
  C78      1.0000 0.36750  0.87171  0.80630  Biso   1.000  C
  C79      1.0000 0.86750  0.12829  0.69370  Biso   1.000  C
  C80      1.0000 0.63250  0.87171  0.69370  Biso   1.000  C
  H177     1.0000 0.36730  0.39580  0.18250  Biso   1.000  H
  H178     1.0000 0.86730  0.89580  0.18250  Biso   1.000  H
  H179     1.0000 0.13270  0.60420  0.18250  Biso   1.000  H
  H180     1.0000 0.63270  0.39580  0.31750  Biso   1.000  H
  H181     1.0000 0.86730  0.60420  0.31750  Biso   1.000  H
  H182     1.0000 0.63270  0.10420  0.18250  Biso   1.000  H
  H183     1.0000 0.13270  0.89580  0.31750  Biso   1.000  H
  H184     1.0000 0.36730  0.10420  0.31750  Biso   1.000  H
  H185     1.0000 0.63270  0.60420  0.81750  Biso   1.000  H
  H186     1.0000 0.13270  0.10420  0.81750  Biso   1.000  H
  H187     1.0000 0.86730  0.39580  0.81750  Biso   1.000  H
  H188     1.0000 0.36730  0.60420  0.68250  Biso   1.000  H
  H189     1.0000 0.13270  0.39580  0.68250  Biso   1.000  H
  H190     1.0000 0.36730  0.89580  0.81750  Biso   1.000  H
  H191     1.0000 0.86730  0.10420  0.68250  Biso   1.000  H
  H192     1.0000 0.63270  0.89580  0.68250  Biso   1.000  H
  C81      1.0000 0.33344  0.36409  0.21932  Biso   1.000  C
  C82      1.0000 0.83344  0.86409  0.21932  Biso   1.000  C
  C83      1.0000 0.16656  0.63591  0.21932  Biso   1.000  C
  C84      1.0000 0.66656  0.36409  0.28068  Biso   1.000  C
  C85      1.0000 0.83344  0.63591  0.28068  Biso   1.000  C
  C86      1.0000 0.66656  0.13591  0.21932  Biso   1.000  C
  C87      1.0000 0.16656  0.86409  0.28068  Biso   1.000  C
  C88      1.0000 0.33344  0.13591  0.28068  Biso   1.000  C
  C89      1.0000 0.66656  0.63591  0.78068  Biso   1.000  C
  C90      1.0000 0.16656  0.13591  0.78068  Biso   1.000  C
  C91      1.0000 0.83344  0.36409  0.78068  Biso   1.000  C
  C92      1.0000 0.33344  0.63591  0.71932  Biso   1.000  C
  C93      1.0000 0.16656  0.36409  0.71932  Biso   1.000  C
  C94      1.0000 0.33344  0.86409  0.78068  Biso   1.000  C
  C95      1.0000 0.83344  0.13591  0.71932  Biso   1.000  C
  C96      1.0000 0.66656  0.86409  0.71932  Biso   1.000  C
  C97      1.0000 0.33588  0.32817  0.23526  Biso   1.000  C
  C98      1.0000 0.83588  0.82817  0.23526  Biso   1.000  C
  C99      1.0000 0.16412  0.67183  0.23526  Biso   1.000  C
  C100     1.0000 0.66412  0.32817  0.26474  Biso   1.000  C
  C101     1.0000 0.83588  0.67183  0.26474  Biso   1.000  C
  C102     1.0000 0.66412  0.17183  0.23526  Biso   1.000  C
  C103     1.0000 0.16412  0.82817  0.26474  Biso   1.000  C
  C104     1.0000 0.33588  0.17183  0.26474  Biso   1.000  C
  C105     1.0000 0.66412  0.67183  0.76474  Biso   1.000  C
  C106     1.0000 0.16412  0.17183  0.76474  Biso   1.000  C
  C107     1.0000 0.83588  0.32817  0.76474  Biso   1.000  C
  C108     1.0000 0.33588  0.67183  0.73526  Biso   1.000  C
  C109     1.0000 0.16412  0.32817  0.73526  Biso   1.000  C
  C110     1.0000 0.33588  0.82817  0.76474  Biso   1.000  C
  C111     1.0000 0.83588  0.17183  0.73526  Biso   1.000  C
  C112     1.0000 0.66412  0.82817  0.73526  Biso   1.000  C
  H193     1.0000 0.31270  0.32250  0.25340  Biso   1.000  H
  H194     1.0000 0.81270  0.82250  0.25340  Biso   1.000  H
  H195     1.0000 0.18730  0.67750  0.25340  Biso   1.000  H
  H196     1.0000 0.68730  0.32250  0.24660  Biso   1.000  H
  H197     1.0000 0.81270  0.67750  0.24660  Biso   1.000  H
  H198     1.0000 0.68730  0.17750  0.25340  Biso   1.000  H
  H199     1.0000 0.18730  0.82250  0.24660  Biso   1.000  H
  H200     1.0000 0.31270  0.17750  0.24660  Biso   1.000  H
  H201     1.0000 0.68730  0.67750  0.74660  Biso   1.000  H
  H202     1.0000 0.18730  0.17750  0.74660  Biso   1.000  H
  H203     1.0000 0.81270  0.32250  0.74660  Biso   1.000  H
  H204     1.0000 0.31270  0.67750  0.75340  Biso   1.000  H
  H205     1.0000 0.18730  0.32250  0.75340  Biso   1.000  H
  H206     1.0000 0.31270  0.82250  0.74660  Biso   1.000  H
  H207     1.0000 0.81270  0.17750  0.75340  Biso   1.000  H
  H208     1.0000 0.68730  0.82250  0.75340  Biso   1.000  H
  C113     1.0000 0.28090  0.42150  0.21497  Biso   1.000  C
  C114     1.0000 0.78090  0.92150  0.21497  Biso   1.000  C
  C115     1.0000 0.21910  0.57850  0.21497  Biso   1.000  C
  C116     1.0000 0.71910  0.42150  0.28503  Biso   1.000  C
  C117     1.0000 0.78090  0.57850  0.28503  Biso   1.000  C
  C118     1.0000 0.71910  0.07850  0.21497  Biso   1.000  C
  C119     1.0000 0.21910  0.92150  0.28503  Biso   1.000  C
  C120     1.0000 0.28090  0.07850  0.28503  Biso   1.000  C
  C121     1.0000 0.71910  0.57850  0.78503  Biso   1.000  C
  C122     1.0000 0.21910  0.07850  0.78503  Biso   1.000  C
  C123     1.0000 0.78090  0.42150  0.78503  Biso   1.000  C
  C124     1.0000 0.28090  0.57850  0.71497  Biso   1.000  C
  C125     1.0000 0.21910  0.42150  0.71497  Biso   1.000  C
  C126     1.0000 0.28090  0.92150  0.78503  Biso   1.000  C
  C127     1.0000 0.78090  0.07850  0.71497  Biso   1.000  C
  C128     1.0000 0.71910  0.92150  0.71497  Biso   1.000  C
  C129     1.0000 0.01201  0.52525  0.10399  Biso   1.000  C
  C130     1.0000 0.51201  0.02525  0.10399  Biso   1.000  C
  C131     1.0000 0.48799  0.47475  0.10399  Biso   1.000  C
  C132     1.0000 0.98799  0.52525  0.39601  Biso   1.000  C
  C133     1.0000 0.51201  0.47475  0.39601  Biso   1.000  C
  C134     1.0000 0.98799  0.97475  0.10399  Biso   1.000  C
  C135     1.0000 0.48799  0.02525  0.39601  Biso   1.000  C
  C136     1.0000 0.01201  0.97475  0.39601  Biso   1.000  C
  C137     1.0000 0.98799  0.47475  0.89601  Biso   1.000  C
  C138     1.0000 0.48799  0.97475  0.89601  Biso   1.000  C
  C139     1.0000 0.51201  0.52525  0.89601  Biso   1.000  C
  C140     1.0000 0.01201  0.47475  0.60399  Biso   1.000  C
  C141     1.0000 0.48799  0.52525  0.60399  Biso   1.000  C
  C142     1.0000 0.01201  0.02525  0.89601  Biso   1.000  C
  C143     1.0000 0.51201  0.97475  0.60399  Biso   1.000  C
  C144     1.0000 0.98799  0.02525  0.60399  Biso   1.000  C
  H209     1.0000 0.98880  0.53270  0.08650  Biso   1.000  H
  H210     1.0000 0.48880  0.03270  0.08650  Biso   1.000  H
  H211     1.0000 0.51120  0.46730  0.08650  Biso   1.000  H
  H212     1.0000 0.01120  0.53270  0.41350  Biso   1.000  H
  H213     1.0000 0.48880  0.46730  0.41350  Biso   1.000  H
  H214     1.0000 0.01120  0.96730  0.08650  Biso   1.000  H
  H215     1.0000 0.51120  0.03270  0.41350  Biso   1.000  H
  H216     1.0000 0.98880  0.96730  0.41350  Biso   1.000  H
  H217     1.0000 0.01120  0.46730  0.91350  Biso   1.000  H
  H218     1.0000 0.51120  0.96730  0.91350  Biso   1.000  H
  H219     1.0000 0.48880  0.53270  0.91350  Biso   1.000  H
  H220     1.0000 0.98880  0.46730  0.58650  Biso   1.000  H
  H221     1.0000 0.51120  0.53270  0.58650  Biso   1.000  H
  H222     1.0000 0.98880  0.03270  0.91350  Biso   1.000  H
  H223     1.0000 0.48880  0.96730  0.58650  Biso   1.000  H
  H224     1.0000 0.01120  0.03270  0.58650  Biso   1.000  H
  C145     1.0000 0.02960  0.55215  0.12570  Biso   1.000  C
  C146     1.0000 0.52960  0.05215  0.12570  Biso   1.000  C
  C147     1.0000 0.47040  0.44785  0.12570  Biso   1.000  C
  C148     1.0000 0.97040  0.55215  0.37430  Biso   1.000  C
  C149     1.0000 0.52960  0.44785  0.37430  Biso   1.000  C
  C150     1.0000 0.97040  0.94785  0.12570  Biso   1.000  C
  C151     1.0000 0.47040  0.05215  0.37430  Biso   1.000  C
  C152     1.0000 0.02960  0.94785  0.37430  Biso   1.000  C
  C153     1.0000 0.97040  0.44785  0.87430  Biso   1.000  C
  C154     1.0000 0.47040  0.94785  0.87430  Biso   1.000  C
  C155     1.0000 0.52960  0.55215  0.87430  Biso   1.000  C
  C156     1.0000 0.02960  0.44785  0.62570  Biso   1.000  C
  C157     1.0000 0.47040  0.55215  0.62570  Biso   1.000  C
  C158     1.0000 0.02960  0.05215  0.87430  Biso   1.000  C
  C159     1.0000 0.52960  0.94785  0.62570  Biso   1.000  C
  C160     1.0000 0.97040  0.05215  0.62570  Biso   1.000  C
  H225     1.0000 0.01840  0.57780  0.12370  Biso   1.000  H
  H226     1.0000 0.51840  0.07780  0.12370  Biso   1.000  H
  H227     1.0000 0.48160  0.42220  0.12370  Biso   1.000  H
  H228     1.0000 0.98160  0.57780  0.37630  Biso   1.000  H
  H229     1.0000 0.51840  0.42220  0.37630  Biso   1.000  H
  H230     1.0000 0.98160  0.92220  0.12370  Biso   1.000  H
  H231     1.0000 0.48160  0.07780  0.37630  Biso   1.000  H
  H232     1.0000 0.01840  0.92220  0.37630  Biso   1.000  H
  H233     1.0000 0.98160  0.42220  0.87630  Biso   1.000  H
  H234     1.0000 0.48160  0.92220  0.87630  Biso   1.000  H
  H235     1.0000 0.51840  0.57780  0.87630  Biso   1.000  H
  H236     1.0000 0.01840  0.42220  0.62370  Biso   1.000  H
  H237     1.0000 0.48160  0.57780  0.62370  Biso   1.000  H
  H238     1.0000 0.01840  0.07780  0.87630  Biso   1.000  H
  H239     1.0000 0.51840  0.92220  0.62370  Biso   1.000  H
  H240     1.0000 0.98160  0.07780  0.62370  Biso   1.000  H
  C161     1.0000 0.06488  0.54184  0.15138  Biso   1.000  C
  C162     1.0000 0.56488  0.04184  0.15138  Biso   1.000  C
  C163     1.0000 0.43512  0.45816  0.15138  Biso   1.000  C
  C164     1.0000 0.93512  0.54184  0.34862  Biso   1.000  C
  C165     1.0000 0.56488  0.45816  0.34862  Biso   1.000  C
  C166     1.0000 0.93512  0.95816  0.15138  Biso   1.000  C
  C167     1.0000 0.43512  0.04184  0.34862  Biso   1.000  C
  C168     1.0000 0.06488  0.95816  0.34862  Biso   1.000  C
  C169     1.0000 0.93512  0.45816  0.84862  Biso   1.000  C
  C170     1.0000 0.43512  0.95816  0.84862  Biso   1.000  C
  C171     1.0000 0.56488  0.54184  0.84862  Biso   1.000  C
  C172     1.0000 0.06488  0.45816  0.65138  Biso   1.000  C
  C173     1.0000 0.43512  0.54184  0.65138  Biso   1.000  C
  C174     1.0000 0.06488  0.04184  0.84862  Biso   1.000  C
  C175     1.0000 0.56488  0.95816  0.65138  Biso   1.000  C
  C176     1.0000 0.93512  0.04184  0.65138  Biso   1.000  C
  H241     1.0000 0.07840  0.56030  0.16680  Biso   1.000  H
  H242     1.0000 0.57840  0.06030  0.16680  Biso   1.000  H
  H243     1.0000 0.42160  0.43970  0.16680  Biso   1.000  H
  H244     1.0000 0.92160  0.56030  0.33320  Biso   1.000  H
  H245     1.0000 0.57840  0.43970  0.33320  Biso   1.000  H
  H246     1.0000 0.92160  0.93970  0.16680  Biso   1.000  H
  H247     1.0000 0.42160  0.06030  0.33320  Biso   1.000  H
  H248     1.0000 0.07840  0.93970  0.33320  Biso   1.000  H
  H249     1.0000 0.92160  0.43970  0.83320  Biso   1.000  H
  H250     1.0000 0.42160  0.93970  0.83320  Biso   1.000  H
  H251     1.0000 0.57840  0.56030  0.83320  Biso   1.000  H
  H252     1.0000 0.07840  0.43970  0.66680  Biso   1.000  H
  H253     1.0000 0.42160  0.56030  0.66680  Biso   1.000  H
  H254     1.0000 0.07840  0.06030  0.83320  Biso   1.000  H
  H255     1.0000 0.57840  0.93970  0.66680  Biso   1.000  H
  H256     1.0000 0.92160  0.06030  0.66680  Biso   1.000  H
  C177     1.0000 0.07928  0.50402  0.15347  Biso   1.000  C
  C178     1.0000 0.57928  0.00402  0.15347  Biso   1.000  C
  C179     1.0000 0.42072  0.49598  0.15347  Biso   1.000  C
  C180     1.0000 0.92072  0.50402  0.34653  Biso   1.000  C
  C181     1.0000 0.57928  0.49598  0.34653  Biso   1.000  C
  C182     1.0000 0.92072  0.99598  0.15347  Biso   1.000  C
  C183     1.0000 0.42072  0.00402  0.34653  Biso   1.000  C
  C184     1.0000 0.07928  0.99598  0.34653  Biso   1.000  C
  C185     1.0000 0.92072  0.49598  0.84653  Biso   1.000  C
  C186     1.0000 0.42072  0.99598  0.84653  Biso   1.000  C
  C187     1.0000 0.57928  0.50402  0.84653  Biso   1.000  C
  C188     1.0000 0.07928  0.49598  0.65347  Biso   1.000  C
  C189     1.0000 0.42072  0.50402  0.65347  Biso   1.000  C
  C190     1.0000 0.07928  0.00402  0.84653  Biso   1.000  C
  C191     1.0000 0.57928  0.99598  0.65347  Biso   1.000  C
  C192     1.0000 0.92072  0.00402  0.65347  Biso   1.000  C
  C193     1.0000 0.05892  0.47848  0.13062  Biso   1.000  C
  C194     1.0000 0.55892  0.97848  0.13062  Biso   1.000  C
  C195     1.0000 0.44108  0.52152  0.13062  Biso   1.000  C
  C196     1.0000 0.94108  0.47848  0.36938  Biso   1.000  C
  C197     1.0000 0.55892  0.52152  0.36938  Biso   1.000  C
  C198     1.0000 0.94108  0.02152  0.13062  Biso   1.000  C
  C199     1.0000 0.44108  0.97848  0.36938  Biso   1.000  C
  C200     1.0000 0.05892  0.02152  0.36938  Biso   1.000  C
  C201     1.0000 0.94108  0.52152  0.86938  Biso   1.000  C
  C202     1.0000 0.44108  0.02152  0.86938  Biso   1.000  C
  C203     1.0000 0.55892  0.47848  0.86938  Biso   1.000  C
  C204     1.0000 0.05892  0.52152  0.63062  Biso   1.000  C
  C205     1.0000 0.44108  0.47848  0.63062  Biso   1.000  C
  C206     1.0000 0.05892  0.97848  0.86938  Biso   1.000  C
  C207     1.0000 0.55892  0.02152  0.63062  Biso   1.000  C
  C208     1.0000 0.94108  0.97848  0.63062  Biso   1.000  C
  H257     1.0000 0.06880  0.45250  0.13230  Biso   1.000  H
  H258     1.0000 0.56880  0.95250  0.13230  Biso   1.000  H
  H259     1.0000 0.43120  0.54750  0.13230  Biso   1.000  H
  H260     1.0000 0.93120  0.45250  0.36770  Biso   1.000  H
  H261     1.0000 0.56880  0.54750  0.36770  Biso   1.000  H
  H262     1.0000 0.93120  0.04750  0.13230  Biso   1.000  H
  H263     1.0000 0.43120  0.95250  0.36770  Biso   1.000  H
  H264     1.0000 0.06880  0.04750  0.36770  Biso   1.000  H
  H265     1.0000 0.93120  0.54750  0.86770  Biso   1.000  H
  H266     1.0000 0.43120  0.04750  0.86770  Biso   1.000  H
  H267     1.0000 0.56880  0.45250  0.86770  Biso   1.000  H
  H268     1.0000 0.06880  0.54750  0.63230  Biso   1.000  H
  H269     1.0000 0.43120  0.45250  0.63230  Biso   1.000  H
  H270     1.0000 0.06880  0.95250  0.86770  Biso   1.000  H
  H271     1.0000 0.56880  0.04750  0.63230  Biso   1.000  H
  H272     1.0000 0.93120  0.95250  0.63230  Biso   1.000  H
  C209     1.0000 0.12650  0.50492  0.20886  Biso   1.000  C
  C210     1.0000 0.62650  0.00492  0.20886  Biso   1.000  C
  C211     1.0000 0.37350  0.49508  0.20886  Biso   1.000  C
  C212     1.0000 0.87350  0.50492  0.29114  Biso   1.000  C
  C213     1.0000 0.62650  0.49508  0.29114  Biso   1.000  C
  C214     1.0000 0.87350  0.99508  0.20886  Biso   1.000  C
  C215     1.0000 0.37350  0.00492  0.29114  Biso   1.000  C
  C216     1.0000 0.12650  0.99508  0.29114  Biso   1.000  C
  C217     1.0000 0.87350  0.49508  0.79114  Biso   1.000  C
  C218     1.0000 0.37350  0.99508  0.79114  Biso   1.000  C
  C219     1.0000 0.62650  0.50492  0.79114  Biso   1.000  C
  C220     1.0000 0.12650  0.49508  0.70886  Biso   1.000  C
  C221     1.0000 0.37350  0.50492  0.70886  Biso   1.000  C
  C222     1.0000 0.12650  0.00492  0.79114  Biso   1.000  C
  C223     1.0000 0.62650  0.99508  0.70886  Biso   1.000  C
  C224     1.0000 0.87350  0.00492  0.70886  Biso   1.000  C
  C225     1.0000 0.10699  0.46511  0.44064  Biso   1.000  C
  C226     1.0000 0.60699  0.96511  0.44064  Biso   1.000  C
  C227     1.0000 0.39301  0.53489  0.44064  Biso   1.000  C
  C228     1.0000 0.89301  0.46511  0.05936  Biso   1.000  C
  C229     1.0000 0.60699  0.53489  0.05936  Biso   1.000  C
  C230     1.0000 0.89301  0.03489  0.44064  Biso   1.000  C
  C231     1.0000 0.39301  0.96511  0.05936  Biso   1.000  C
  C232     1.0000 0.10699  0.03489  0.05936  Biso   1.000  C
  C233     1.0000 0.89301  0.53489  0.55936  Biso   1.000  C
  C234     1.0000 0.39301  0.03489  0.55936  Biso   1.000  C
  C235     1.0000 0.60699  0.46511  0.55936  Biso   1.000  C
  C236     1.0000 0.10699  0.53489  0.94064  Biso   1.000  C
  C237     1.0000 0.39301  0.46511  0.94064  Biso   1.000  C
  C238     1.0000 0.10699  0.96511  0.55936  Biso   1.000  C
  C239     1.0000 0.60699  0.03489  0.94064  Biso   1.000  C
  C240     1.0000 0.89301  0.96511  0.94064  Biso   1.000  C
  H273     1.0000 0.09670  0.46400  0.46410  Biso   1.000  H
  H274     1.0000 0.59670  0.96400  0.46410  Biso   1.000  H
  H275     1.0000 0.40330  0.53600  0.46410  Biso   1.000  H
  H276     1.0000 0.90330  0.46400  0.03590  Biso   1.000  H
  H277     1.0000 0.59670  0.53600  0.03590  Biso   1.000  H
  H278     1.0000 0.90330  0.03600  0.46410  Biso   1.000  H
  H279     1.0000 0.40330  0.96400  0.03590  Biso   1.000  H
  H280     1.0000 0.09670  0.03600  0.03590  Biso   1.000  H
  H281     1.0000 0.90330  0.53600  0.53590  Biso   1.000  H
  H282     1.0000 0.40330  0.03600  0.53590  Biso   1.000  H
  H283     1.0000 0.59670  0.46400  0.53590  Biso   1.000  H
  H284     1.0000 0.09670  0.53600  0.96410  Biso   1.000  H
  H285     1.0000 0.40330  0.46400  0.96410  Biso   1.000  H
  H286     1.0000 0.09670  0.96400  0.53590  Biso   1.000  H
  H287     1.0000 0.59670  0.03600  0.96410  Biso   1.000  H
  H288     1.0000 0.90330  0.96400  0.96410  Biso   1.000  H
  C241     1.0000 0.15649  0.47183  0.43320  Biso   1.000  C
  C242     1.0000 0.65649  0.97183  0.43320  Biso   1.000  C
  C243     1.0000 0.34351  0.52817  0.43320  Biso   1.000  C
  C244     1.0000 0.84351  0.47183  0.06680  Biso   1.000  C
  C245     1.0000 0.65649  0.52817  0.06680  Biso   1.000  C
  C246     1.0000 0.84351  0.02817  0.43320  Biso   1.000  C
  C247     1.0000 0.34351  0.97183  0.06680  Biso   1.000  C
  C248     1.0000 0.15649  0.02817  0.06680  Biso   1.000  C
  C249     1.0000 0.84351  0.52817  0.56680  Biso   1.000  C
  C250     1.0000 0.34351  0.02817  0.56680  Biso   1.000  C
  C251     1.0000 0.65649  0.47183  0.56680  Biso   1.000  C
  C252     1.0000 0.15649  0.52817  0.93320  Biso   1.000  C
  C253     1.0000 0.34351  0.47183  0.93320  Biso   1.000  C
  C254     1.0000 0.15649  0.97183  0.56680  Biso   1.000  C
  C255     1.0000 0.65649  0.02817  0.93320  Biso   1.000  C
  C256     1.0000 0.84351  0.97183  0.93320  Biso   1.000  C
  H289     1.0000 0.18030  0.47490  0.45140  Biso   1.000  H
  H290     1.0000 0.68030  0.97490  0.45140  Biso   1.000  H
  H291     1.0000 0.31970  0.52510  0.45140  Biso   1.000  H
  H292     1.0000 0.81970  0.47490  0.04860  Biso   1.000  H
  H293     1.0000 0.68030  0.52510  0.04860  Biso   1.000  H
  H294     1.0000 0.81970  0.02510  0.45140  Biso   1.000  H
  H295     1.0000 0.31970  0.97490  0.04860  Biso   1.000  H
  H296     1.0000 0.18030  0.02510  0.04860  Biso   1.000  H
  H297     1.0000 0.81970  0.52510  0.54860  Biso   1.000  H
  H298     1.0000 0.31970  0.02510  0.54860  Biso   1.000  H
  H299     1.0000 0.68030  0.47490  0.54860  Biso   1.000  H
  H300     1.0000 0.18030  0.52510  0.95140  Biso   1.000  H
  H301     1.0000 0.31970  0.47490  0.95140  Biso   1.000  H
  H302     1.0000 0.18030  0.97490  0.54860  Biso   1.000  H
  H303     1.0000 0.68030  0.02510  0.95140  Biso   1.000  H
  H304     1.0000 0.81970  0.97490  0.95140  Biso   1.000  H
  C257     1.0000 0.17206  0.47424  0.40020  Biso   1.000  C
  C258     1.0000 0.67206  0.97424  0.40020  Biso   1.000  C
  C259     1.0000 0.32794  0.52576  0.40020  Biso   1.000  C
  C260     1.0000 0.82794  0.47424  0.09980  Biso   1.000  C
  C261     1.0000 0.67206  0.52576  0.09980  Biso   1.000  C
  C262     1.0000 0.82794  0.02576  0.40020  Biso   1.000  C
  C263     1.0000 0.32794  0.97424  0.09980  Biso   1.000  C
  C264     1.0000 0.17206  0.02576  0.09980  Biso   1.000  C
  C265     1.0000 0.82794  0.52576  0.59980  Biso   1.000  C
  C266     1.0000 0.32794  0.02576  0.59980  Biso   1.000  C
  C267     1.0000 0.67206  0.47424  0.59980  Biso   1.000  C
  C268     1.0000 0.17206  0.52576  0.90020  Biso   1.000  C
  C269     1.0000 0.32794  0.47424  0.90020  Biso   1.000  C
  C270     1.0000 0.17206  0.97424  0.59980  Biso   1.000  C
  C271     1.0000 0.67206  0.02576  0.90020  Biso   1.000  C
  C272     1.0000 0.82794  0.97424  0.90020  Biso   1.000  C
  H305     1.0000 0.20680  0.47900  0.39520  Biso   1.000  H
  H306     1.0000 0.70680  0.97900  0.39520  Biso   1.000  H
  H307     1.0000 0.29320  0.52100  0.39520  Biso   1.000  H
  H308     1.0000 0.79320  0.47900  0.10480  Biso   1.000  H
  H309     1.0000 0.70680  0.52100  0.10480  Biso   1.000  H
  H310     1.0000 0.79320  0.02100  0.39520  Biso   1.000  H
  H311     1.0000 0.29320  0.97900  0.10480  Biso   1.000  H
  H312     1.0000 0.20680  0.02100  0.10480  Biso   1.000  H
  H313     1.0000 0.79320  0.52100  0.60480  Biso   1.000  H
  H314     1.0000 0.29320  0.02100  0.60480  Biso   1.000  H
  H315     1.0000 0.70680  0.47900  0.60480  Biso   1.000  H
  H316     1.0000 0.20680  0.52100  0.89520  Biso   1.000  H
  H317     1.0000 0.29320  0.47900  0.89520  Biso   1.000  H
  H318     1.0000 0.20680  0.97900  0.60480  Biso   1.000  H
  H319     1.0000 0.70680  0.02100  0.89520  Biso   1.000  H
  H320     1.0000 0.79320  0.97900  0.89520  Biso   1.000  H
  C273     1.0000 0.13743  0.46971  0.37352  Biso   1.000  C
  C274     1.0000 0.63743  0.96971  0.37352  Biso   1.000  C
  C275     1.0000 0.36257  0.53029  0.37352  Biso   1.000  C
  C276     1.0000 0.86257  0.46971  0.12648  Biso   1.000  C
  C277     1.0000 0.63743  0.53029  0.12648  Biso   1.000  C
  C278     1.0000 0.86257  0.03029  0.37352  Biso   1.000  C
  C279     1.0000 0.36257  0.96971  0.12648  Biso   1.000  C
  C280     1.0000 0.13743  0.03029  0.12648  Biso   1.000  C
  C281     1.0000 0.86257  0.53029  0.62648  Biso   1.000  C
  C282     1.0000 0.36257  0.03029  0.62648  Biso   1.000  C
  C283     1.0000 0.63743  0.46971  0.62648  Biso   1.000  C
  C284     1.0000 0.13743  0.53029  0.87352  Biso   1.000  C
  C285     1.0000 0.36257  0.46971  0.87352  Biso   1.000  C
  C286     1.0000 0.13743  0.96971  0.62648  Biso   1.000  C
  C287     1.0000 0.63743  0.03029  0.87352  Biso   1.000  C
  C288     1.0000 0.86257  0.96971  0.87352  Biso   1.000  C
  C289     1.0000 0.08794  0.46220  0.38302  Biso   1.000  C
  C290     1.0000 0.58794  0.96220  0.38302  Biso   1.000  C
  C291     1.0000 0.41206  0.53780  0.38302  Biso   1.000  C
  C292     1.0000 0.91206  0.46220  0.11698  Biso   1.000  C
  C293     1.0000 0.58794  0.53780  0.11698  Biso   1.000  C
  C294     1.0000 0.91206  0.03780  0.38302  Biso   1.000  C
  C295     1.0000 0.41206  0.96220  0.11698  Biso   1.000  C
  C296     1.0000 0.08794  0.03780  0.11698  Biso   1.000  C
  C297     1.0000 0.91206  0.53780  0.61698  Biso   1.000  C
  C298     1.0000 0.41206  0.03780  0.61698  Biso   1.000  C
  C299     1.0000 0.58794  0.46220  0.61698  Biso   1.000  C
  C300     1.0000 0.08794  0.53780  0.88302  Biso   1.000  C
  C301     1.0000 0.41206  0.46220  0.88302  Biso   1.000  C
  C302     1.0000 0.08794  0.96220  0.61698  Biso   1.000  C
  C303     1.0000 0.58794  0.03780  0.88302  Biso   1.000  C
  C304     1.0000 0.91206  0.96220  0.88302  Biso   1.000  C
  H321     1.0000 0.06370  0.45840  0.36520  Biso   1.000  H
  H322     1.0000 0.56370  0.95840  0.36520  Biso   1.000  H
  H323     1.0000 0.43630  0.54160  0.36520  Biso   1.000  H
  H324     1.0000 0.93630  0.45840  0.13480  Biso   1.000  H
  H325     1.0000 0.56370  0.54160  0.13480  Biso   1.000  H
  H326     1.0000 0.93630  0.04160  0.36520  Biso   1.000  H
  H327     1.0000 0.43630  0.95840  0.13480  Biso   1.000  H
  H328     1.0000 0.06370  0.04160  0.13480  Biso   1.000  H
  H329     1.0000 0.93630  0.54160  0.63480  Biso   1.000  H
  H330     1.0000 0.43630  0.04160  0.63480  Biso   1.000  H
  H331     1.0000 0.56370  0.45840  0.63480  Biso   1.000  H
  H332     1.0000 0.06370  0.54160  0.86520  Biso   1.000  H
  H333     1.0000 0.43630  0.45840  0.86520  Biso   1.000  H
  H334     1.0000 0.06370  0.95840  0.63480  Biso   1.000  H
  H335     1.0000 0.56370  0.04160  0.86520  Biso   1.000  H
  H336     1.0000 0.93630  0.95840  0.86520  Biso   1.000  H
  C305     1.0000 0.19440  0.46441  0.32396  Biso   1.000  C
  C306     1.0000 0.69440  0.96441  0.32396  Biso   1.000  C
  C307     1.0000 0.30560  0.53559  0.32396  Biso   1.000  C
  C308     1.0000 0.80560  0.46441  0.17604  Biso   1.000  C
  C309     1.0000 0.69440  0.53559  0.17604  Biso   1.000  C
  C310     1.0000 0.80560  0.03559  0.32396  Biso   1.000  C
  C311     1.0000 0.30560  0.96441  0.17604  Biso   1.000  C
  C312     1.0000 0.19440  0.03559  0.17604  Biso   1.000  C
  C313     1.0000 0.80560  0.53559  0.67604  Biso   1.000  C
  C314     1.0000 0.30560  0.03559  0.67604  Biso   1.000  C
  C315     1.0000 0.69440  0.46441  0.67604  Biso   1.000  C
  C316     1.0000 0.19440  0.53559  0.82396  Biso   1.000  C
  C317     1.0000 0.30560  0.46441  0.82396  Biso   1.000  C
  C318     1.0000 0.19440  0.96441  0.67604  Biso   1.000  C
  C319     1.0000 0.69440  0.03559  0.82396  Biso   1.000  C
  C320     1.0000 0.80560  0.96441  0.82396  Biso   1.000  C
  C321     1.0000 0.23959  0.44324  0.23403  Biso   1.000  C
  C322     1.0000 0.73959  0.94324  0.23403  Biso   1.000  C
  C323     1.0000 0.26041  0.55676  0.23403  Biso   1.000  C
  C324     1.0000 0.76041  0.44324  0.26597  Biso   1.000  C
  C325     1.0000 0.73959  0.55676  0.26597  Biso   1.000  C
  C326     1.0000 0.76041  0.05676  0.23403  Biso   1.000  C
  C327     1.0000 0.26041  0.94324  0.26597  Biso   1.000  C
  C328     1.0000 0.23959  0.05676  0.26597  Biso   1.000  C
  C329     1.0000 0.76041  0.55676  0.76597  Biso   1.000  C
  C330     1.0000 0.26041  0.05676  0.76597  Biso   1.000  C
  C331     1.0000 0.73959  0.44324  0.76597  Biso   1.000  C
  C332     1.0000 0.23959  0.55676  0.73403  Biso   1.000  C
  C333     1.0000 0.26041  0.44324  0.73403  Biso   1.000  C
  C334     1.0000 0.23959  0.94324  0.76597  Biso   1.000  C
  C335     1.0000 0.73959  0.05676  0.73403  Biso   1.000  C
  C336     1.0000 0.76041  0.94324  0.73403  Biso   1.000  C
  C337     1.0000 0.20488  0.46338  0.21365  Biso   1.000  C
  C338     1.0000 0.70488  0.96338  0.21365  Biso   1.000  C
  C339     1.0000 0.29512  0.53662  0.21365  Biso   1.000  C
  C340     1.0000 0.79512  0.46338  0.28635  Biso   1.000  C
  C341     1.0000 0.70488  0.53662  0.28635  Biso   1.000  C
  C342     1.0000 0.79512  0.03662  0.21365  Biso   1.000  C
  C343     1.0000 0.29512  0.96338  0.28635  Biso   1.000  C
  C344     1.0000 0.20488  0.03662  0.28635  Biso   1.000  C
  C345     1.0000 0.79512  0.53662  0.78635  Biso   1.000  C
  C346     1.0000 0.29512  0.03662  0.78635  Biso   1.000  C
  C347     1.0000 0.70488  0.46338  0.78635  Biso   1.000  C
  C348     1.0000 0.20488  0.53662  0.71365  Biso   1.000  C
  C349     1.0000 0.29512  0.46338  0.71365  Biso   1.000  C
  C350     1.0000 0.20488  0.96338  0.78635  Biso   1.000  C
  C351     1.0000 0.70488  0.03662  0.71365  Biso   1.000  C
  C352     1.0000 0.79512  0.96338  0.71365  Biso   1.000  C
  H337     1.0000 0.20820  0.46330  0.18920  Biso   1.000  H
  H338     1.0000 0.70820  0.96330  0.18920  Biso   1.000  H
  H339     1.0000 0.29180  0.53670  0.18920  Biso   1.000  H
  H340     1.0000 0.79180  0.46330  0.31080  Biso   1.000  H
  H341     1.0000 0.70820  0.53670  0.31080  Biso   1.000  H
  H342     1.0000 0.79180  0.03670  0.18920  Biso   1.000  H
  H343     1.0000 0.29180  0.96330  0.31080  Biso   1.000  H
  H344     1.0000 0.20820  0.03670  0.31080  Biso   1.000  H
  H345     1.0000 0.79180  0.53670  0.81080  Biso   1.000  H
  H346     1.0000 0.29180  0.03670  0.81080  Biso   1.000  H
  H347     1.0000 0.70820  0.46330  0.81080  Biso   1.000  H
  H348     1.0000 0.20820  0.53670  0.68920  Biso   1.000  H
  H349     1.0000 0.29180  0.46330  0.68920  Biso   1.000  H
  H350     1.0000 0.20820  0.96330  0.81080  Biso   1.000  H
  H351     1.0000 0.70820  0.03670  0.68920  Biso   1.000  H
  H352     1.0000 0.79180  0.96330  0.68920  Biso   1.000  H
  C353     1.0000 0.16566  0.48344  0.22900  Biso   1.000  C
  C354     1.0000 0.66566  0.98344  0.22900  Biso   1.000  C
  C355     1.0000 0.33434  0.51656  0.22900  Biso   1.000  C
  C356     1.0000 0.83434  0.48344  0.27100  Biso   1.000  C
  C357     1.0000 0.66566  0.51656  0.27100  Biso   1.000  C
  C358     1.0000 0.83434  0.01656  0.22900  Biso   1.000  C
  C359     1.0000 0.33434  0.98344  0.27100  Biso   1.000  C
  C360     1.0000 0.16566  0.01656  0.27100  Biso   1.000  C
  C361     1.0000 0.83434  0.51656  0.77100  Biso   1.000  C
  C362     1.0000 0.33434  0.01656  0.77100  Biso   1.000  C
  C363     1.0000 0.66566  0.48344  0.77100  Biso   1.000  C
  C364     1.0000 0.16566  0.51656  0.72900  Biso   1.000  C
  C365     1.0000 0.33434  0.48344  0.72900  Biso   1.000  C
  C366     1.0000 0.16566  0.98344  0.77100  Biso   1.000  C
  C367     1.0000 0.66566  0.01656  0.72900  Biso   1.000  C
  C368     1.0000 0.83434  0.98344  0.72900  Biso   1.000  C
  C369     1.0000 0.16176  0.48482  0.26466  Biso   1.000  C
  C370     1.0000 0.66176  0.98482  0.26466  Biso   1.000  C
  C371     1.0000 0.33824  0.51518  0.26466  Biso   1.000  C
  C372     1.0000 0.83824  0.48482  0.23534  Biso   1.000  C
  C373     1.0000 0.66176  0.51518  0.23534  Biso   1.000  C
  C374     1.0000 0.83824  0.01518  0.26466  Biso   1.000  C
  C375     1.0000 0.33824  0.98482  0.23534  Biso   1.000  C
  C376     1.0000 0.16176  0.01518  0.23534  Biso   1.000  C
  C377     1.0000 0.83824  0.51518  0.73534  Biso   1.000  C
  C378     1.0000 0.33824  0.01518  0.73534  Biso   1.000  C
  C379     1.0000 0.66176  0.48482  0.73534  Biso   1.000  C
  C380     1.0000 0.16176  0.51518  0.76466  Biso   1.000  C
  C381     1.0000 0.33824  0.48482  0.76466  Biso   1.000  C
  C382     1.0000 0.16176  0.98482  0.73534  Biso   1.000  C
  C383     1.0000 0.66176  0.01518  0.76466  Biso   1.000  C
  C384     1.0000 0.83824  0.98482  0.76466  Biso   1.000  C
  H353     1.0000 0.13540  0.49920  0.27510  Biso   1.000  H
  H354     1.0000 0.63540  0.99920  0.27510  Biso   1.000  H
  H355     1.0000 0.36460  0.50080  0.27510  Biso   1.000  H
  H356     1.0000 0.86460  0.49920  0.22490  Biso   1.000  H
  H357     1.0000 0.63540  0.50080  0.22490  Biso   1.000  H
  H358     1.0000 0.86460  0.00080  0.27510  Biso   1.000  H
  H359     1.0000 0.36460  0.99920  0.22490  Biso   1.000  H
  H360     1.0000 0.13540  0.00080  0.22490  Biso   1.000  H
  H361     1.0000 0.86460  0.50080  0.72490  Biso   1.000  H
  H362     1.0000 0.36460  0.00080  0.72490  Biso   1.000  H
  H363     1.0000 0.63540  0.49920  0.72490  Biso   1.000  H
  H364     1.0000 0.13540  0.50080  0.77510  Biso   1.000  H
  H365     1.0000 0.36460  0.49920  0.77510  Biso   1.000  H
  H366     1.0000 0.13540  0.99920  0.72490  Biso   1.000  H
  H367     1.0000 0.63540  0.00080  0.77510  Biso   1.000  H
  H368     1.0000 0.86460  0.99920  0.77510  Biso   1.000  H
  C385     1.0000 0.19634  0.46525  0.28522  Biso   1.000  C
  C386     1.0000 0.69634  0.96525  0.28522  Biso   1.000  C
  C387     1.0000 0.30366  0.53475  0.28522  Biso   1.000  C
  C388     1.0000 0.80366  0.46525  0.21478  Biso   1.000  C
  C389     1.0000 0.69634  0.53475  0.21478  Biso   1.000  C
  C390     1.0000 0.80366  0.03475  0.28522  Biso   1.000  C
  C391     1.0000 0.30366  0.96525  0.21478  Biso   1.000  C
  C392     1.0000 0.19634  0.03475  0.21478  Biso   1.000  C
  C393     1.0000 0.80366  0.53475  0.71478  Biso   1.000  C
  C394     1.0000 0.30366  0.03475  0.71478  Biso   1.000  C
  C395     1.0000 0.69634  0.46525  0.71478  Biso   1.000  C
  C396     1.0000 0.19634  0.53475  0.78522  Biso   1.000  C
  C397     1.0000 0.30366  0.46525  0.78522  Biso   1.000  C
  C398     1.0000 0.19634  0.96525  0.71478  Biso   1.000  C
  C399     1.0000 0.69634  0.03475  0.78522  Biso   1.000  C
  C400     1.0000 0.80366  0.96525  0.78522  Biso   1.000  C
  C401     1.0000 0.23564  0.44447  0.26953  Biso   1.000  C
  C402     1.0000 0.73564  0.94447  0.26953  Biso   1.000  C
  C403     1.0000 0.26436  0.55553  0.26953  Biso   1.000  C
  C404     1.0000 0.76436  0.44447  0.23047  Biso   1.000  C
  C405     1.0000 0.73564  0.55553  0.23047  Biso   1.000  C
  C406     1.0000 0.76436  0.05553  0.26953  Biso   1.000  C
  C407     1.0000 0.26436  0.94447  0.23047  Biso   1.000  C
  C408     1.0000 0.23564  0.05553  0.23047  Biso   1.000  C
  C409     1.0000 0.76436  0.55553  0.73047  Biso   1.000  C
  C410     1.0000 0.26436  0.05553  0.73047  Biso   1.000  C
  C411     1.0000 0.73564  0.44447  0.73047  Biso   1.000  C
  C412     1.0000 0.23564  0.55553  0.76953  Biso   1.000  C
  C413     1.0000 0.26436  0.44447  0.76953  Biso   1.000  C
  C414     1.0000 0.23564  0.94447  0.73047  Biso   1.000  C
  C415     1.0000 0.73564  0.05553  0.76953  Biso   1.000  C
  C416     1.0000 0.76436  0.94447  0.76953  Biso   1.000  C
  H369     1.0000 0.25960  0.43120  0.28340  Biso   1.000  H
  H370     1.0000 0.75960  0.93120  0.28340  Biso   1.000  H
  H371     1.0000 0.24040  0.56880  0.28340  Biso   1.000  H
  H372     1.0000 0.74040  0.43120  0.21660  Biso   1.000  H
  H373     1.0000 0.75960  0.56880  0.21660  Biso   1.000  H
  H374     1.0000 0.74040  0.06880  0.28340  Biso   1.000  H
  H375     1.0000 0.24040  0.93120  0.21660  Biso   1.000  H
  H376     1.0000 0.25960  0.06880  0.21660  Biso   1.000  H
  H377     1.0000 0.74040  0.56880  0.71660  Biso   1.000  H
  H378     1.0000 0.24040  0.06880  0.71660  Biso   1.000  H
  H379     1.0000 0.75960  0.43120  0.71660  Biso   1.000  H
  H380     1.0000 0.25960  0.56880  0.78340  Biso   1.000  H
  H381     1.0000 0.24040  0.43120  0.78340  Biso   1.000  H
  H382     1.0000 0.25960  0.93120  0.71660  Biso   1.000  H
  H383     1.0000 0.75960  0.06880  0.78340  Biso   1.000  H
  H384     1.0000 0.74040  0.93120  0.78340  Biso   1.000  H
  O137     1.0000 0.27719  0.28081  0.14085  Biso   1.000  O
  O138     1.0000 0.77719  0.78081  0.14085  Biso   1.000  O
  O139     1.0000 0.22281  0.71919  0.14085  Biso   1.000  O
  O140     1.0000 0.72281  0.28081  0.35915  Biso   1.000  O
  O141     1.0000 0.77719  0.71919  0.35915  Biso   1.000  O
  O142     1.0000 0.72281  0.21919  0.14085  Biso   1.000  O
  O143     1.0000 0.22281  0.78081  0.35915  Biso   1.000  O
  O144     1.0000 0.27719  0.21919  0.35915  Biso   1.000  O
  O145     1.0000 0.72281  0.71919  0.85915  Biso   1.000  O
  O146     1.0000 0.22281  0.21919  0.85915  Biso   1.000  O
  O147     1.0000 0.77719  0.28081  0.85915  Biso   1.000  O
  O148     1.0000 0.27719  0.71919  0.64085  Biso   1.000  O
  O149     1.0000 0.22281  0.28081  0.64085  Biso   1.000  O
  O150     1.0000 0.27719  0.78081  0.85915  Biso   1.000  O
  O151     1.0000 0.77719  0.21919  0.64085  Biso   1.000  O
  O152     1.0000 0.72281  0.78081  0.64085  Biso   1.000  O
  O153     1.0000 0.08730  0.32373  0.05402  Biso   1.000  O
  O154     1.0000 0.58730  0.82373  0.05402  Biso   1.000  O
  O155     1.0000 0.41270  0.67627  0.05402  Biso   1.000  O
  O156     1.0000 0.91270  0.32373  0.44598  Biso   1.000  O
  O157     1.0000 0.58730  0.67627  0.44598  Biso   1.000  O
  O158     1.0000 0.91270  0.17627  0.05402  Biso   1.000  O
  O159     1.0000 0.41270  0.82373  0.44598  Biso   1.000  O
  O160     1.0000 0.08730  0.17627  0.44598  Biso   1.000  O
  O161     1.0000 0.91270  0.67627  0.94598  Biso   1.000  O
  O162     1.0000 0.41270  0.17627  0.94598  Biso   1.000  O
  O163     1.0000 0.58730  0.32373  0.94598  Biso   1.000  O
  O164     1.0000 0.08730  0.67627  0.55402  Biso   1.000  O
  O165     1.0000 0.41270  0.32373  0.55402  Biso   1.000  O
  O166     1.0000 0.08730  0.82373  0.94598  Biso   1.000  O
  O167     1.0000 0.58730  0.17627  0.55402  Biso   1.000  O
  O168     1.0000 0.91270  0.82373  0.55402  Biso   1.000  O
  O169     1.0000 0.13144  0.15482  0.08590  Biso   1.000  O
  O170     1.0000 0.63144  0.65482  0.08590  Biso   1.000  O
  O171     1.0000 0.36856  0.84518  0.08590  Biso   1.000  O
  O172     1.0000 0.86856  0.15482  0.41410  Biso   1.000  O
  O173     1.0000 0.63144  0.84518  0.41410  Biso   1.000  O
  O174     1.0000 0.86856  0.34518  0.08590  Biso   1.000  O
  O175     1.0000 0.36856  0.65482  0.41410  Biso   1.000  O
  O176     1.0000 0.13144  0.34518  0.41410  Biso   1.000  O
  O177     1.0000 0.86856  0.84518  0.91410  Biso   1.000  O
  O178     1.0000 0.36856  0.34518  0.91410  Biso   1.000  O
  O179     1.0000 0.63144  0.15482  0.91410  Biso   1.000  O
  O180     1.0000 0.13144  0.84518  0.58590  Biso   1.000  O
  O181     1.0000 0.36856  0.15482  0.58590  Biso   1.000  O
  O182     1.0000 0.13144  0.65482  0.91410  Biso   1.000  O
  O183     1.0000 0.63144  0.34518  0.58590  Biso   1.000  O
  O184     1.0000 0.86856  0.65482  0.58590  Biso   1.000  O
  N125     1.0000 0.37233  0.22340  0.20402  Biso   1.000  N
  N126     1.0000 0.87233  0.72340  0.20402  Biso   1.000  N
  N127     1.0000 0.12767  0.77660  0.20402  Biso   1.000  N
  N128     1.0000 0.62767  0.22340  0.29598  Biso   1.000  N
  N129     1.0000 0.87233  0.77660  0.29598  Biso   1.000  N
  N130     1.0000 0.62767  0.27660  0.20402  Biso   1.000  N
  N131     1.0000 0.12767  0.72340  0.29598  Biso   1.000  N
  N132     1.0000 0.37233  0.27660  0.29598  Biso   1.000  N
  N133     1.0000 0.62767  0.77660  0.79598  Biso   1.000  N
  N134     1.0000 0.12767  0.27660  0.79598  Biso   1.000  N
  N135     1.0000 0.87233  0.22340  0.79598  Biso   1.000  N
  N136     1.0000 0.37233  0.77660  0.70402  Biso   1.000  N
  N137     1.0000 0.12767  0.22340  0.70402  Biso   1.000  N
  N138     1.0000 0.37233  0.72340  0.79598  Biso   1.000  N
  N139     1.0000 0.87233  0.27660  0.70402  Biso   1.000  N
  N140     1.0000 0.62767  0.72340  0.70402  Biso   1.000  N
  N141     1.0000 0.29415  0.21930  0.12568  Biso   1.000  N
  N142     1.0000 0.79415  0.71930  0.12568  Biso   1.000  N
  N143     1.0000 0.20585  0.78070  0.12568  Biso   1.000  N
  N144     1.0000 0.70585  0.21930  0.37432  Biso   1.000  N
  N145     1.0000 0.79415  0.78070  0.37432  Biso   1.000  N
  N146     1.0000 0.70585  0.28070  0.12568  Biso   1.000  N
  N147     1.0000 0.20585  0.71930  0.37432  Biso   1.000  N
  N148     1.0000 0.29415  0.28070  0.37432  Biso   1.000  N
  N149     1.0000 0.70585  0.78070  0.87432  Biso   1.000  N
  N150     1.0000 0.20585  0.28070  0.87432  Biso   1.000  N
  N151     1.0000 0.79415  0.21930  0.87432  Biso   1.000  N
  N152     1.0000 0.29415  0.78070  0.62568  Biso   1.000  N
  N153     1.0000 0.20585  0.21930  0.62568  Biso   1.000  N
  N154     1.0000 0.29415  0.71930  0.87432  Biso   1.000  N
  N155     1.0000 0.79415  0.28070  0.62568  Biso   1.000  N
  N156     1.0000 0.70585  0.71930  0.62568  Biso   1.000  N
  H385     1.0000 0.28680  0.20110  0.11090  Biso   1.000  H
  H386     1.0000 0.78680  0.70110  0.11090  Biso   1.000  H
  H387     1.0000 0.21320  0.79890  0.11090  Biso   1.000  H
  H388     1.0000 0.71320  0.20110  0.38910  Biso   1.000  H
  H389     1.0000 0.78680  0.79890  0.38910  Biso   1.000  H
  H390     1.0000 0.71320  0.29890  0.11090  Biso   1.000  H
  H391     1.0000 0.21320  0.70110  0.38910  Biso   1.000  H
  H392     1.0000 0.28680  0.29890  0.38910  Biso   1.000  H
  H393     1.0000 0.71320  0.79890  0.88910  Biso   1.000  H
  H394     1.0000 0.21320  0.29890  0.88910  Biso   1.000  H
  H395     1.0000 0.78680  0.20110  0.88910  Biso   1.000  H
  H396     1.0000 0.28680  0.79890  0.61090  Biso   1.000  H
  H397     1.0000 0.21320  0.20110  0.61090  Biso   1.000  H
  H398     1.0000 0.28680  0.70110  0.88910  Biso   1.000  H
  H399     1.0000 0.78680  0.29890  0.61090  Biso   1.000  H
  H400     1.0000 0.71320  0.70110  0.61090  Biso   1.000  H
  N157     1.0000 0.07411  0.43757  0.06051  Biso   1.000  N
  N158     1.0000 0.57411  0.93757  0.06051  Biso   1.000  N
  N159     1.0000 0.42589  0.56243  0.06051  Biso   1.000  N
  N160     1.0000 0.92589  0.43757  0.43949  Biso   1.000  N
  N161     1.0000 0.57411  0.56243  0.43949  Biso   1.000  N
  N162     1.0000 0.92589  0.06243  0.06051  Biso   1.000  N
  N163     1.0000 0.42589  0.93757  0.43949  Biso   1.000  N
  N164     1.0000 0.07411  0.06243  0.43949  Biso   1.000  N
  N165     1.0000 0.92589  0.56243  0.93949  Biso   1.000  N
  N166     1.0000 0.42589  0.06243  0.93949  Biso   1.000  N
  N167     1.0000 0.57411  0.43757  0.93949  Biso   1.000  N
  N168     1.0000 0.07411  0.56243  0.56051  Biso   1.000  N
  N169     1.0000 0.42589  0.43757  0.56051  Biso   1.000  N
  N170     1.0000 0.07411  0.93757  0.93949  Biso   1.000  N
  N171     1.0000 0.57411  0.06243  0.56051  Biso   1.000  N
  N172     1.0000 0.92589  0.93757  0.56051  Biso   1.000  N
  N173     1.0000 0.16116  0.35568  0.06041  Biso   1.000  N
  N174     1.0000 0.66116  0.85568  0.06041  Biso   1.000  N
  N175     1.0000 0.33884  0.64432  0.06041  Biso   1.000  N
  N176     1.0000 0.83884  0.35568  0.43959  Biso   1.000  N
  N177     1.0000 0.66116  0.64432  0.43959  Biso   1.000  N
  N178     1.0000 0.83884  0.14432  0.06041  Biso   1.000  N
  N179     1.0000 0.33884  0.85568  0.43959  Biso   1.000  N
  N180     1.0000 0.16116  0.14432  0.43959  Biso   1.000  N
  N181     1.0000 0.83884  0.64432  0.93959  Biso   1.000  N
  N182     1.0000 0.33884  0.14432  0.93959  Biso   1.000  N
  N183     1.0000 0.66116  0.35568  0.93959  Biso   1.000  N
  N184     1.0000 0.16116  0.64432  0.56041  Biso   1.000  N
  N185     1.0000 0.33884  0.35568  0.56041  Biso   1.000  N
  N186     1.0000 0.16116  0.85568  0.93959  Biso   1.000  N
  N187     1.0000 0.66116  0.14432  0.56041  Biso   1.000  N
  N188     1.0000 0.83884  0.85568  0.56041  Biso   1.000  N
  H401     1.0000 0.19410  0.35320  0.06330  Biso   1.000  H
  H402     1.0000 0.69410  0.85320  0.06330  Biso   1.000  H
  H403     1.0000 0.30590  0.64680  0.06330  Biso   1.000  H
  H404     1.0000 0.80590  0.35320  0.43670  Biso   1.000  H
  H405     1.0000 0.69410  0.64680  0.43670  Biso   1.000  H
  H406     1.0000 0.80590  0.14680  0.06330  Biso   1.000  H
  H407     1.0000 0.30590  0.85320  0.43670  Biso   1.000  H
  H408     1.0000 0.19410  0.14680  0.43670  Biso   1.000  H
  H409     1.0000 0.80590  0.64680  0.93670  Biso   1.000  H
  H410     1.0000 0.30590  0.14680  0.93670  Biso   1.000  H
  H411     1.0000 0.69410  0.35320  0.93670  Biso   1.000  H
  H412     1.0000 0.19410  0.64680  0.56330  Biso   1.000  H
  H413     1.0000 0.30590  0.35320  0.56330  Biso   1.000  H
  H414     1.0000 0.19410  0.85320  0.93670  Biso   1.000  H
  H415     1.0000 0.69410  0.14680  0.56330  Biso   1.000  H
  H416     1.0000 0.80590  0.85320  0.56330  Biso   1.000  H
  N189     1.0000 0.02024  0.09300  0.03896  Biso   1.000  N
  N190     1.0000 0.52024  0.59300  0.03896  Biso   1.000  N
  N191     1.0000 0.47976  0.90700  0.03896  Biso   1.000  N
  N192     1.0000 0.97976  0.09300  0.46104  Biso   1.000  N
  N193     1.0000 0.52024  0.90700  0.46104  Biso   1.000  N
  N194     1.0000 0.97976  0.40700  0.03896  Biso   1.000  N
  N195     1.0000 0.47976  0.59300  0.46104  Biso   1.000  N
  N196     1.0000 0.02024  0.40700  0.46104  Biso   1.000  N
  N197     1.0000 0.97976  0.90700  0.96104  Biso   1.000  N
  N198     1.0000 0.47976  0.40700  0.96104  Biso   1.000  N
  N199     1.0000 0.52024  0.09300  0.96104  Biso   1.000  N
  N200     1.0000 0.02024  0.90700  0.53896  Biso   1.000  N
  N201     1.0000 0.47976  0.09300  0.53896  Biso   1.000  N
  N202     1.0000 0.02024  0.59300  0.96104  Biso   1.000  N
  N203     1.0000 0.52024  0.40700  0.53896  Biso   1.000  N
  N204     1.0000 0.97976  0.59300  0.53896  Biso   1.000  N
  N205     1.0000 0.09656  0.18038  0.03747  Biso   1.000  N
  N206     1.0000 0.59656  0.68038  0.03747  Biso   1.000  N
  N207     1.0000 0.40344  0.81962  0.03747  Biso   1.000  N
  N208     1.0000 0.90344  0.18038  0.46253  Biso   1.000  N
  N209     1.0000 0.59656  0.81962  0.46253  Biso   1.000  N
  N210     1.0000 0.90344  0.31962  0.03747  Biso   1.000  N
  N211     1.0000 0.40344  0.68038  0.46253  Biso   1.000  N
  N212     1.0000 0.09656  0.31962  0.46253  Biso   1.000  N
  N213     1.0000 0.90344  0.81962  0.96253  Biso   1.000  N
  N214     1.0000 0.40344  0.31962  0.96253  Biso   1.000  N
  N215     1.0000 0.59656  0.18038  0.96253  Biso   1.000  N
  N216     1.0000 0.09656  0.81962  0.53747  Biso   1.000  N
  N217     1.0000 0.40344  0.18038  0.53747  Biso   1.000  N
  N218     1.0000 0.09656  0.68038  0.96253  Biso   1.000  N
  N219     1.0000 0.59656  0.31962  0.53747  Biso   1.000  N
  N220     1.0000 0.90344  0.68038  0.53747  Biso   1.000  N
  H417     1.0000 0.09680  0.20060  0.02400  Biso   1.000  H
  H418     1.0000 0.59680  0.70060  0.02400  Biso   1.000  H
  H419     1.0000 0.40320  0.79940  0.02400  Biso   1.000  H
  H420     1.0000 0.90320  0.20060  0.47600  Biso   1.000  H
  H421     1.0000 0.59680  0.79940  0.47600  Biso   1.000  H
  H422     1.0000 0.90320  0.29940  0.02400  Biso   1.000  H
  H423     1.0000 0.40320  0.70060  0.47600  Biso   1.000  H
  H424     1.0000 0.09680  0.29940  0.47600  Biso   1.000  H
  H425     1.0000 0.90320  0.79940  0.97600  Biso   1.000  H
  H426     1.0000 0.40320  0.29940  0.97600  Biso   1.000  H
  H427     1.0000 0.59680  0.20060  0.97600  Biso   1.000  H
  H428     1.0000 0.09680  0.79940  0.52400  Biso   1.000  H
  H429     1.0000 0.40320  0.20060  0.52400  Biso   1.000  H
  H430     1.0000 0.09680  0.70060  0.97600  Biso   1.000  H
  H431     1.0000 0.59680  0.29940  0.52400  Biso   1.000  H
  H432     1.0000 0.90320  0.70060  0.52400  Biso   1.000  H
  C417     1.0000 0.40777  0.19713  0.19649  Biso   1.000  C
  C418     1.0000 0.90777  0.69713  0.19649  Biso   1.000  C
  C419     1.0000 0.09223  0.80287  0.19649  Biso   1.000  C
  C420     1.0000 0.59223  0.19713  0.30351  Biso   1.000  C
  C421     1.0000 0.90777  0.80287  0.30351  Biso   1.000  C
  C422     1.0000 0.59223  0.30287  0.19649  Biso   1.000  C
  C423     1.0000 0.09223  0.69713  0.30351  Biso   1.000  C
  C424     1.0000 0.40777  0.30287  0.30351  Biso   1.000  C
  C425     1.0000 0.59223  0.80287  0.80351  Biso   1.000  C
  C426     1.0000 0.09223  0.30287  0.80351  Biso   1.000  C
  C427     1.0000 0.90777  0.19713  0.80351  Biso   1.000  C
  C428     1.0000 0.40777  0.80287  0.69649  Biso   1.000  C
  C429     1.0000 0.09223  0.19713  0.69649  Biso   1.000  C
  C430     1.0000 0.40777  0.69713  0.80351  Biso   1.000  C
  C431     1.0000 0.90777  0.30287  0.69649  Biso   1.000  C
  C432     1.0000 0.59223  0.69713  0.69649  Biso   1.000  C
  H433     1.0000 0.43400  0.19200  0.21270  Biso   1.000  H
  H434     1.0000 0.93400  0.69200  0.21270  Biso   1.000  H
  H435     1.0000 0.06600  0.80800  0.21270  Biso   1.000  H
  H436     1.0000 0.56600  0.19200  0.28730  Biso   1.000  H
  H437     1.0000 0.93400  0.80800  0.28730  Biso   1.000  H
  H438     1.0000 0.56600  0.30800  0.21270  Biso   1.000  H
  H439     1.0000 0.06600  0.69200  0.28730  Biso   1.000  H
  H440     1.0000 0.43400  0.30800  0.28730  Biso   1.000  H
  H441     1.0000 0.56600  0.80800  0.78730  Biso   1.000  H
  H442     1.0000 0.06600  0.30800  0.78730  Biso   1.000  H
  H443     1.0000 0.93400  0.19200  0.78730  Biso   1.000  H
  H444     1.0000 0.43400  0.80800  0.71270  Biso   1.000  H
  H445     1.0000 0.06600  0.19200  0.71270  Biso   1.000  H
  H446     1.0000 0.43400  0.69200  0.78730  Biso   1.000  H
  H447     1.0000 0.93400  0.30800  0.71270  Biso   1.000  H
  H448     1.0000 0.56600  0.69200  0.71270  Biso   1.000  H
  C433     1.0000 0.40663  0.17740  0.16541  Biso   1.000  C
  C434     1.0000 0.90663  0.67740  0.16541  Biso   1.000  C
  C435     1.0000 0.09337  0.82260  0.16541  Biso   1.000  C
  C436     1.0000 0.59337  0.17740  0.33459  Biso   1.000  C
  C437     1.0000 0.90663  0.82260  0.33459  Biso   1.000  C
  C438     1.0000 0.59337  0.32260  0.16541  Biso   1.000  C
  C439     1.0000 0.09337  0.67740  0.33459  Biso   1.000  C
  C440     1.0000 0.40663  0.32260  0.33459  Biso   1.000  C
  C441     1.0000 0.59337  0.82260  0.83459  Biso   1.000  C
  C442     1.0000 0.09337  0.32260  0.83459  Biso   1.000  C
  C443     1.0000 0.90663  0.17740  0.83459  Biso   1.000  C
  C444     1.0000 0.40663  0.82260  0.66541  Biso   1.000  C
  C445     1.0000 0.09337  0.17740  0.66541  Biso   1.000  C
  C446     1.0000 0.40663  0.67740  0.83459  Biso   1.000  C
  C447     1.0000 0.90663  0.32260  0.66541  Biso   1.000  C
  C448     1.0000 0.59337  0.67740  0.66541  Biso   1.000  C
  H449     1.0000 0.43150  0.15850  0.16060  Biso   1.000  H
  H450     1.0000 0.93150  0.65850  0.16060  Biso   1.000  H
  H451     1.0000 0.06850  0.84150  0.16060  Biso   1.000  H
  H452     1.0000 0.56850  0.15850  0.33940  Biso   1.000  H
  H453     1.0000 0.93150  0.84150  0.33940  Biso   1.000  H
  H454     1.0000 0.56850  0.34150  0.16060  Biso   1.000  H
  H455     1.0000 0.06850  0.65850  0.33940  Biso   1.000  H
  H456     1.0000 0.43150  0.34150  0.33940  Biso   1.000  H
  H457     1.0000 0.56850  0.84150  0.83940  Biso   1.000  H
  H458     1.0000 0.06850  0.34150  0.83940  Biso   1.000  H
  H459     1.0000 0.93150  0.15850  0.83940  Biso   1.000  H
  H460     1.0000 0.43150  0.84150  0.66060  Biso   1.000  H
  H461     1.0000 0.06850  0.15850  0.66060  Biso   1.000  H
  H462     1.0000 0.43150  0.65850  0.83940  Biso   1.000  H
  H463     1.0000 0.93150  0.34150  0.66060  Biso   1.000  H
  H464     1.0000 0.56850  0.65850  0.66060  Biso   1.000  H
  C449     1.0000 0.36930  0.18540  0.14166  Biso   1.000  C
  C450     1.0000 0.86930  0.68540  0.14166  Biso   1.000  C
  C451     1.0000 0.13070  0.81460  0.14166  Biso   1.000  C
  C452     1.0000 0.63070  0.18540  0.35834  Biso   1.000  C
  C453     1.0000 0.86930  0.81460  0.35834  Biso   1.000  C
  C454     1.0000 0.63070  0.31460  0.14166  Biso   1.000  C
  C455     1.0000 0.13070  0.68540  0.35834  Biso   1.000  C
  C456     1.0000 0.36930  0.31460  0.35834  Biso   1.000  C
  C457     1.0000 0.63070  0.81460  0.85834  Biso   1.000  C
  C458     1.0000 0.13070  0.31460  0.85834  Biso   1.000  C
  C459     1.0000 0.86930  0.18540  0.85834  Biso   1.000  C
  C460     1.0000 0.36930  0.81460  0.64166  Biso   1.000  C
  C461     1.0000 0.13070  0.18540  0.64166  Biso   1.000  C
  C462     1.0000 0.36930  0.68540  0.85834  Biso   1.000  C
  C463     1.0000 0.86930  0.31460  0.64166  Biso   1.000  C
  C464     1.0000 0.63070  0.68540  0.64166  Biso   1.000  C
  H465     1.0000 0.36820  0.17220  0.12020  Biso   1.000  H
  H466     1.0000 0.86820  0.67220  0.12020  Biso   1.000  H
  H467     1.0000 0.13180  0.82780  0.12020  Biso   1.000  H
  H468     1.0000 0.63180  0.17220  0.37980  Biso   1.000  H
  H469     1.0000 0.86820  0.82780  0.37980  Biso   1.000  H
  H470     1.0000 0.63180  0.32780  0.12020  Biso   1.000  H
  H471     1.0000 0.13180  0.67220  0.37980  Biso   1.000  H
  H472     1.0000 0.36820  0.32780  0.37980  Biso   1.000  H
  H473     1.0000 0.63180  0.82780  0.87980  Biso   1.000  H
  H474     1.0000 0.13180  0.32780  0.87980  Biso   1.000  H
  H475     1.0000 0.86820  0.17220  0.87980  Biso   1.000  H
  H476     1.0000 0.36820  0.82780  0.62020  Biso   1.000  H
  H477     1.0000 0.13180  0.17220  0.62020  Biso   1.000  H
  H478     1.0000 0.36820  0.67220  0.87980  Biso   1.000  H
  H479     1.0000 0.86820  0.32780  0.62020  Biso   1.000  H
  H480     1.0000 0.63180  0.67220  0.62020  Biso   1.000  H
  C465     1.0000 0.33335  0.21271  0.14929  Biso   1.000  C
  C466     1.0000 0.83335  0.71271  0.14929  Biso   1.000  C
  C467     1.0000 0.16665  0.78729  0.14929  Biso   1.000  C
  C468     1.0000 0.66665  0.21271  0.35071  Biso   1.000  C
  C469     1.0000 0.83335  0.78729  0.35071  Biso   1.000  C
  C470     1.0000 0.66665  0.28729  0.14929  Biso   1.000  C
  C471     1.0000 0.16665  0.71271  0.35071  Biso   1.000  C
  C472     1.0000 0.33335  0.28729  0.35071  Biso   1.000  C
  C473     1.0000 0.66665  0.78729  0.85071  Biso   1.000  C
  C474     1.0000 0.16665  0.28729  0.85071  Biso   1.000  C
  C475     1.0000 0.83335  0.21271  0.85071  Biso   1.000  C
  C476     1.0000 0.33335  0.78729  0.64929  Biso   1.000  C
  C477     1.0000 0.16665  0.21271  0.64929  Biso   1.000  C
  C478     1.0000 0.33335  0.71271  0.85071  Biso   1.000  C
  C479     1.0000 0.83335  0.28729  0.64929  Biso   1.000  C
  C480     1.0000 0.66665  0.71271  0.64929  Biso   1.000  C
  C481     1.0000 0.33548  0.23141  0.18082  Biso   1.000  C
  C482     1.0000 0.83548  0.73141  0.18082  Biso   1.000  C
  C483     1.0000 0.16452  0.76859  0.18082  Biso   1.000  C
  C484     1.0000 0.66452  0.23141  0.31918  Biso   1.000  C
  C485     1.0000 0.83548  0.76859  0.31918  Biso   1.000  C
  C486     1.0000 0.66452  0.26859  0.18082  Biso   1.000  C
  C487     1.0000 0.16452  0.73141  0.31918  Biso   1.000  C
  C488     1.0000 0.33548  0.26859  0.31918  Biso   1.000  C
  C489     1.0000 0.66452  0.76859  0.81918  Biso   1.000  C
  C490     1.0000 0.16452  0.26859  0.81918  Biso   1.000  C
  C491     1.0000 0.83548  0.23141  0.81918  Biso   1.000  C
  C492     1.0000 0.33548  0.76859  0.68082  Biso   1.000  C
  C493     1.0000 0.16452  0.23141  0.68082  Biso   1.000  C
  C494     1.0000 0.33548  0.73141  0.81918  Biso   1.000  C
  C495     1.0000 0.83548  0.26859  0.68082  Biso   1.000  C
  C496     1.0000 0.66452  0.73141  0.68082  Biso   1.000  C
  H481     1.0000 0.31070  0.25010  0.18620  Biso   1.000  H
  H482     1.0000 0.81070  0.75010  0.18620  Biso   1.000  H
  H483     1.0000 0.18930  0.74990  0.18620  Biso   1.000  H
  H484     1.0000 0.68930  0.25010  0.31380  Biso   1.000  H
  H485     1.0000 0.81070  0.74990  0.31380  Biso   1.000  H
  H486     1.0000 0.68930  0.24990  0.18620  Biso   1.000  H
  H487     1.0000 0.18930  0.75010  0.31380  Biso   1.000  H
  H488     1.0000 0.31070  0.24990  0.31380  Biso   1.000  H
  H489     1.0000 0.68930  0.74990  0.81380  Biso   1.000  H
  H490     1.0000 0.18930  0.24990  0.81380  Biso   1.000  H
  H491     1.0000 0.81070  0.25010  0.81380  Biso   1.000  H
  H492     1.0000 0.31070  0.74990  0.68620  Biso   1.000  H
  H493     1.0000 0.18930  0.25010  0.68620  Biso   1.000  H
  H494     1.0000 0.31070  0.75010  0.81380  Biso   1.000  H
  H495     1.0000 0.81070  0.24990  0.68620  Biso   1.000  H
  H496     1.0000 0.68930  0.75010  0.68620  Biso   1.000  H
  C497     1.0000 0.26720  0.25156  0.12425  Biso   1.000  C
  C498     1.0000 0.76720  0.75156  0.12425  Biso   1.000  C
  C499     1.0000 0.23280  0.74844  0.12425  Biso   1.000  C
  C500     1.0000 0.73280  0.25156  0.37575  Biso   1.000  C
  C501     1.0000 0.76720  0.74844  0.37575  Biso   1.000  C
  C502     1.0000 0.73280  0.24844  0.12425  Biso   1.000  C
  C503     1.0000 0.23280  0.75156  0.37575  Biso   1.000  C
  C504     1.0000 0.26720  0.24844  0.37575  Biso   1.000  C
  C505     1.0000 0.73280  0.74844  0.87575  Biso   1.000  C
  C506     1.0000 0.23280  0.24844  0.87575  Biso   1.000  C
  C507     1.0000 0.76720  0.25156  0.87575  Biso   1.000  C
  C508     1.0000 0.26720  0.74844  0.62425  Biso   1.000  C
  C509     1.0000 0.23280  0.25156  0.62425  Biso   1.000  C
  C510     1.0000 0.26720  0.75156  0.87575  Biso   1.000  C
  C511     1.0000 0.76720  0.24844  0.62425  Biso   1.000  C
  C512     1.0000 0.73280  0.75156  0.62425  Biso   1.000  C
  C513     1.0000 0.10558  0.46538  0.04943  Biso   1.000  C
  C514     1.0000 0.60558  0.96538  0.04943  Biso   1.000  C
  C515     1.0000 0.39442  0.53462  0.04943  Biso   1.000  C
  C516     1.0000 0.89442  0.46538  0.45057  Biso   1.000  C
  C517     1.0000 0.60558  0.53462  0.45057  Biso   1.000  C
  C518     1.0000 0.89442  0.03462  0.04943  Biso   1.000  C
  C519     1.0000 0.39442  0.96538  0.45057  Biso   1.000  C
  C520     1.0000 0.10558  0.03462  0.45057  Biso   1.000  C
  C521     1.0000 0.89442  0.53462  0.95057  Biso   1.000  C
  C522     1.0000 0.39442  0.03462  0.95057  Biso   1.000  C
  C523     1.0000 0.60558  0.46538  0.95057  Biso   1.000  C
  C524     1.0000 0.10558  0.53462  0.54943  Biso   1.000  C
  C525     1.0000 0.39442  0.46538  0.54943  Biso   1.000  C
  C526     1.0000 0.10558  0.96538  0.95057  Biso   1.000  C
  C527     1.0000 0.60558  0.03462  0.54943  Biso   1.000  C
  C528     1.0000 0.89442  0.96538  0.54943  Biso   1.000  C
  H497     1.0000 0.09340  0.49080  0.04730  Biso   1.000  H
  H498     1.0000 0.59340  0.99080  0.04730  Biso   1.000  H
  H499     1.0000 0.40660  0.50920  0.04730  Biso   1.000  H
  H500     1.0000 0.90660  0.49080  0.45270  Biso   1.000  H
  H501     1.0000 0.59340  0.50920  0.45270  Biso   1.000  H
  H502     1.0000 0.90660  0.00920  0.04730  Biso   1.000  H
  H503     1.0000 0.40660  0.99080  0.45270  Biso   1.000  H
  H504     1.0000 0.09340  0.00920  0.45270  Biso   1.000  H
  H505     1.0000 0.90660  0.50920  0.95270  Biso   1.000  H
  H506     1.0000 0.40660  0.00920  0.95270  Biso   1.000  H
  H507     1.0000 0.59340  0.49080  0.95270  Biso   1.000  H
  H508     1.0000 0.09340  0.50920  0.54730  Biso   1.000  H
  H509     1.0000 0.40660  0.49080  0.54730  Biso   1.000  H
  H510     1.0000 0.09340  0.99080  0.95270  Biso   1.000  H
  H511     1.0000 0.59340  0.00920  0.54730  Biso   1.000  H
  H512     1.0000 0.90660  0.99080  0.54730  Biso   1.000  H
  C529     1.0000 0.15488  0.45721  0.04121  Biso   1.000  C
  C530     1.0000 0.65488  0.95721  0.04121  Biso   1.000  C
  C531     1.0000 0.34512  0.54279  0.04121  Biso   1.000  C
  C532     1.0000 0.84512  0.45721  0.45879  Biso   1.000  C
  C533     1.0000 0.65488  0.54279  0.45879  Biso   1.000  C
  C534     1.0000 0.84512  0.04279  0.04121  Biso   1.000  C
  C535     1.0000 0.34512  0.95721  0.45879  Biso   1.000  C
  C536     1.0000 0.15488  0.04279  0.45879  Biso   1.000  C
  C537     1.0000 0.84512  0.54279  0.95879  Biso   1.000  C
  C538     1.0000 0.34512  0.04279  0.95879  Biso   1.000  C
  C539     1.0000 0.65488  0.45721  0.95879  Biso   1.000  C
  C540     1.0000 0.15488  0.54279  0.54121  Biso   1.000  C
  C541     1.0000 0.34512  0.45721  0.54121  Biso   1.000  C
  C542     1.0000 0.15488  0.95721  0.95879  Biso   1.000  C
  C543     1.0000 0.65488  0.04279  0.54121  Biso   1.000  C
  C544     1.0000 0.84512  0.95721  0.54121  Biso   1.000  C
  H513     1.0000 0.17650  0.47700  0.03320  Biso   1.000  H
  H514     1.0000 0.67650  0.97700  0.03320  Biso   1.000  H
  H515     1.0000 0.32350  0.52300  0.03320  Biso   1.000  H
  H516     1.0000 0.82350  0.47700  0.46680  Biso   1.000  H
  H517     1.0000 0.67650  0.52300  0.46680  Biso   1.000  H
  H518     1.0000 0.82350  0.02300  0.03320  Biso   1.000  H
  H519     1.0000 0.32350  0.97700  0.46680  Biso   1.000  H
  H520     1.0000 0.17650  0.02300  0.46680  Biso   1.000  H
  H521     1.0000 0.82350  0.52300  0.96680  Biso   1.000  H
  H522     1.0000 0.32350  0.02300  0.96680  Biso   1.000  H
  H523     1.0000 0.67650  0.47700  0.96680  Biso   1.000  H
  H524     1.0000 0.17650  0.52300  0.53320  Biso   1.000  H
  H525     1.0000 0.32350  0.47700  0.53320  Biso   1.000  H
  H526     1.0000 0.17650  0.97700  0.96680  Biso   1.000  H
  H527     1.0000 0.67650  0.02300  0.53320  Biso   1.000  H
  H528     1.0000 0.82350  0.97700  0.53320  Biso   1.000  H
  C545     1.0000 0.17325  0.42129  0.04439  Biso   1.000  C
  C546     1.0000 0.67325  0.92129  0.04439  Biso   1.000  C
  C547     1.0000 0.32675  0.57871  0.04439  Biso   1.000  C
  C548     1.0000 0.82675  0.42129  0.45561  Biso   1.000  C
  C549     1.0000 0.67325  0.57871  0.45561  Biso   1.000  C
  C550     1.0000 0.82675  0.07871  0.04439  Biso   1.000  C
  C551     1.0000 0.32675  0.92129  0.45561  Biso   1.000  C
  C552     1.0000 0.17325  0.07871  0.45561  Biso   1.000  C
  C553     1.0000 0.82675  0.57871  0.95561  Biso   1.000  C
  C554     1.0000 0.32675  0.07871  0.95561  Biso   1.000  C
  C555     1.0000 0.67325  0.42129  0.95561  Biso   1.000  C
  C556     1.0000 0.17325  0.57871  0.54439  Biso   1.000  C
  C557     1.0000 0.32675  0.42129  0.54439  Biso   1.000  C
  C558     1.0000 0.17325  0.92129  0.95561  Biso   1.000  C
  C559     1.0000 0.67325  0.07871  0.54439  Biso   1.000  C
  C560     1.0000 0.82675  0.92129  0.54439  Biso   1.000  C
  H529     1.0000 0.20760  0.41590  0.03880  Biso   1.000  H
  H530     1.0000 0.70760  0.91590  0.03880  Biso   1.000  H
  H531     1.0000 0.29240  0.58410  0.03880  Biso   1.000  H
  H532     1.0000 0.79240  0.41590  0.46120  Biso   1.000  H
  H533     1.0000 0.70760  0.58410  0.46120  Biso   1.000  H
  H534     1.0000 0.79240  0.08410  0.03880  Biso   1.000  H
  H535     1.0000 0.29240  0.91590  0.46120  Biso   1.000  H
  H536     1.0000 0.20760  0.08410  0.46120  Biso   1.000  H
  H537     1.0000 0.79240  0.58410  0.96120  Biso   1.000  H
  H538     1.0000 0.29240  0.08410  0.96120  Biso   1.000  H
  H539     1.0000 0.70760  0.41590  0.96120  Biso   1.000  H
  H540     1.0000 0.20760  0.58410  0.53880  Biso   1.000  H
  H541     1.0000 0.29240  0.41590  0.53880  Biso   1.000  H
  H542     1.0000 0.20760  0.91590  0.96120  Biso   1.000  H
  H543     1.0000 0.70760  0.08410  0.53880  Biso   1.000  H
  H544     1.0000 0.79240  0.91590  0.53880  Biso   1.000  H
  C561     1.0000 0.14175  0.39300  0.05570  Biso   1.000  C
  C562     1.0000 0.64175  0.89300  0.05570  Biso   1.000  C
  C563     1.0000 0.35825  0.60700  0.05570  Biso   1.000  C
  C564     1.0000 0.85825  0.39300  0.44430  Biso   1.000  C
  C565     1.0000 0.64175  0.60700  0.44430  Biso   1.000  C
  C566     1.0000 0.85825  0.10700  0.05570  Biso   1.000  C
  C567     1.0000 0.35825  0.89300  0.44430  Biso   1.000  C
  C568     1.0000 0.14175  0.10700  0.44430  Biso   1.000  C
  C569     1.0000 0.85825  0.60700  0.94430  Biso   1.000  C
  C570     1.0000 0.35825  0.10700  0.94430  Biso   1.000  C
  C571     1.0000 0.64175  0.39300  0.94430  Biso   1.000  C
  C572     1.0000 0.14175  0.60700  0.55570  Biso   1.000  C
  C573     1.0000 0.35825  0.39300  0.55570  Biso   1.000  C
  C574     1.0000 0.14175  0.89300  0.94430  Biso   1.000  C
  C575     1.0000 0.64175  0.10700  0.55570  Biso   1.000  C
  C576     1.0000 0.85825  0.89300  0.55570  Biso   1.000  C
  C577     1.0000 0.09197  0.40241  0.06391  Biso   1.000  C
  C578     1.0000 0.59197  0.90241  0.06391  Biso   1.000  C
  C579     1.0000 0.40803  0.59759  0.06391  Biso   1.000  C
  C580     1.0000 0.90803  0.40241  0.43609  Biso   1.000  C
  C581     1.0000 0.59197  0.59759  0.43609  Biso   1.000  C
  C582     1.0000 0.90803  0.09759  0.06391  Biso   1.000  C
  C583     1.0000 0.40803  0.90241  0.43609  Biso   1.000  C
  C584     1.0000 0.09197  0.09759  0.43609  Biso   1.000  C
  C585     1.0000 0.90803  0.59759  0.93609  Biso   1.000  C
  C586     1.0000 0.40803  0.09759  0.93609  Biso   1.000  C
  C587     1.0000 0.59197  0.40241  0.93609  Biso   1.000  C
  C588     1.0000 0.09197  0.59759  0.56391  Biso   1.000  C
  C589     1.0000 0.40803  0.40241  0.56391  Biso   1.000  C
  C590     1.0000 0.09197  0.90241  0.93609  Biso   1.000  C
  C591     1.0000 0.59197  0.09759  0.56391  Biso   1.000  C
  C592     1.0000 0.90803  0.90241  0.56391  Biso   1.000  C
  H545     1.0000 0.07000  0.38300  0.07220  Biso   1.000  H
  H546     1.0000 0.57000  0.88300  0.07220  Biso   1.000  H
  H547     1.0000 0.43000  0.61700  0.07220  Biso   1.000  H
  H548     1.0000 0.93000  0.38300  0.42780  Biso   1.000  H
  H549     1.0000 0.57000  0.61700  0.42780  Biso   1.000  H
  H550     1.0000 0.93000  0.11700  0.07220  Biso   1.000  H
  H551     1.0000 0.43000  0.88300  0.42780  Biso   1.000  H
  H552     1.0000 0.07000  0.11700  0.42780  Biso   1.000  H
  H553     1.0000 0.93000  0.61700  0.92780  Biso   1.000  H
  H554     1.0000 0.43000  0.11700  0.92780  Biso   1.000  H
  H555     1.0000 0.57000  0.38300  0.92780  Biso   1.000  H
  H556     1.0000 0.07000  0.61700  0.57220  Biso   1.000  H
  H557     1.0000 0.43000  0.38300  0.57220  Biso   1.000  H
  H558     1.0000 0.07000  0.88300  0.92780  Biso   1.000  H
  H559     1.0000 0.57000  0.11700  0.57220  Biso   1.000  H
  H560     1.0000 0.93000  0.88300  0.57220  Biso   1.000  H
  C593     1.0000 0.13280  0.32389  0.06078  Biso   1.000  C
  C594     1.0000 0.63280  0.82389  0.06078  Biso   1.000  C
  C595     1.0000 0.36720  0.67611  0.06078  Biso   1.000  C
  C596     1.0000 0.86720  0.32389  0.43922  Biso   1.000  C
  C597     1.0000 0.63280  0.67611  0.43922  Biso   1.000  C
  C598     1.0000 0.86720  0.17611  0.06078  Biso   1.000  C
  C599     1.0000 0.36720  0.82389  0.43922  Biso   1.000  C
  C600     1.0000 0.13280  0.17611  0.43922  Biso   1.000  C
  C601     1.0000 0.86720  0.67611  0.93922  Biso   1.000  C
  C602     1.0000 0.36720  0.17611  0.93922  Biso   1.000  C
  C603     1.0000 0.63280  0.32389  0.93922  Biso   1.000  C
  C604     1.0000 0.13280  0.67611  0.56078  Biso   1.000  C
  C605     1.0000 0.36720  0.32389  0.56078  Biso   1.000  C
  C606     1.0000 0.13280  0.82389  0.93922  Biso   1.000  C
  C607     1.0000 0.63280  0.17611  0.56078  Biso   1.000  C
  C608     1.0000 0.86720  0.82389  0.56078  Biso   1.000  C
  C609     1.0000 0.99924  0.09481  0.00724  Biso   1.000  C
  C610     1.0000 0.49924  0.59481  0.00724  Biso   1.000  C
  C611     1.0000 0.50076  0.90519  0.00724  Biso   1.000  C
  C612     1.0000 0.00076  0.09481  0.49276  Biso   1.000  C
  C613     1.0000 0.49924  0.90519  0.49276  Biso   1.000  C
  C614     1.0000 0.00076  0.40519  0.00724  Biso   1.000  C
  C615     1.0000 0.50076  0.59481  0.49276  Biso   1.000  C
  C616     1.0000 0.99924  0.40519  0.49276  Biso   1.000  C
  C617     1.0000 0.00076  0.90519  0.99276  Biso   1.000  C
  C618     1.0000 0.50076  0.40519  0.99276  Biso   1.000  C
  C619     1.0000 0.49924  0.09481  0.99276  Biso   1.000  C
  C620     1.0000 0.99924  0.90519  0.50724  Biso   1.000  C
  C621     1.0000 0.50076  0.09481  0.50724  Biso   1.000  C
  C622     1.0000 0.99924  0.59481  0.99276  Biso   1.000  C
  C623     1.0000 0.49924  0.40519  0.50724  Biso   1.000  C
  C624     1.0000 0.00076  0.59481  0.50724  Biso   1.000  C
  H561     1.0000 0.97570  0.07570  0.00030  Biso   1.000  H
  H562     1.0000 0.47570  0.57570  0.00030  Biso   1.000  H
  H563     1.0000 0.52430  0.92430  0.00030  Biso   1.000  H
  H564     1.0000 0.02430  0.07570  0.49970  Biso   1.000  H
  H565     1.0000 0.47570  0.92430  0.49970  Biso   1.000  H
  H566     1.0000 0.02430  0.42430  0.00030  Biso   1.000  H
  H567     1.0000 0.52430  0.57570  0.49970  Biso   1.000  H
  H568     1.0000 0.97570  0.42430  0.49970  Biso   1.000  H
  H569     1.0000 0.02430  0.92430  0.99970  Biso   1.000  H
  H570     1.0000 0.52430  0.42430  0.99970  Biso   1.000  H
  H571     1.0000 0.47570  0.07570  0.99970  Biso   1.000  H
  H572     1.0000 0.97570  0.92430  0.50030  Biso   1.000  H
  H573     1.0000 0.52430  0.07570  0.50030  Biso   1.000  H
  H574     1.0000 0.97570  0.57570  0.99970  Biso   1.000  H
  H575     1.0000 0.47570  0.42430  0.50030  Biso   1.000  H
  H576     1.0000 0.02430  0.57570  0.50030  Biso   1.000  H
  C625     1.0000 0.01100  0.12315  0.98522  Biso   1.000  C
  C626     1.0000 0.51100  0.62315  0.98522  Biso   1.000  C
  C627     1.0000 0.48900  0.87685  0.98522  Biso   1.000  C
  C628     1.0000 0.98900  0.12315  0.51478  Biso   1.000  C
  C629     1.0000 0.51100  0.87685  0.51478  Biso   1.000  C
  C630     1.0000 0.98900  0.37685  0.98522  Biso   1.000  C
  C631     1.0000 0.48900  0.62315  0.51478  Biso   1.000  C
  C632     1.0000 0.01100  0.37685  0.51478  Biso   1.000  C
  C633     1.0000 0.98900  0.87685  0.01478  Biso   1.000  C
  C634     1.0000 0.48900  0.37685  0.01478  Biso   1.000  C
  C635     1.0000 0.51100  0.12315  0.01478  Biso   1.000  C
  C636     1.0000 0.01100  0.87685  0.48522  Biso   1.000  C
  C637     1.0000 0.48900  0.12315  0.48522  Biso   1.000  C
  C638     1.0000 0.01100  0.62315  0.01478  Biso   1.000  C
  C639     1.0000 0.51100  0.37685  0.48522  Biso   1.000  C
  C640     1.0000 0.98900  0.62315  0.48522  Biso   1.000  C
  H577     1.0000 0.99670  0.12330  0.96270  Biso   1.000  H
  H578     1.0000 0.49670  0.62330  0.96270  Biso   1.000  H
  H579     1.0000 0.50330  0.87670  0.96270  Biso   1.000  H
  H580     1.0000 0.00330  0.12330  0.53730  Biso   1.000  H
  H581     1.0000 0.49670  0.87670  0.53730  Biso   1.000  H
  H582     1.0000 0.00330  0.37670  0.96270  Biso   1.000  H
  H583     1.0000 0.50330  0.62330  0.53730  Biso   1.000  H
  H584     1.0000 0.99670  0.37670  0.53730  Biso   1.000  H
  H585     1.0000 0.00330  0.87670  0.03730  Biso   1.000  H
  H586     1.0000 0.50330  0.37670  0.03730  Biso   1.000  H
  H587     1.0000 0.49670  0.12330  0.03730  Biso   1.000  H
  H588     1.0000 0.99670  0.87670  0.46270  Biso   1.000  H
  H589     1.0000 0.50330  0.12330  0.46270  Biso   1.000  H
  H590     1.0000 0.99670  0.62330  0.03730  Biso   1.000  H
  H591     1.0000 0.49670  0.37670  0.46270  Biso   1.000  H
  H592     1.0000 0.00330  0.62330  0.46270  Biso   1.000  H
  C641     1.0000 0.04318  0.15164  0.99473  Biso   1.000  C
  C642     1.0000 0.54318  0.65164  0.99473  Biso   1.000  C
  C643     1.0000 0.45682  0.84836  0.99473  Biso   1.000  C
  C644     1.0000 0.95682  0.15164  0.50527  Biso   1.000  C
  C645     1.0000 0.54318  0.84836  0.50527  Biso   1.000  C
  C646     1.0000 0.95682  0.34836  0.99473  Biso   1.000  C
  C647     1.0000 0.45682  0.65164  0.50527  Biso   1.000  C
  C648     1.0000 0.04318  0.34836  0.50527  Biso   1.000  C
  C649     1.0000 0.95682  0.84836  0.00527  Biso   1.000  C
  C650     1.0000 0.45682  0.34836  0.00527  Biso   1.000  C
  C651     1.0000 0.54318  0.15164  0.00527  Biso   1.000  C
  C652     1.0000 0.04318  0.84836  0.49473  Biso   1.000  C
  C653     1.0000 0.45682  0.15164  0.49473  Biso   1.000  C
  C654     1.0000 0.04318  0.65164  0.00527  Biso   1.000  C
  C655     1.0000 0.54318  0.34836  0.49473  Biso   1.000  C
  C656     1.0000 0.95682  0.65164  0.49473  Biso   1.000  C
  H593     1.0000 0.05080  0.17180  0.97920  Biso   1.000  H
  H594     1.0000 0.55080  0.67180  0.97920  Biso   1.000  H
  H595     1.0000 0.44920  0.82820  0.97920  Biso   1.000  H
  H596     1.0000 0.94920  0.17180  0.52080  Biso   1.000  H
  H597     1.0000 0.55080  0.82820  0.52080  Biso   1.000  H
  H598     1.0000 0.94920  0.32820  0.97920  Biso   1.000  H
  H599     1.0000 0.44920  0.67180  0.52080  Biso   1.000  H
  H600     1.0000 0.05080  0.32820  0.52080  Biso   1.000  H
  H601     1.0000 0.94920  0.82820  0.02080  Biso   1.000  H
  H602     1.0000 0.44920  0.32820  0.02080  Biso   1.000  H
  H603     1.0000 0.55080  0.17180  0.02080  Biso   1.000  H
  H604     1.0000 0.05080  0.82820  0.47920  Biso   1.000  H
  H605     1.0000 0.44920  0.17180  0.47920  Biso   1.000  H
  H606     1.0000 0.05080  0.67180  0.02080  Biso   1.000  H
  H607     1.0000 0.55080  0.32820  0.47920  Biso   1.000  H
  H608     1.0000 0.94920  0.67180  0.47920  Biso   1.000  H
  C657     1.0000 0.06462  0.15062  0.02749  Biso   1.000  C
  C658     1.0000 0.56462  0.65062  0.02749  Biso   1.000  C
  C659     1.0000 0.43538  0.84938  0.02749  Biso   1.000  C
  C660     1.0000 0.93538  0.15062  0.47251  Biso   1.000  C
  C661     1.0000 0.56462  0.84938  0.47251  Biso   1.000  C
  C662     1.0000 0.93538  0.34938  0.02749  Biso   1.000  C
  C663     1.0000 0.43538  0.65062  0.47251  Biso   1.000  C
  C664     1.0000 0.06462  0.34938  0.47251  Biso   1.000  C
  C665     1.0000 0.93538  0.84938  0.97251  Biso   1.000  C
  C666     1.0000 0.43538  0.34938  0.97251  Biso   1.000  C
  C667     1.0000 0.56462  0.15062  0.97251  Biso   1.000  C
  C668     1.0000 0.06462  0.84938  0.52749  Biso   1.000  C
  C669     1.0000 0.43538  0.15062  0.52749  Biso   1.000  C
  C670     1.0000 0.06462  0.65062  0.97251  Biso   1.000  C
  C671     1.0000 0.56462  0.34938  0.52749  Biso   1.000  C
  C672     1.0000 0.93538  0.65062  0.52749  Biso   1.000  C
  C673     1.0000 0.05205  0.12055  0.04871  Biso   1.000  C
  C674     1.0000 0.55205  0.62055  0.04871  Biso   1.000  C
  C675     1.0000 0.44795  0.87945  0.04871  Biso   1.000  C
  C676     1.0000 0.94795  0.12055  0.45129  Biso   1.000  C
  C677     1.0000 0.55205  0.87945  0.45129  Biso   1.000  C
  C678     1.0000 0.94795  0.37945  0.04871  Biso   1.000  C
  C679     1.0000 0.44795  0.62055  0.45129  Biso   1.000  C
  C680     1.0000 0.05205  0.37945  0.45129  Biso   1.000  C
  C681     1.0000 0.94795  0.87945  0.95129  Biso   1.000  C
  C682     1.0000 0.44795  0.37945  0.95129  Biso   1.000  C
  C683     1.0000 0.55205  0.12055  0.95129  Biso   1.000  C
  C684     1.0000 0.05205  0.87945  0.54871  Biso   1.000  C
  C685     1.0000 0.44795  0.12055  0.54871  Biso   1.000  C
  C686     1.0000 0.05205  0.62055  0.95129  Biso   1.000  C
  C687     1.0000 0.55205  0.37945  0.54871  Biso   1.000  C
  C688     1.0000 0.94795  0.62055  0.54871  Biso   1.000  C
  H609     1.0000 0.06660  0.11940  0.07110  Biso   1.000  H
  H610     1.0000 0.56660  0.61940  0.07110  Biso   1.000  H
  H611     1.0000 0.43340  0.88060  0.07110  Biso   1.000  H
  H612     1.0000 0.93340  0.11940  0.42890  Biso   1.000  H
  H613     1.0000 0.56660  0.88060  0.42890  Biso   1.000  H
  H614     1.0000 0.93340  0.38060  0.07110  Biso   1.000  H
  H615     1.0000 0.43340  0.61940  0.42890  Biso   1.000  H
  H616     1.0000 0.06660  0.38060  0.42890  Biso   1.000  H
  H617     1.0000 0.93340  0.88060  0.92890  Biso   1.000  H
  H618     1.0000 0.43340  0.38060  0.92890  Biso   1.000  H
  H619     1.0000 0.56660  0.11940  0.92890  Biso   1.000  H
  H620     1.0000 0.06660  0.88060  0.57110  Biso   1.000  H
  H621     1.0000 0.43340  0.11940  0.57110  Biso   1.000  H
  H622     1.0000 0.06660  0.61940  0.92890  Biso   1.000  H
  H623     1.0000 0.56660  0.38060  0.57110  Biso   1.000  H
  H624     1.0000 0.93340  0.61940  0.57110  Biso   1.000  H
  C689     1.0000 0.12728  0.18155  0.06562  Biso   1.000  C
  C690     1.0000 0.62728  0.68155  0.06562  Biso   1.000  C
  C691     1.0000 0.37272  0.81845  0.06562  Biso   1.000  C
  C692     1.0000 0.87272  0.18155  0.43438  Biso   1.000  C
  C693     1.0000 0.62728  0.81845  0.43438  Biso   1.000  C
  C694     1.0000 0.87272  0.31845  0.06562  Biso   1.000  C
  C695     1.0000 0.37272  0.68155  0.43438  Biso   1.000  C
  C696     1.0000 0.12728  0.31845  0.43438  Biso   1.000  C
  C697     1.0000 0.87272  0.81845  0.93438  Biso   1.000  C
  C698     1.0000 0.37272  0.31845  0.93438  Biso   1.000  C
  C699     1.0000 0.62728  0.18155  0.93438  Biso   1.000  C
  C700     1.0000 0.12728  0.81845  0.56562  Biso   1.000  C
  C701     1.0000 0.37272  0.18155  0.56562  Biso   1.000  C
  C702     1.0000 0.12728  0.68155  0.93438  Biso   1.000  C
  C703     1.0000 0.62728  0.31845  0.56562  Biso   1.000  C
  C704     1.0000 0.87272  0.68155  0.56562  Biso   1.000  C
  C705     1.0000 0.22190  0.25155  0.10029  Biso   1.000  C
  C706     1.0000 0.72190  0.75155  0.10029  Biso   1.000  C
  C707     1.0000 0.27810  0.74845  0.10029  Biso   1.000  C
  C708     1.0000 0.77810  0.25155  0.39971  Biso   1.000  C
  C709     1.0000 0.72190  0.74845  0.39971  Biso   1.000  C
  C710     1.0000 0.77810  0.24845  0.10029  Biso   1.000  C
  C711     1.0000 0.27810  0.75155  0.39971  Biso   1.000  C
  C712     1.0000 0.22190  0.24845  0.39971  Biso   1.000  C
  C713     1.0000 0.77810  0.74845  0.89971  Biso   1.000  C
  C714     1.0000 0.27810  0.24845  0.89971  Biso   1.000  C
  C715     1.0000 0.72190  0.25155  0.89971  Biso   1.000  C
  C716     1.0000 0.22190  0.74845  0.60029  Biso   1.000  C
  C717     1.0000 0.27810  0.25155  0.60029  Biso   1.000  C
  C718     1.0000 0.22190  0.75155  0.89971  Biso   1.000  C
  C719     1.0000 0.72190  0.24845  0.60029  Biso   1.000  C
  C720     1.0000 0.77810  0.75155  0.60029  Biso   1.000  C
  C721     1.0000 0.20200  0.28617  0.08943  Biso   1.000  C
  C722     1.0000 0.70200  0.78617  0.08943  Biso   1.000  C
  C723     1.0000 0.29800  0.71383  0.08943  Biso   1.000  C
  C724     1.0000 0.79800  0.28617  0.41057  Biso   1.000  C
  C725     1.0000 0.70200  0.71383  0.41057  Biso   1.000  C
  C726     1.0000 0.79800  0.21383  0.08943  Biso   1.000  C
  C727     1.0000 0.29800  0.78617  0.41057  Biso   1.000  C
  C728     1.0000 0.20200  0.21383  0.41057  Biso   1.000  C
  C729     1.0000 0.79800  0.71383  0.91057  Biso   1.000  C
  C730     1.0000 0.29800  0.21383  0.91057  Biso   1.000  C
  C731     1.0000 0.70200  0.28617  0.91057  Biso   1.000  C
  C732     1.0000 0.20200  0.71383  0.58943  Biso   1.000  C
  C733     1.0000 0.29800  0.28617  0.58943  Biso   1.000  C
  C734     1.0000 0.20200  0.78617  0.91057  Biso   1.000  C
  C735     1.0000 0.70200  0.21383  0.58943  Biso   1.000  C
  C736     1.0000 0.79800  0.78617  0.58943  Biso   1.000  C
  H625     1.0000 0.21890  0.30920  0.09540  Biso   1.000  H
  H626     1.0000 0.71890  0.80920  0.09540  Biso   1.000  H
  H627     1.0000 0.28110  0.69080  0.09540  Biso   1.000  H
  H628     1.0000 0.78110  0.30920  0.40460  Biso   1.000  H
  H629     1.0000 0.71890  0.69080  0.40460  Biso   1.000  H
  H630     1.0000 0.78110  0.19080  0.09540  Biso   1.000  H
  H631     1.0000 0.28110  0.80920  0.40460  Biso   1.000  H
  H632     1.0000 0.21890  0.19080  0.40460  Biso   1.000  H
  H633     1.0000 0.78110  0.69080  0.90460  Biso   1.000  H
  H634     1.0000 0.28110  0.19080  0.90460  Biso   1.000  H
  H635     1.0000 0.71890  0.30920  0.90460  Biso   1.000  H
  H636     1.0000 0.21890  0.69080  0.59540  Biso   1.000  H
  H637     1.0000 0.28110  0.30920  0.59540  Biso   1.000  H
  H638     1.0000 0.21890  0.80920  0.90460  Biso   1.000  H
  H639     1.0000 0.71890  0.19080  0.59540  Biso   1.000  H
  H640     1.0000 0.78110  0.80920  0.59540  Biso   1.000  H
  C737     1.0000 0.15848  0.28763  0.07028  Biso   1.000  C
  C738     1.0000 0.65848  0.78763  0.07028  Biso   1.000  C
  C739     1.0000 0.34152  0.71237  0.07028  Biso   1.000  C
  C740     1.0000 0.84152  0.28763  0.42972  Biso   1.000  C
  C741     1.0000 0.65848  0.71237  0.42972  Biso   1.000  C
  C742     1.0000 0.84152  0.21237  0.07028  Biso   1.000  C
  C743     1.0000 0.34152  0.78763  0.42972  Biso   1.000  C
  C744     1.0000 0.15848  0.21237  0.42972  Biso   1.000  C
  C745     1.0000 0.84152  0.71237  0.92972  Biso   1.000  C
  C746     1.0000 0.34152  0.21237  0.92972  Biso   1.000  C
  C747     1.0000 0.65848  0.28763  0.92972  Biso   1.000  C
  C748     1.0000 0.15848  0.71237  0.57028  Biso   1.000  C
  C749     1.0000 0.34152  0.28763  0.57028  Biso   1.000  C
  C750     1.0000 0.15848  0.78763  0.92972  Biso   1.000  C
  C751     1.0000 0.65848  0.21237  0.57028  Biso   1.000  C
  C752     1.0000 0.84152  0.78763  0.57028  Biso   1.000  C
  C753     1.0000 0.13310  0.25350  0.06181  Biso   1.000  C
  C754     1.0000 0.63310  0.75350  0.06181  Biso   1.000  C
  C755     1.0000 0.36690  0.74650  0.06181  Biso   1.000  C
  C756     1.0000 0.86690  0.25350  0.43819  Biso   1.000  C
  C757     1.0000 0.63310  0.74650  0.43819  Biso   1.000  C
  C758     1.0000 0.86690  0.24650  0.06181  Biso   1.000  C
  C759     1.0000 0.36690  0.75350  0.43819  Biso   1.000  C
  C760     1.0000 0.13310  0.24650  0.43819  Biso   1.000  C
  C761     1.0000 0.86690  0.74650  0.93819  Biso   1.000  C
  C762     1.0000 0.36690  0.24650  0.93819  Biso   1.000  C
  C763     1.0000 0.63310  0.25350  0.93819  Biso   1.000  C
  C764     1.0000 0.13310  0.74650  0.56181  Biso   1.000  C
  C765     1.0000 0.36690  0.25350  0.56181  Biso   1.000  C
  C766     1.0000 0.13310  0.75350  0.93819  Biso   1.000  C
  C767     1.0000 0.63310  0.24650  0.56181  Biso   1.000  C
  C768     1.0000 0.86690  0.75350  0.56181  Biso   1.000  C
  H641     1.0000 0.10250  0.25440  0.04890  Biso   1.000  H
  H642     1.0000 0.60250  0.75440  0.04890  Biso   1.000  H
  H643     1.0000 0.39750  0.74560  0.04890  Biso   1.000  H
  H644     1.0000 0.89750  0.25440  0.45110  Biso   1.000  H
  H645     1.0000 0.60250  0.74560  0.45110  Biso   1.000  H
  H646     1.0000 0.89750  0.24560  0.04890  Biso   1.000  H
  H647     1.0000 0.39750  0.75440  0.45110  Biso   1.000  H
  H648     1.0000 0.10250  0.24560  0.45110  Biso   1.000  H
  H649     1.0000 0.89750  0.74560  0.95110  Biso   1.000  H
  H650     1.0000 0.39750  0.24560  0.95110  Biso   1.000  H
  H651     1.0000 0.60250  0.25440  0.95110  Biso   1.000  H
  H652     1.0000 0.10250  0.74560  0.54890  Biso   1.000  H
  H653     1.0000 0.39750  0.25440  0.54890  Biso   1.000  H
  H654     1.0000 0.10250  0.75440  0.95110  Biso   1.000  H
  H655     1.0000 0.60250  0.24560  0.54890  Biso   1.000  H
  H656     1.0000 0.89750  0.75440  0.54890  Biso   1.000  H
  C769     1.0000 0.15278  0.21874  0.07225  Biso   1.000  C
  C770     1.0000 0.65278  0.71874  0.07225  Biso   1.000  C
  C771     1.0000 0.34722  0.78126  0.07225  Biso   1.000  C
  C772     1.0000 0.84722  0.21874  0.42775  Biso   1.000  C
  C773     1.0000 0.65278  0.78126  0.42775  Biso   1.000  C
  C774     1.0000 0.84722  0.28126  0.07225  Biso   1.000  C
  C775     1.0000 0.34722  0.71874  0.42775  Biso   1.000  C
  C776     1.0000 0.15278  0.28126  0.42775  Biso   1.000  C
  C777     1.0000 0.84722  0.78126  0.92775  Biso   1.000  C
  C778     1.0000 0.34722  0.28126  0.92775  Biso   1.000  C
  C779     1.0000 0.65278  0.21874  0.92775  Biso   1.000  C
  C780     1.0000 0.15278  0.78126  0.57225  Biso   1.000  C
  C781     1.0000 0.34722  0.21874  0.57225  Biso   1.000  C
  C782     1.0000 0.15278  0.71874  0.92775  Biso   1.000  C
  C783     1.0000 0.65278  0.28126  0.57225  Biso   1.000  C
  C784     1.0000 0.84722  0.71874  0.57225  Biso   1.000  C
  C785     1.0000 0.19670  0.21763  0.09190  Biso   1.000  C
  C786     1.0000 0.69670  0.71763  0.09190  Biso   1.000  C
  C787     1.0000 0.30330  0.78237  0.09190  Biso   1.000  C
  C788     1.0000 0.80330  0.21763  0.40810  Biso   1.000  C
  C789     1.0000 0.69670  0.78237  0.40810  Biso   1.000  C
  C790     1.0000 0.80330  0.28237  0.09190  Biso   1.000  C
  C791     1.0000 0.30330  0.71763  0.40810  Biso   1.000  C
  C792     1.0000 0.19670  0.28237  0.40810  Biso   1.000  C
  C793     1.0000 0.80330  0.78237  0.90810  Biso   1.000  C
  C794     1.0000 0.30330  0.28237  0.90810  Biso   1.000  C
  C795     1.0000 0.69670  0.21763  0.90810  Biso   1.000  C
  C796     1.0000 0.19670  0.78237  0.59190  Biso   1.000  C
  C797     1.0000 0.30330  0.21763  0.59190  Biso   1.000  C
  C798     1.0000 0.19670  0.71763  0.90810  Biso   1.000  C
  C799     1.0000 0.69670  0.28237  0.59190  Biso   1.000  C
  C800     1.0000 0.80330  0.71763  0.59190  Biso   1.000  C
  H657     1.0000 0.20960  0.19390  0.09970  Biso   1.000  H
  H658     1.0000 0.70960  0.69390  0.09970  Biso   1.000  H
  H659     1.0000 0.29040  0.80610  0.09970  Biso   1.000  H
  H660     1.0000 0.79040  0.19390  0.40030  Biso   1.000  H
  H661     1.0000 0.70960  0.80610  0.40030  Biso   1.000  H
  H662     1.0000 0.79040  0.30610  0.09970  Biso   1.000  H
  H663     1.0000 0.29040  0.69390  0.40030  Biso   1.000  H
  H664     1.0000 0.20960  0.30610  0.40030  Biso   1.000  H
  H665     1.0000 0.79040  0.80610  0.90030  Biso   1.000  H
  H666     1.0000 0.29040  0.30610  0.90030  Biso   1.000  H
  H667     1.0000 0.70960  0.19390  0.90030  Biso   1.000  H
  H668     1.0000 0.20960  0.80610  0.59970  Biso   1.000  H
  H669     1.0000 0.29040  0.19390  0.59970  Biso   1.000  H
  H670     1.0000 0.20960  0.69390  0.90030  Biso   1.000  H
  H671     1.0000 0.70960  0.30610  0.59970  Biso   1.000  H
  H672     1.0000 0.79040  0.69390  0.59970  Biso   1.000  H
