data_image0
_cell_length_a       12.9511
_cell_length_b       25.203
_cell_length_c       23.7355
_cell_angle_alpha    70.616
_cell_angle_beta     85.658
_cell_angle_gamma    87.387

_symmetry_space_group_name_H-M    "P 1"
_symmetry_int_tables_number       1

loop_
  _symmetry_equiv_pos_as_xyz
  'x, y, z'

loop_
  _atom_site_label
  _atom_site_occupancy
  _atom_site_fract_x
  _atom_site_fract_y
  _atom_site_fract_z
  _atom_site_thermal_displace_type
  _atom_site_B_iso_or_equiv
  _atom_site_type_symbol
  W1       1.0000 0.07238  0.65754  0.40867  Biso   1.000  W
  W2       1.0000 0.92762  0.34246  0.59133  Biso   1.000  W
  W3       1.0000 0.90710  0.62703  0.32155  Biso   1.000  W
  W4       1.0000 0.09290  0.37297  0.67845  Biso   1.000  W
  W5       1.0000 0.91136  0.75761  0.32747  Biso   1.000  W
  W6       1.0000 0.08864  0.24239  0.67253  Biso   1.000  W
  W7       1.0000 0.29172  0.59859  0.33518  Biso   1.000  W
  W8       1.0000 0.70828  0.40141  0.66482  Biso   1.000  W
  W9       1.0000 0.12581  0.57218  0.24638  Biso   1.000  W
  W10      1.0000 0.87419  0.42782  0.75362  Biso   1.000  W
  W11      1.0000 0.95040  0.68402  0.15291  Biso   1.000  W
  W12      1.0000 0.04960  0.31598  0.84709  Biso   1.000  W
  W13      1.0000 0.95876  0.81351  0.15762  Biso   1.000  W
  W14      1.0000 0.04124  0.18649  0.84238  Biso   1.000  W
  W15      1.0000 0.14105  0.84324  0.26082  Biso   1.000  W
  W16      1.0000 0.85895  0.15676  0.73918  Biso   1.000  W
  W17      1.0000 0.30380  0.74400  0.33943  Biso   1.000  W
  W18      1.0000 0.69620  0.25600  0.66057  Biso   1.000  W
  W19      1.0000 0.33400  0.65140  0.18378  Biso   1.000  W
  W20      1.0000 0.66600  0.34860  0.81622  Biso   1.000  W
  W21      1.0000 0.33829  0.79685  0.18790  Biso   1.000  W
  W22      1.0000 0.66171  0.20315  0.81210  Biso   1.000  W
  W23      1.0000 0.44012  0.82514  0.59992  Biso   1.000  W
  W24      1.0000 0.55988  0.17486  0.40008  Biso   1.000  W
  W25      1.0000 0.61914  0.86359  0.67261  Biso   1.000  W
  W26      1.0000 0.38086  0.13641  0.32739  Biso   1.000  W
  W27      1.0000 0.60208  0.72848  0.68366  Biso   1.000  W
  W28      1.0000 0.39792  0.27152  0.31634  Biso   1.000  W
  W29      1.0000 0.22878  0.89118  0.67225  Biso   1.000  W
  W30      1.0000 0.77122  0.10882  0.32775  Biso   1.000  W
  W31      1.0000 0.41036  0.93084  0.74317  Biso   1.000  W
  W32      1.0000 0.58964  0.06916  0.25683  Biso   1.000  W
  W33      1.0000 0.59133  0.82491  0.84111  Biso   1.000  W
  W34      1.0000 0.40867  0.17509  0.15889  Biso   1.000  W
  W35      1.0000 0.57882  0.68962  0.85275  Biso   1.000  W
  W36      1.0000 0.42118  0.31038  0.14725  Biso   1.000  W
  W37      1.0000 0.37776  0.64655  0.76936  Biso   1.000  W
  W38      1.0000 0.62224  0.35345  0.23064  Biso   1.000  W
  W39      1.0000 0.21498  0.74069  0.68422  Biso   1.000  W
  W40      1.0000 0.78502  0.25931  0.31578  Biso   1.000  W
  W41      1.0000 0.20944  0.85513  0.82384  Biso   1.000  W
  W42      1.0000 0.79056  0.14487  0.17616  Biso   1.000  W
  W43      1.0000 0.19374  0.70604  0.83657  Biso   1.000  W
  W44      1.0000 0.80626  0.29396  0.16343  Biso   1.000  W
  Eu1      1.0000 0.16632  0.76930  0.06942  Biso   1.000  Eu
  Eu2      1.0000 0.83368  0.23070  0.93058  Biso   1.000  Eu
  Eu3      1.0000 0.38319  0.74337  0.93956  Biso   1.000  Eu
  Eu4      1.0000 0.61681  0.25663  0.06044  Biso   1.000  Eu
  Ge1      1.0000 0.12111  0.71035  0.24844  Biso   1.000  Ge
  Ge2      1.0000 0.87889  0.28965  0.75156  Biso   1.000  Ge
  Ge3      1.0000 0.40775  0.78659  0.76053  Biso   1.000  Ge
  Ge4      1.0000 0.59225  0.21341  0.23947  Biso   1.000  Ge
  Cu1      1.0000 0.49258  0.49767  0.80763  Biso   1.000  Cu
  Cu2      1.0000 0.50742  0.50233  0.19237  Biso   1.000  Cu
  Cu3      1.0000 0.10374  0.99570  0.18621  Biso   1.000  Cu
  Cu4      1.0000 0.89626  0.00430  0.81379  Biso   1.000  Cu
  Cu5      1.0000 0.62457  0.81029  0.14837  Biso   1.000  Cu
  Cu6      1.0000 0.37543  0.18971  0.85163  Biso   1.000  Cu
  Cu7      1.0000 0.91482  0.69451  0.85328  Biso   1.000  Cu
  Cu8      1.0000 0.08518  0.30549  0.14672  Biso   1.000  Cu
  N1       1.0000 0.60480  0.73030  0.15450  Biso   1.000  N
  N2       1.0000 0.39520  0.26970  0.84550  Biso   1.000  N
  H1       1.0000 0.53340  0.72610  0.15760  Biso   1.000  H
  H2       1.0000 0.46660  0.27390  0.84240  Biso   1.000  H
  C1       1.0000 0.64240  0.71160  0.10460  Biso   1.000  C
  C2       1.0000 0.35760  0.28840  0.89540  Biso   1.000  C
  H3       1.0000 0.61970  0.67270  0.11270  Biso   1.000  H
  H4       1.0000 0.38030  0.32730  0.88730  Biso   1.000  H
  H5       1.0000 0.71900  0.71100  0.10200  Biso   1.000  H
  H6       1.0000 0.28100  0.28900  0.89800  Biso   1.000  H
  C3       1.0000 0.60530  0.74790  0.04560  Biso   1.000  C
  C4       1.0000 0.39470  0.25210  0.95440  Biso   1.000  C
  H7       1.0000 0.52890  0.75140  0.04980  Biso   1.000  H
  H8       1.0000 0.47110  0.24860  0.95020  Biso   1.000  H
  H9       1.0000 0.62250  0.72830  0.01610  Biso   1.000  H
  H10      1.0000 0.37750  0.27170  0.98390  Biso   1.000  H
  C5       1.0000 0.64850  0.80610  0.02070  Biso   1.000  C
  C6       1.0000 0.35150  0.19390  0.97930  Biso   1.000  C
  H11      1.0000 0.72500  0.80400  0.02060  Biso   1.000  H
  H12      1.0000 0.27500  0.19600  0.97940  Biso   1.000  H
  H13      1.0000 0.62910  0.82420  0.97900  Biso   1.000  H
  H14      1.0000 0.37090  0.17580  0.02100  Biso   1.000  H
  N3       1.0000 0.60650  0.83930  0.05800  Biso   1.000  N
  N4       1.0000 0.39350  0.16070  0.94200  Biso   1.000  N
  H15      1.0000 0.53530  0.84180  0.05400  Biso   1.000  H
  H16      1.0000 0.46470  0.15820  0.94600  Biso   1.000  H
  C7       1.0000 0.64300  0.89810  0.03350  Biso   1.000  C
  C8       1.0000 0.35700  0.10190  0.96650  Biso   1.000  C
  H17      1.0000 0.61020  0.91830  0.99570  Biso   1.000  H
  H18      1.0000 0.38980  0.08170  0.00430  Biso   1.000  H
  H19      1.0000 0.71910  0.89820  0.02500  Biso   1.000  H
  H20      1.0000 0.28090  0.10180  0.97500  Biso   1.000  H
  C9       1.0000 0.61360  0.92720  0.08010  Biso   1.000  C
  C10      1.0000 0.38640  0.07280  0.91990  Biso   1.000  C
  H21      1.0000 0.64470  0.96490  0.06740  Biso   1.000  H
  H22      1.0000 0.35530  0.03510  0.93260  Biso   1.000  H
  H23      1.0000 0.53740  0.93200  0.08430  Biso   1.000  H
  H24      1.0000 0.46260  0.06800  0.91570  Biso   1.000  H
  N5       1.0000 0.65300  0.89150  0.13790  Biso   1.000  N
  N6       1.0000 0.34700  0.10850  0.86210  Biso   1.000  N
  H25      1.0000 0.72460  0.89450  0.13310  Biso   1.000  H
  H26      1.0000 0.27540  0.10550  0.86690  Biso   1.000  H
  C11      1.0000 0.62090  0.91050  0.18810  Biso   1.000  C
  C12      1.0000 0.37910  0.08950  0.81190  Biso   1.000  C
  H27      1.0000 0.54430  0.90990  0.19370  Biso   1.000  H
  H28      1.0000 0.45570  0.09010  0.80630  Biso   1.000  H
  H29      1.0000 0.64230  0.94980  0.17860  Biso   1.000  H
  H30      1.0000 0.35770  0.05020  0.82140  Biso   1.000  H
  C13      1.0000 0.66500  0.87550  0.24480  Biso   1.000  C
  C14      1.0000 0.33500  0.12450  0.75520  Biso   1.000  C
  H31      1.0000 0.64880  0.89420  0.27520  Biso   1.000  H
  H32      1.0000 0.35120  0.10580  0.72480  Biso   1.000  H
  H33      1.0000 0.74130  0.87410  0.23810  Biso   1.000  H
  H34      1.0000 0.25870  0.12590  0.76190  Biso   1.000  H
  C15      1.0000 0.62700  0.81590  0.27000  Biso   1.000  C
  C16      1.0000 0.37300  0.18410  0.73000  Biso   1.000  C
  H35      1.0000 0.65200  0.79850  0.31070  Biso   1.000  H
  H36      1.0000 0.34800  0.20150  0.68930  Biso   1.000  H
  H37      1.0000 0.55040  0.81720  0.27410  Biso   1.000  H
  H38      1.0000 0.44960  0.18280  0.72590  Biso   1.000  H
  N7       1.0000 0.65960  0.77970  0.23450  Biso   1.000  N
  N8       1.0000 0.34040  0.22030  0.76550  Biso   1.000  N
  H39      1.0000 0.73140  0.77680  0.23420  Biso   1.000  H
  H40      1.0000 0.26860  0.22320  0.76580  Biso   1.000  H
  C17      1.0000 0.62160  0.72170  0.25930  Biso   1.000  C
  C18      1.0000 0.37840  0.27830  0.74070  Biso   1.000  C
  H41      1.0000 0.54670  0.72230  0.27100  Biso   1.000  H
  H42      1.0000 0.45330  0.27770  0.72900  Biso   1.000  H
  H43      1.0000 0.65860  0.70050  0.29530  Biso   1.000  H
  H44      1.0000 0.34140  0.29950  0.70470  Biso   1.000  H
  C19      1.0000 0.64040  0.69390  0.21250  Biso   1.000  C
  C20      1.0000 0.35960  0.30610  0.78750  Biso   1.000  C
  H45      1.0000 0.71530  0.68540  0.20790  Biso   1.000  H
  H46      1.0000 0.28470  0.31460  0.79210  Biso   1.000  H
  H47      1.0000 0.60330  0.65800  0.22530  Biso   1.000  H
  H48      1.0000 0.39670  0.34200  0.77470  Biso   1.000  H
  N9       1.0000 0.22820  0.97940  0.13580  Biso   1.000  N
  N10      1.0000 0.77180  0.02060  0.86420  Biso   1.000  N
  H49      1.0000 0.24370  0.94140  0.15340  Biso   1.000  H
  H50      1.0000 0.75630  0.05860  0.84660  Biso   1.000  H
  N11      1.0000 0.00400  0.96800  0.14260  Biso   1.000  N
  N12      1.0000 0.99600  0.03200  0.85740  Biso   1.000  N
  H51      1.0000 0.00500  0.92900  0.15990  Biso   1.000  H
  H52      1.0000 0.99500  0.07100  0.84010  Biso   1.000  H
  N13      1.0000 0.97970  0.01340  0.23190  Biso   1.000  N
  N14      1.0000 0.02030  0.98660  0.76810  Biso   1.000  N
  H53      1.0000 0.96430  0.05160  0.21510  Biso   1.000  H
  H54      1.0000 0.03570  0.94840  0.78490  Biso   1.000  H
  N15      1.0000 0.20480  0.02940  0.22270  Biso   1.000  N
  N16      1.0000 0.79520  0.97060  0.77730  Biso   1.000  N
  H55      1.0000 0.20300  0.06810  0.20320  Biso   1.000  H
  H56      1.0000 0.79700  0.93190  0.79680  Biso   1.000  H
  N17      1.0000 0.61600  0.53970  0.81700  Biso   1.000  N
  N18      1.0000 0.38400  0.46030  0.18300  Biso   1.000  N
  H57      1.0000 0.59110  0.57330  0.82170  Biso   1.000  H
  H58      1.0000 0.40890  0.42670  0.17830  Biso   1.000  H
  N19      1.0000 0.44420  0.48150  0.89570  Biso   1.000  N
  N20      1.0000 0.55580  0.51850  0.10430  Biso   1.000  N
  H59      1.0000 0.41890  0.51540  0.89940  Biso   1.000  H
  H60      1.0000 0.58110  0.48460  0.10060  Biso   1.000  H
  N21      1.0000 0.37500  0.45110  0.80540  Biso   1.000  N
  N22      1.0000 0.62500  0.54890  0.19460  Biso   1.000  N
  H61      1.0000 0.39920  0.41410  0.81530  Biso   1.000  H
  H62      1.0000 0.60080  0.58590  0.18470  Biso   1.000  H
  N23      1.0000 0.55050  0.50980  0.72410  Biso   1.000  N
  N24      1.0000 0.44950  0.49020  0.27590  Biso   1.000  N
  H63      1.0000 0.59310  0.47870  0.72540  Biso   1.000  H
  H64      1.0000 0.40690  0.52130  0.27460  Biso   1.000  H
  N25      1.0000 0.93850  0.77190  0.79090  Biso   1.000  N
  N26      1.0000 0.06150  0.22810  0.20910  Biso   1.000  N
  H65      1.0000 0.00830  0.77440  0.77790  Biso   1.000  H
  H66      1.0000 0.99170  0.22560  0.22210  Biso   1.000  H
  N27      1.0000 0.94390  0.65730  0.79000  Biso   1.000  N
  N28      1.0000 0.05610  0.34270  0.21000  Biso   1.000  N
  H67      1.0000 0.01220  0.66390  0.77500  Biso   1.000  H
  H68      1.0000 0.98780  0.33610  0.22500  Biso   1.000  H
  N29      1.0000 0.88110  0.61640  0.90690  Biso   1.000  N
  N30      1.0000 0.11890  0.38360  0.09310  Biso   1.000  N
  H69      1.0000 0.81240  0.61040  0.90220  Biso   1.000  H
  H70      1.0000 0.18760  0.38960  0.09780  Biso   1.000  H
  N31      1.0000 0.86880  0.73490  0.90700  Biso   1.000  N
  N32      1.0000 0.13120  0.26510  0.09300  Biso   1.000  N
  H71      1.0000 0.79880  0.74350  0.90170  Biso   1.000  H
  H72      1.0000 0.20120  0.25650  0.09830  Biso   1.000  H
  C21      1.0000 0.30580  0.84960  0.98610  Biso   1.000  C
  C22      1.0000 0.69420  0.15040  0.01390  Biso   1.000  C
  C23      1.0000 0.24220  0.66610  0.01950  Biso   1.000  C
  C24      1.0000 0.75780  0.33390  0.98050  Biso   1.000  C
  C25      1.0000 0.37420  0.89760  0.94780  Biso   1.000  C
  C26      1.0000 0.62580  0.10240  0.05220  Biso   1.000  C
  H73      1.0000 0.44130  0.89430  0.96530  Biso   1.000  H
  H74      1.0000 0.55870  0.10570  0.03470  Biso   1.000  H
  H75      1.0000 0.34060  0.93360  0.94630  Biso   1.000  H
  H76      1.0000 0.65940  0.06640  0.05370  Biso   1.000  H
  H77      1.0000 0.38470  0.89570  0.90720  Biso   1.000  H
  H78      1.0000 0.61530  0.10430  0.09280  Biso   1.000  H
  C27      1.0000 0.16570  0.61970  0.04760  Biso   1.000  C
  C28      1.0000 0.83430  0.38030  0.95240  Biso   1.000  C
  H79      1.0000 0.15710  0.61280  0.09080  Biso   1.000  H
  H80      1.0000 0.84290  0.38720  0.90920  Biso   1.000  H
  H81      1.0000 0.19160  0.58530  0.04030  Biso   1.000  H
  H82      1.0000 0.80840  0.41470  0.95970  Biso   1.000  H
  H83      1.0000 0.09880  0.63100  0.02990  Biso   1.000  H
  H84      1.0000 0.90120  0.36900  0.97010  Biso   1.000  H
  C29      1.0000 0.21400  0.98690  0.07240  Biso   1.000  C
  C30      1.0000 0.78600  0.01310  0.92760  Biso   1.000  C
  H85      1.0000 0.20090  0.02730  0.05060  Biso   1.000  H
  H86      1.0000 0.79910  0.97270  0.94940  Biso   1.000  H
  H87      1.0000 0.27840  0.97520  0.05430  Biso   1.000  H
  H88      1.0000 0.72160  0.02480  0.94570  Biso   1.000  H
  C31      1.0000 0.12710  0.95450  0.06420  Biso   1.000  C
  C32      1.0000 0.87290  0.04550  0.93580  Biso   1.000  C
  H89      1.0000 0.13300  0.91510  0.09120  Biso   1.000  H
  H90      1.0000 0.86700  0.08490  0.90880  Biso   1.000  H
  H91      1.0000 0.13190  0.95400  0.02250  Biso   1.000  H
  H92      1.0000 0.86810  0.04600  0.97750  Biso   1.000  H
  C33      1.0000 0.02260  0.97920  0.07700  Biso   1.000  C
  C34      1.0000 0.97740  0.02080  0.92300  Biso   1.000  C
  H93      1.0000 0.02100  0.02020  0.05570  Biso   1.000  H
  H94      1.0000 0.97900  0.97980  0.94430  Biso   1.000  H
  H95      1.0000 0.96730  0.96210  0.06250  Biso   1.000  H
  H96      1.0000 0.03270  0.03790  0.93750  Biso   1.000  H
  C35      1.0000 0.89520  0.98750  0.15820  Biso   1.000  C
  C36      1.0000 0.10480  0.01250  0.84180  Biso   1.000  C
  H97      1.0000 0.88200  0.02720  0.13350  Biso   1.000  H
  H98      1.0000 0.11800  0.97280  0.86650  Biso   1.000  H
  H99      1.0000 0.84210  0.96380  0.15110  Biso   1.000  H
  H100     1.0000 0.15790  0.03620  0.84890  Biso   1.000  H
  C37      1.0000 0.89220  0.98190  0.22280  Biso   1.000  C
  C38      1.0000 0.10780  0.01810  0.77720  Biso   1.000  C
  H101     1.0000 0.82570  0.99720  0.23490  Biso   1.000  H
  H102     1.0000 0.17430  0.00280  0.76510  Biso   1.000  H
  H103     1.0000 0.89840  0.94170  0.24750  Biso   1.000  H
  H104     1.0000 0.10160  0.05830  0.75250  Biso   1.000  H
  C39      1.0000 0.98860  0.00130  0.29600  Biso   1.000  C
  C40      1.0000 0.01140  0.99870  0.70400  Biso   1.000  C
  H105     1.0000 0.00290  0.96060  0.31520  Biso   1.000  H
  H106     1.0000 0.99710  0.03940  0.68480  Biso   1.000  H
  H107     1.0000 0.92210  0.01090  0.31420  Biso   1.000  H
  H108     1.0000 0.07790  0.98910  0.68580  Biso   1.000  H
  C41      1.0000 0.07590  0.03510  0.30800  Biso   1.000  C
  C42      1.0000 0.92410  0.96490  0.69200  Biso   1.000  C
  H109     1.0000 0.07510  0.02820  0.35160  Biso   1.000  H
  H110     1.0000 0.92490  0.97180  0.64840  Biso   1.000  H
  H111     1.0000 0.06150  0.07570  0.28820  Biso   1.000  H
  H112     1.0000 0.93850  0.92430  0.71180  Biso   1.000  H
  C43      1.0000 0.18730  0.02000  0.28550  Biso   1.000  C
  C44      1.0000 0.81270  0.98000  0.71450  Biso   1.000  C
  H113     1.0000 0.23800  0.04210  0.29710  Biso   1.000  H
  H114     1.0000 0.76200  0.95790  0.70290  Biso   1.000  H
  H115     1.0000 0.20220  0.97980  0.30710  Biso   1.000  H
  H116     1.0000 0.79780  0.02020  0.69290  Biso   1.000  H
  C45      1.0000 0.31090  0.00710  0.20720  Biso   1.000  C
  C46      1.0000 0.68910  0.99290  0.79280  Biso   1.000  C
  H117     1.0000 0.36580  0.03010  0.21380  Biso   1.000  H
  H118     1.0000 0.63420  0.96990  0.78620  Biso   1.000  H
  H119     1.0000 0.32110  0.96780  0.23360  Biso   1.000  H
  H120     1.0000 0.67890  0.03220  0.76640  Biso   1.000  H
  C47      1.0000 0.31800  0.00930  0.14590  Biso   1.000  C
  C48      1.0000 0.68200  0.99070  0.85410  Biso   1.000  C
  H121     1.0000 0.38370  0.99120  0.13700  Biso   1.000  H
  H122     1.0000 0.61630  0.00880  0.86300  Biso   1.000  H
  H123     1.0000 0.31710  0.04900  0.11920  Biso   1.000  H
  H124     1.0000 0.68290  0.95100  0.88080  Biso   1.000  H
  C49      1.0000 0.67470  0.51040  0.86840  Biso   1.000  C
  C50      1.0000 0.32530  0.48960  0.13160  Biso   1.000  C
  H125     1.0000 0.73690  0.53230  0.86730  Biso   1.000  H
  H126     1.0000 0.26310  0.46770  0.13270  Biso   1.000  H
  H127     1.0000 0.69840  0.47330  0.86600  Biso   1.000  H
  H128     1.0000 0.30160  0.52670  0.13400  Biso   1.000  H
  C51      1.0000 0.61270  0.50190  0.92720  Biso   1.000  C
  C52      1.0000 0.38730  0.49810  0.07280  Biso   1.000  C
  H129     1.0000 0.66010  0.48850  0.96010  Biso   1.000  H
  H130     1.0000 0.33990  0.51150  0.03990  Biso   1.000  H
  H131     1.0000 0.58260  0.53860  0.92750  Biso   1.000  H
  H132     1.0000 0.41740  0.46140  0.07250  Biso   1.000  H
  C53      1.0000 0.52670  0.46070  0.93880  Biso   1.000  C
  C54      1.0000 0.47330  0.53930  0.06120  Biso   1.000  C
  H133     1.0000 0.55580  0.42460  0.93600  Biso   1.000  H
  H134     1.0000 0.44420  0.57540  0.06400  Biso   1.000  H
  H135     1.0000 0.49570  0.45350  0.98000  Biso   1.000  H
  H136     1.0000 0.50430  0.54650  0.02000  Biso   1.000  H
  C55      1.0000 0.35570  0.44410  0.90800  Biso   1.000  C
  C56      1.0000 0.64430  0.55590  0.09200  Biso   1.000  C
  H137     1.0000 0.30920  0.45020  0.94040  Biso   1.000  H
  H138     1.0000 0.69080  0.54980  0.05960  Biso   1.000  H
  H139     1.0000 0.38090  0.40450  0.92180  Biso   1.000  H
  H140     1.0000 0.61910  0.59550  0.07820  Biso   1.000  H
  C57      1.0000 0.29750  0.45430  0.85440  Biso   1.000  C
  C58      1.0000 0.70250  0.54570  0.14560  Biso   1.000  C
  H141     1.0000 0.26290  0.49190  0.84350  Biso   1.000  H
  H142     1.0000 0.73710  0.50810  0.15650  Biso   1.000  H
  H143     1.0000 0.24410  0.42550  0.86170  Biso   1.000  H
  H144     1.0000 0.75590  0.57450  0.13830  Biso   1.000  H
  C59      1.0000 0.32240  0.46510  0.74710  Biso   1.000  C
  C60      1.0000 0.67760  0.53490  0.25290  Biso   1.000  C
  H145     1.0000 0.27060  0.43620  0.75090  Biso   1.000  H
  H146     1.0000 0.72940  0.56380  0.24910  Biso   1.000  H
  H147     1.0000 0.28560  0.50190  0.73880  Biso   1.000  H
  H148     1.0000 0.71440  0.49810  0.26120  Biso   1.000  H
  C61      1.0000 0.40000  0.46720  0.69620  Biso   1.000  C
  C62      1.0000 0.60000  0.53280  0.30380  Biso   1.000  C
  H149     1.0000 0.36180  0.47020  0.66060  Biso   1.000  H
  H150     1.0000 0.63820  0.52980  0.33940  Biso   1.000  H
  H151     1.0000 0.43970  0.43120  0.70670  Biso   1.000  H
  H152     1.0000 0.56030  0.56880  0.29330  Biso   1.000  H
  C63      1.0000 0.47680  0.51510  0.67880  Biso   1.000  C
  C64      1.0000 0.52320  0.48490  0.32120  Biso   1.000  C
  H153     1.0000 0.51560  0.51630  0.64090  Biso   1.000  H
  H154     1.0000 0.48440  0.48370  0.35910  Biso   1.000  H
  H155     1.0000 0.43770  0.55120  0.67160  Biso   1.000  H
  H156     1.0000 0.56230  0.44880  0.32840  Biso   1.000  H
  C65      1.0000 0.61910  0.55950  0.70740  Biso   1.000  C
  C66      1.0000 0.38090  0.44050  0.29260  Biso   1.000  C
  H157     1.0000 0.66540  0.56050  0.67190  Biso   1.000  H
  H158     1.0000 0.33460  0.43950  0.32810  Biso   1.000  H
  H159     1.0000 0.57670  0.59470  0.69740  Biso   1.000  H
  H160     1.0000 0.42330  0.40530  0.30260  Biso   1.000  H
  C67      1.0000 0.68120  0.55430  0.75910  Biso   1.000  C
  C68      1.0000 0.31880  0.44570  0.24090  Biso   1.000  C
  H161     1.0000 0.71580  0.59040  0.75220  Biso   1.000  H
  H162     1.0000 0.28420  0.40960  0.24780  Biso   1.000  H
  H163     1.0000 0.73570  0.52490  0.76200  Biso   1.000  H
  H164     1.0000 0.26430  0.47510  0.23800  Biso   1.000  H
  C69      1.0000 0.87650  0.78270  0.73800  Biso   1.000  C
  C70      1.0000 0.12350  0.21730  0.26200  Biso   1.000  C
  H165     1.0000 0.89150  0.82070  0.70960  Biso   1.000  H
  H166     1.0000 0.10850  0.17930  0.29040  Biso   1.000  H
  H167     1.0000 0.80190  0.78200  0.75100  Biso   1.000  H
  H168     1.0000 0.19810  0.21800  0.24900  Biso   1.000  H
  C71      1.0000 0.89980  0.73870  0.70570  Biso   1.000  C
  C72      1.0000 0.10020  0.26130  0.29430  Biso   1.000  C
  H169     1.0000 0.85970  0.74960  0.66960  Biso   1.000  H
  H170     1.0000 0.14030  0.25040  0.33040  Biso   1.000  H
  H171     1.0000 0.97420  0.74060  0.69220  Biso   1.000  H
  H172     1.0000 0.02580  0.25940  0.30780  Biso   1.000  H
  C73      1.0000 0.87670  0.68010  0.74090  Biso   1.000  C
  C74      1.0000 0.12330  0.31990  0.25910  Biso   1.000  C
  H173     1.0000 0.80370  0.67800  0.75720  Biso   1.000  H
  H174     1.0000 0.19630  0.32200  0.24280  Biso   1.000  H
  H175     1.0000 0.88470  0.65690  0.71440  Biso   1.000  H
  H176     1.0000 0.11530  0.34310  0.28560  Biso   1.000  H
  C75      1.0000 0.93140  0.59800  0.81640  Biso   1.000  C
  C76      1.0000 0.06860  0.40200  0.18360  Biso   1.000  C
  H177     1.0000 0.98300  0.57830  0.79700  Biso   1.000  H
  H178     1.0000 0.01700  0.42170  0.20300  Biso   1.000  H
  H179     1.0000 0.86150  0.58820  0.80920  Biso   1.000  H
  H180     1.0000 0.13850  0.41180  0.19080  Biso   1.000  H
  C77      1.0000 0.94500  0.57720  0.88530  Biso   1.000  C
  C78      1.0000 0.05500  0.42280  0.11470  Biso   1.000  C
  H181     1.0000 0.92080  0.53820  0.90440  Biso   1.000  H
  H182     1.0000 0.07920  0.46180  0.09560  Biso   1.000  H
  H183     1.0000 0.01840  0.57860  0.89360  Biso   1.000  H
  H184     1.0000 0.98160  0.42140  0.10640  Biso   1.000  H
  C79      1.0000 0.89140  0.60560  0.97270  Biso   1.000  C
  C80      1.0000 0.10860  0.39440  0.02730  Biso   1.000  C
  H185     1.0000 0.86630  0.56740  0.99570  Biso   1.000  H
  H186     1.0000 0.13370  0.43260  0.00430  Biso   1.000  H
  H187     1.0000 0.96540  0.60660  0.97990  Biso   1.000  H
  H188     1.0000 0.03460  0.39340  0.02010  Biso   1.000  H
  C81      1.0000 0.83250  0.64720  0.99440  Biso   1.000  C
  C82      1.0000 0.16750  0.35280  0.00560  Biso   1.000  C
  H189     1.0000 0.82810  0.63320  0.03870  Biso   1.000  H
  H190     1.0000 0.17190  0.36680  0.96130  Biso   1.000  H
  H191     1.0000 0.76110  0.65020  0.98130  Biso   1.000  H
  H192     1.0000 0.23890  0.34980  0.01870  Biso   1.000  H
  C83      1.0000 0.87900  0.70610  0.97260  Biso   1.000  C
  C84      1.0000 0.12100  0.29390  0.02740  Biso   1.000  C
  H193     1.0000 0.84330  0.72920  0.99500  Biso   1.000  H
  H194     1.0000 0.15670  0.27080  0.00500  Biso   1.000  H
  H195     1.0000 0.95310  0.70290  0.98100  Biso   1.000  H
  H196     1.0000 0.04690  0.29710  0.01900  Biso   1.000  H
  C85      1.0000 0.92390  0.78950  0.88750  Biso   1.000  C
  C86      1.0000 0.07610  0.21050  0.11250  Biso   1.000  C
  H197     1.0000 0.99760  0.78320  0.89660  Biso   1.000  H
  H198     1.0000 0.00240  0.21680  0.10340  Biso   1.000  H
  H199     1.0000 0.89160  0.81490  0.90820  Biso   1.000  H
  H200     1.0000 0.10840  0.18510  0.09180  Biso   1.000  H
  C87      1.0000 0.91410  0.81480  0.82030  Biso   1.000  C
  C88      1.0000 0.08590  0.18520  0.17970  Biso   1.000  C
  H201     1.0000 0.84270  0.82960  0.81240  Biso   1.000  H
  H202     1.0000 0.15730  0.17040  0.18760  Biso   1.000  H
  H203     1.0000 0.96210  0.84650  0.80350  Biso   1.000  H
  H204     1.0000 0.03790  0.15350  0.19650  Biso   1.000  H
  O1       1.0000 0.08230  0.63220  0.48490  Biso   1.000  O
  O2       1.0000 0.91770  0.36780  0.51510  Biso   1.000  O
  O3       1.0000 0.80870  0.57960  0.34300  Biso   1.000  O
  O4       1.0000 0.19130  0.42040  0.65700  Biso   1.000  O
  O5       1.0000 0.81960  0.79600  0.35380  Biso   1.000  O
  O6       1.0000 0.18040  0.20400  0.64620  Biso   1.000  O
  O7       1.0000 0.36600  0.55340  0.38890  Biso   1.000  O
  O8       1.0000 0.63400  0.44660  0.61110  Biso   1.000  O
  O9       1.0000 0.09370  0.50940  0.24220  Biso   1.000  O
  O10      1.0000 0.90630  0.49060  0.75780  Biso   1.000  O
  O11      1.0000 0.85600  0.64840  0.13390  Biso   1.000  O
  O12      1.0000 0.14400  0.35160  0.86610  Biso   1.000  O
  O13      1.0000 0.86900  0.86890  0.14000  Biso   1.000  O
  O14      1.0000 0.13100  0.13110  0.86000  Biso   1.000  O
  O15      1.0000 0.11830  0.91260  0.25830  Biso   1.000  O
  O16      1.0000 0.88170  0.08740  0.74170  Biso   1.000  O
  O17      1.0000 0.37920  0.74630  0.39480  Biso   1.000  O
  O18      1.0000 0.62080  0.25370  0.60520  Biso   1.000  O
  O19      1.0000 0.44500  0.63490  0.14660  Biso   1.000  O
  O20      1.0000 0.55500  0.36510  0.85340  Biso   1.000  O
  O21      1.0000 0.45010  0.83030  0.15170  Biso   1.000  O
  O22      1.0000 0.54990  0.16970  0.84830  Biso   1.000  O
  O23      1.0000 0.96560  0.61200  0.39980  Biso   1.000  O
  O24      1.0000 0.03440  0.38800  0.60020  Biso   1.000  O
  O25      1.0000 0.97150  0.71700  0.40370  Biso   1.000  O
  O26      1.0000 0.02850  0.28300  0.59630  Biso   1.000  O
  O27      1.0000 0.17250  0.61110  0.38090  Biso   1.000  O
  O28      1.0000 0.82750  0.38890  0.61910  Biso   1.000  O
  O29      1.0000 0.17910  0.71290  0.38560  Biso   1.000  O
  O30      1.0000 0.82090  0.28710  0.61440  Biso   1.000  O
  O31      1.0000 0.37450  0.71910  0.19770  Biso   1.000  O
  O32      1.0000 0.62550  0.28090  0.80230  Biso   1.000  O
  O33      1.0000 0.83650  0.69080  0.33890  Biso   1.000  O
  O34      1.0000 0.16350  0.30920  0.66110  Biso   1.000  O
  O35      1.0000 0.02150  0.58220  0.30290  Biso   1.000  O
  O36      1.0000 0.97850  0.41780  0.69710  Biso   1.000  O
  O37      1.0000 0.89820  0.66160  0.24010  Biso   1.000  O
  O38      1.0000 0.10180  0.33840  0.75990  Biso   1.000  O
  O39      1.0000 0.90020  0.78220  0.24630  Biso   1.000  O
  O40      1.0000 0.09980  0.21780  0.75370  Biso   1.000  O
  O41      1.0000 0.03080  0.80430  0.31280  Biso   1.000  O
  O42      1.0000 0.96920  0.19570  0.68720  Biso   1.000  O
  O43      1.0000 0.38010  0.60880  0.26660  Biso   1.000  O
  O44      1.0000 0.61990  0.39120  0.73340  Biso   1.000  O
  O45      1.0000 0.21520  0.54590  0.31350  Biso   1.000  O
  O46      1.0000 0.78480  0.45410  0.68650  Biso   1.000  O
  O47      1.0000 0.33210  0.67220  0.33610  Biso   1.000  O
  O48      1.0000 0.66790  0.32780  0.66390  Biso   1.000  O
  O49      1.0000 0.25200  0.58460  0.19590  Biso   1.000  O
  O50      1.0000 0.74800  0.41540  0.80410  Biso   1.000  O
  O51      1.0000 0.05020  0.62370  0.18550  Biso   1.000  O
  O52      1.0000 0.94980  0.37630  0.81450  Biso   1.000  O
  O53      1.0000 0.87760  0.75570  0.14710  Biso   1.000  O
  O54      1.0000 0.12240  0.24430  0.85290  Biso   1.000  O
  O55      1.0000 0.06080  0.84250  0.19570  Biso   1.000  O
  O56      1.0000 0.93920  0.15750  0.80430  Biso   1.000  O
  O57      1.0000 0.26350  0.85850  0.20610  Biso   1.000  O
  O58      1.0000 0.73650  0.14150  0.79390  Biso   1.000  O
  O59      1.0000 0.23030  0.81730  0.32450  Biso   1.000  O
  O60      1.0000 0.76970  0.18270  0.67550  Biso   1.000  O
  O61      1.0000 0.38760  0.77850  0.27180  Biso   1.000  O
  O62      1.0000 0.61240  0.22150  0.72820  Biso   1.000  O
  O63      1.0000 0.02360  0.71310  0.08340  Biso   1.000  O
  O64      1.0000 0.97640  0.28690  0.91660  Biso   1.000  O
  O65      1.0000 0.03360  0.82750  0.08880  Biso   1.000  O
  O66      1.0000 0.96640  0.17250  0.91120  Biso   1.000  O
  O67      1.0000 0.25550  0.69270  0.12540  Biso   1.000  O
  O68      1.0000 0.74450  0.30730  0.87460  Biso   1.000  O
  O69      1.0000 0.25710  0.80260  0.12910  Biso   1.000  O
  O70      1.0000 0.74290  0.19740  0.87090  Biso   1.000  O
  O71      1.0000 0.03250  0.69350  0.30990  Biso   1.000  O
  O72      1.0000 0.96750  0.30650  0.69010  Biso   1.000  O
  O73      1.0000 0.19920  0.65060  0.25260  Biso   1.000  O
  O74      1.0000 0.80080  0.34940  0.74740  Biso   1.000  O
  O75      1.0000 0.06170  0.73620  0.18110  Biso   1.000  O
  O76      1.0000 0.93830  0.26380  0.81890  Biso   1.000  O
  O77      1.0000 0.20320  0.76010  0.25680  Biso   1.000  O
  O78      1.0000 0.79680  0.23990  0.74320  Biso   1.000  O
  O79      1.0000 0.34710  0.79990  0.00620  Biso   1.000  O
  O80      1.0000 0.65290  0.20010  0.99380  Biso   1.000  O
  O81      1.0000 0.21380  0.85860  0.99660  Biso   1.000  O
  O82      1.0000 0.78620  0.14140  0.00340  Biso   1.000  O
  O83      1.0000 0.42360  0.84410  0.52450  Biso   1.000  O
  O84      1.0000 0.57640  0.15590  0.47550  Biso   1.000  O
  O85      1.0000 0.71690  0.90940  0.64270  Biso   1.000  O
  O86      1.0000 0.28310  0.09060  0.35730  Biso   1.000  O
  O87      1.0000 0.69200  0.68450  0.66200  Biso   1.000  O
  O88      1.0000 0.30800  0.31550  0.33800  Biso   1.000  O
  O89      1.0000 0.15150  0.93250  0.61850  Biso   1.000  O
  O90      1.0000 0.84850  0.06750  0.38150  Biso   1.000  O
  O91      1.0000 0.44400  0.99700  0.73800  Biso   1.000  O
  O92      1.0000 0.55600  0.00300  0.26200  Biso   1.000  O
  O93      1.0000 0.69190  0.86130  0.85400  Biso   1.000  O
  O94      1.0000 0.30810  0.13870  0.14600  Biso   1.000  O
  O95      1.0000 0.67150  0.63630  0.87000  Biso   1.000  O
  O96      1.0000 0.32850  0.36370  0.13000  Biso   1.000  O
  O97      1.0000 0.39810  0.57610  0.77680  Biso   1.000  O
  O98      1.0000 0.60190  0.42390  0.22320  Biso   1.000  O
  O99      1.0000 0.13190  0.73290  0.63460  Biso   1.000  O
  O100     1.0000 0.86810  0.26710  0.36540  Biso   1.000  O
  O101     1.0000 0.10300  0.87630  0.86080  Biso   1.000  O
  O102     1.0000 0.89700  0.12370  0.13920  Biso   1.000  O
  O103     1.0000 0.08360  0.67740  0.87880  Biso   1.000  O
  O104     1.0000 0.91640  0.32260  0.12120  Biso   1.000  O
  O105     1.0000 0.54990  0.87170  0.59920  Biso   1.000  O
  O106     1.0000 0.45010  0.12830  0.40080  Biso   1.000  O
  O107     1.0000 0.53690  0.76440  0.60730  Biso   1.000  O
  O108     1.0000 0.46310  0.23560  0.39270  Biso   1.000  O
  O109     1.0000 0.34420  0.87520  0.62350  Biso   1.000  O
  O110     1.0000 0.65580  0.12480  0.37650  Biso   1.000  O
  O111     1.0000 0.33390  0.76990  0.63190  Biso   1.000  O
  O112     1.0000 0.66610  0.23010  0.36810  Biso   1.000  O
  O113     1.0000 0.16380  0.78440  0.81820  Biso   1.000  O
  O114     1.0000 0.83620  0.21560  0.18180  Biso   1.000  O
  O115     1.0000 0.68170  0.79640  0.66160  Biso   1.000  O
  O116     1.0000 0.31830  0.20360  0.33840  Biso   1.000  O
  O117     1.0000 0.51130  0.91350  0.68880  Biso   1.000  O
  O118     1.0000 0.48870  0.08650  0.31120  Biso   1.000  O
  O119     1.0000 0.63760  0.83940  0.75220  Biso   1.000  O
  O120     1.0000 0.36240  0.16060  0.24780  Biso   1.000  O
  O121     1.0000 0.62300  0.71410  0.76250  Biso   1.000  O
  O122     1.0000 0.37700  0.28590  0.23750  Biso   1.000  O
  O123     1.0000 0.48340  0.68140  0.70890  Biso   1.000  O
  O124     1.0000 0.51660  0.31860  0.29110  Biso   1.000  O
  O125     1.0000 0.15120  0.88950  0.74210  Biso   1.000  O
  O126     1.0000 0.84880  0.11050  0.25790  Biso   1.000  O
  O127     1.0000 0.31410  0.94880  0.68170  Biso   1.000  O
  O128     1.0000 0.68590  0.05120  0.31830  Biso   1.000  O
  O129     1.0000 0.18850  0.81580  0.68170  Biso   1.000  O
  O130     1.0000 0.81150  0.18420  0.31830  Biso   1.000  O
  O131     1.0000 0.29320  0.92240  0.80020  Biso   1.000  O
  O132     1.0000 0.70680  0.07760  0.19980  Biso   1.000  O
  O133     1.0000 0.49310  0.88380  0.80570  Biso   1.000  O
  O134     1.0000 0.50690  0.11620  0.19430  Biso   1.000  O
  O135     1.0000 0.66080  0.75070  0.85380  Biso   1.000  O
  O136     1.0000 0.33920  0.24930  0.14620  Biso   1.000  O
  O137     1.0000 0.47000  0.65420  0.82520  Biso   1.000  O
  O138     1.0000 0.53000  0.34580  0.17480  Biso   1.000  O
  O139     1.0000 0.26060  0.63870  0.82440  Biso   1.000  O
  O140     1.0000 0.73940  0.36130  0.17560  Biso   1.000  O
  O141     1.0000 0.28390  0.66710  0.70590  Biso   1.000  O
  O142     1.0000 0.71610  0.33290  0.29410  Biso   1.000  O
  O143     1.0000 0.13280  0.71500  0.75670  Biso   1.000  O
  O144     1.0000 0.86720  0.28500  0.24330  Biso   1.000  O
  O145     1.0000 0.52540  0.80300  0.91330  Biso   1.000  O
  O146     1.0000 0.47460  0.19700  0.08670  Biso   1.000  O
  O147     1.0000 0.51340  0.68170  0.92340  Biso   1.000  O
  O148     1.0000 0.48660  0.31830  0.07660  Biso   1.000  O
  O149     1.0000 0.29080  0.81810  0.88170  Biso   1.000  O
  O150     1.0000 0.70920  0.18190  0.11830  Biso   1.000  O
  O151     1.0000 0.28550  0.70540  0.88860  Biso   1.000  O
  O152     1.0000 0.71450  0.29460  0.11140  Biso   1.000  O
  O153     1.0000 0.48990  0.79770  0.69610  Biso   1.000  O
  O154     1.0000 0.51010  0.20230  0.30390  Biso   1.000  O
  O155     1.0000 0.33500  0.84770  0.75250  Biso   1.000  O
  O156     1.0000 0.66500  0.15230  0.24750  Biso   1.000  O
  O157     1.0000 0.47540  0.76700  0.82530  Biso   1.000  O
  O158     1.0000 0.52460  0.23300  0.17470  Biso   1.000  O
  O159     1.0000 0.32150  0.73440  0.76160  Biso   1.000  O
  O160     1.0000 0.67850  0.26560  0.23840  Biso   1.000  O
  O161     1.0000 0.20870  0.71810  0.00140  Biso   1.000  O
  O162     1.0000 0.79130  0.28190  0.99860  Biso   1.000  O
  O163     1.0000 0.33620  0.65460  0.01500  Biso   1.000  O
  O164     1.0000 0.66380  0.34540  0.98500  Biso   1.000  O
  Cu9      1.0000 0.39620  0.78177  0.46930  Biso   1.000  Cu
  Cu10     1.0000 0.60380  0.21823  0.53070  Biso   1.000  Cu
  N33      1.0000 0.29710  0.84400  0.42570  Biso   1.000  N
  N34      1.0000 0.70290  0.15600  0.57430  Biso   1.000  N
  N35      1.0000 0.52300  0.81630  0.41940  Biso   1.000  N
  N36      1.0000 0.47700  0.18370  0.58060  Biso   1.000  N
  N37      1.0000 0.49360  0.71920  0.51370  Biso   1.000  N
  N38      1.0000 0.50640  0.28080  0.48630  Biso   1.000  N
  N39      1.0000 0.27220  0.74560  0.52200  Biso   1.000  N
  N40      1.0000 0.72780  0.25440  0.47800  Biso   1.000  N
  H205     1.0000 0.28030  0.83670  0.39170  Biso   1.000  H
  H206     1.0000 0.71970  0.16330  0.60830  Biso   1.000  H
  H207     1.0000 0.50340  0.72610  0.54910  Biso   1.000  H
  H208     1.0000 0.49660  0.27390  0.45090  Biso   1.000  H
  C89      1.0000 0.45800  0.66170  0.53270  Biso   1.000  C
  C90      1.0000 0.54200  0.33830  0.46730  Biso   1.000  C
  H209     1.0000 0.51000  0.63630  0.55720  Biso   1.000  H
  H210     1.0000 0.49000  0.36370  0.44280  Biso   1.000  H
  H211     1.0000 0.45100  0.65050  0.49690  Biso   1.000  H
  H212     1.0000 0.54900  0.34950  0.50310  Biso   1.000  H
  C91      1.0000 0.35600  0.65440  0.56810  Biso   1.000  C
  C92      1.0000 0.64400  0.34560  0.43190  Biso   1.000  C
  H213     1.0000 0.36350  0.66700  0.60290  Biso   1.000  H
  H214     1.0000 0.63650  0.33300  0.39710  Biso   1.000  H
  H215     1.0000 0.34170  0.61370  0.58400  Biso   1.000  H
  H216     1.0000 0.65830  0.38630  0.41600  Biso   1.000  H
  C93      1.0000 0.26300  0.68460  0.53630  Biso   1.000  C
  C94      1.0000 0.73700  0.31540  0.46370  Biso   1.000  C
  H217     1.0000 0.25830  0.67570  0.49900  Biso   1.000  H
  H218     1.0000 0.74170  0.32430  0.50100  Biso   1.000  H
  H219     1.0000 0.19940  0.67170  0.56210  Biso   1.000  H
  H220     1.0000 0.80060  0.32830  0.43790  Biso   1.000  H
  H221     1.0000 0.27430  0.75260  0.55790  Biso   1.000  H
  H222     1.0000 0.72570  0.24740  0.44210  Biso   1.000  H
  C95      1.0000 0.17800  0.77450  0.49290  Biso   1.000  C
  C96      1.0000 0.82200  0.22550  0.50710  Biso   1.000  C
  H223     1.0000 0.11810  0.76880  0.52280  Biso   1.000  H
  H224     1.0000 0.88190  0.23120  0.47720  Biso   1.000  H
  H225     1.0000 0.16050  0.75930  0.46140  Biso   1.000  H
  H226     1.0000 0.83950  0.24070  0.53860  Biso   1.000  H
  C97      1.0000 0.20200  0.83740  0.46550  Biso   1.000  C
  C98      1.0000 0.79800  0.16260  0.53450  Biso   1.000  C
  H227     1.0000 0.14320  0.85790  0.44230  Biso   1.000  H
  H228     1.0000 0.85680  0.14210  0.55770  Biso   1.000  H
  H229     1.0000 0.21120  0.85330  0.49760  Biso   1.000  H
  H230     1.0000 0.78880  0.14670  0.50240  Biso   1.000  H
  C99      1.0000 0.61500  0.79020  0.45190  Biso   1.000  C
  C100     1.0000 0.38500  0.20980  0.54810  Biso   1.000  C
  H231     1.0000 0.62620  0.80710  0.48300  Biso   1.000  H
  H232     1.0000 0.37380  0.19290  0.51700  Biso   1.000  H
  H233     1.0000 0.67730  0.79620  0.42390  Biso   1.000  H
  H234     1.0000 0.32270  0.20380  0.57610  Biso   1.000  H
  C101     1.0000 0.59600  0.72850  0.48000  Biso   1.000  C
  C102     1.0000 0.40400  0.27150  0.52000  Biso   1.000  C
  H235     1.0000 0.52550  0.80400  0.38650  Biso   1.000  H
  H236     1.0000 0.47450  0.19600  0.61350  Biso   1.000  H
  H237     1.0000 0.58480  0.88730  0.36320  Biso   1.000  H
  H238     1.0000 0.41520  0.11270  0.63680  Biso   1.000  H
  C103     1.0000 0.52700  0.87750  0.39400  Biso   1.000  C
  C104     1.0000 0.47300  0.12250  0.60600  Biso   1.000  C
  H239     1.0000 0.54310  0.89210  0.42630  Biso   1.000  H
  H240     1.0000 0.45690  0.10790  0.57370  Biso   1.000  H
  C105     1.0000 0.33500  0.90080  0.40600  Biso   1.000  C
  C106     1.0000 0.66500  0.09920  0.59400  Biso   1.000  C
  H241     1.0000 0.34910  0.91080  0.44200  Biso   1.000  H
  H242     1.0000 0.65090  0.08920  0.55800  Biso   1.000  H
  C107     1.0000 0.43100  0.90800  0.36660  Biso   1.000  C
  C108     1.0000 0.56900  0.09200  0.63340  Biso   1.000  C
  H243     1.0000 0.44550  0.94870  0.35010  Biso   1.000  H
  H244     1.0000 0.55450  0.05130  0.64990  Biso   1.000  H
  H245     1.0000 0.41720  0.89550  0.33250  Biso   1.000  H
  H246     1.0000 0.58280  0.10450  0.66750  Biso   1.000  H
  H247     1.0000 0.28090  0.92710  0.38500  Biso   1.000  H
  H248     1.0000 0.71910  0.07290  0.61500  Biso   1.000  H
  N41      1.0000 0.73400  0.67770  0.47640  Biso   1.000  N
  N42      1.0000 0.26600  0.32230  0.52360  Biso   1.000  N
  C109     1.0000 0.63100  0.66060  0.46900  Biso   1.000  C
  C110     1.0000 0.36900  0.33940  0.53100  Biso   1.000  C
  C111     1.0000 0.63600  0.61710  0.43830  Biso   1.000  C
  C112     1.0000 0.36400  0.38290  0.56170  Biso   1.000  C
  C113     1.0000 0.67800  0.55980  0.47270  Biso   1.000  C
  C114     1.0000 0.32200  0.44020  0.52730  Biso   1.000  C
  N43      1.0000 0.78720  0.56260  0.48450  Biso   1.000  N
  N44      1.0000 0.21280  0.43740  0.51550  Biso   1.000  N
  C115     1.0000 0.83100  0.50620  0.51500  Biso   1.000  C
  C116     1.0000 0.16900  0.49380  0.48500  Biso   1.000  C
  C117     1.0000 0.92900  0.51310  0.54440  Biso   1.000  C
  C118     1.0000 0.07100  0.48690  0.45560  Biso   1.000  C
  N45      1.0000 0.90410  0.54910  0.58210  Biso   1.000  N
  N46      1.0000 0.09590  0.45090  0.41790  Biso   1.000  N
  C119     1.0000 0.73400  0.72510  0.49960  Biso   1.000  C
  C120     1.0000 0.26600  0.27490  0.50040  Biso   1.000  C
  N47      1.0000 0.85300  0.66930  0.56980  Biso   1.000  N
  N48      1.0000 0.14700  0.33070  0.43020  Biso   1.000  N
  C121     1.0000 0.83400  0.72630  0.52750  Biso   1.000  C
  C122     1.0000 0.16600  0.27370  0.47250  Biso   1.000  C
  C123     1.0000 0.97500  0.60350  0.63850  Biso   1.000  C
  C124     1.0000 0.02500  0.39650  0.36150  Biso   1.000  C
  C125     1.0000 0.99200  0.55820  0.61180  Biso   1.000  C
  C126     1.0000 0.00800  0.44180  0.38820  Biso   1.000  C
  C127     1.0000 0.95400  0.66160  0.59470  Biso   1.000  C
  C128     1.0000 0.04600  0.33840  0.40530  Biso   1.000  C
  Cu11     1.0000 0.82030  0.61290  0.53040  Biso   1.000  Cu
  Cu12     1.0000 0.17970  0.38710  0.46960  Biso   1.000  Cu
  N49      1.0000 0.34490  0.93010  0.42380  Biso   1.000  N
  N50      1.0000 0.65510  0.06990  0.57620  Biso   1.000  N
  H249     1.0000 0.33040  0.89510  0.45200  Biso   1.000  H
  H250     1.0000 0.66960  0.10490  0.54800  Biso   1.000  H
  C129     1.0000 0.25200  0.96270  0.42870  Biso   1.000  C
  C130     1.0000 0.74800  0.03730  0.57130  Biso   1.000  C
  H251     1.0000 0.19070  0.94250  0.42430  Biso   1.000  H
  H252     1.0000 0.80930  0.05750  0.57570  Biso   1.000  H
  H253     1.0000 0.25410  0.99940  0.39590  Biso   1.000  H
  H254     1.0000 0.74590  0.00060  0.60410  Biso   1.000  H
  C131     1.0000 0.24000  0.97270  0.48750  Biso   1.000  C
  C132     1.0000 0.76000  0.02730  0.51250  Biso   1.000  C
  H255     1.0000 0.17080  0.99020  0.49050  Biso   1.000  H
  H256     1.0000 0.82920  0.00980  0.50950  Biso   1.000  H
  H257     1.0000 0.24020  0.93540  0.51940  Biso   1.000  H
  H258     1.0000 0.75980  0.06460  0.48060  Biso   1.000  H
  C133     1.0000 0.31700  0.00780  0.50200  Biso   1.000  C
  C134     1.0000 0.68300  0.99220  0.49800  Biso   1.000  C
  H259     1.0000 0.32020  0.04500  0.46970  Biso   1.000  H
  H260     1.0000 0.67980  0.95500  0.53030  Biso   1.000  H
  H261     1.0000 0.29460  0.01400  0.53970  Biso   1.000  H
  H262     1.0000 0.70540  0.98600  0.46030  Biso   1.000  H
  N51      1.0000 0.42200  0.98160  0.50660  Biso   1.000  N
  N52      1.0000 0.57800  0.01840  0.49340  Biso   1.000  N
  H263     1.0000 0.41790  0.95210  0.54280  Biso   1.000  H
  H264     1.0000 0.58210  0.04790  0.45720  Biso   1.000  H
  C135     1.0000 0.49600  0.02070  0.51400  Biso   1.000  C
  C136     1.0000 0.50400  0.97930  0.48600  Biso   1.000  C
  H265     1.0000 0.48260  0.02460  0.55460  Biso   1.000  H
  H266     1.0000 0.51740  0.97540  0.44540  Biso   1.000  H
  H267     1.0000 0.48670  0.05830  0.48420  Biso   1.000  H
  H268     1.0000 0.51330  0.94170  0.51580  Biso   1.000  H
  C137     1.0000 0.60800  0.00000  0.50800  Biso   1.000  C
  C138     1.0000 0.39200  0.00000  0.49200  Biso   1.000  C
  H269     1.0000 0.65510  0.03210  0.50050  Biso   1.000  H
  H270     1.0000 0.34490  0.96790  0.49950  Biso   1.000  H
  H271     1.0000 0.62560  0.97110  0.54620  Biso   1.000  H
  H272     1.0000 0.37440  0.02890  0.45380  Biso   1.000  H
  N53      1.0000 0.62100  0.97680  0.45880  Biso   1.000  N
  N54      1.0000 0.37900  0.02320  0.54120  Biso   1.000  N
  H273     1.0000 0.64050  0.00590  0.42390  Biso   1.000  H
  H274     1.0000 0.35950  0.99410  0.57610  Biso   1.000  H
  C139     1.0000 0.70100  0.93300  0.46800  Biso   1.000  C
  C140     1.0000 0.29900  0.06700  0.53200  Biso   1.000  C
  H275     1.0000 0.68170  0.90220  0.50570  Biso   1.000  H
  H276     1.0000 0.31830  0.09780  0.49430  Biso   1.000  H
  H277     1.0000 0.76660  0.94880  0.47480  Biso   1.000  H
  H278     1.0000 0.23340  0.05120  0.52520  Biso   1.000  H
  C141     1.0000 0.72100  0.91000  0.41900  Biso   1.000  C
  C142     1.0000 0.27900  0.09000  0.58100  Biso   1.000  C
  H279     1.0000 0.78230  0.88390  0.42840  Biso   1.000  H
  H280     1.0000 0.21770  0.11610  0.57160  Biso   1.000  H
  H281     1.0000 0.73930  0.94080  0.38220  Biso   1.000  H
  H282     1.0000 0.26070  0.05920  0.61780  Biso   1.000  H
  C143     1.0000 0.63300  0.87790  0.40800  Biso   1.000  C
  C144     1.0000 0.36700  0.12210  0.59200  Biso   1.000  C
  H283     1.0000 0.65860  0.85930  0.37860  Biso   1.000  H
  H284     1.0000 0.34140  0.14070  0.62140  Biso   1.000  H
  H285     1.0000 0.61150  0.84810  0.44570  Biso   1.000  H
  H286     1.0000 0.38850  0.15190  0.55430  Biso   1.000  H
  N55      1.0000 0.54290  0.91350  0.38520  Biso   1.000  N
  N56      1.0000 0.45710  0.08650  0.61480  Biso   1.000  N
  H287     1.0000 0.56540  0.94270  0.35140  Biso   1.000  H
  H288     1.0000 0.43460  0.05730  0.64860  Biso   1.000  H
  C145     1.0000 0.46200  0.88380  0.36800  Biso   1.000  C
  C146     1.0000 0.53800  0.11620  0.63200  Biso   1.000  C
  H289     1.0000 0.45520  0.84520  0.39680  Biso   1.000  H
  H290     1.0000 0.54480  0.15480  0.60320  Biso   1.000  H
  H291     1.0000 0.48070  0.88120  0.32770  Biso   1.000  H
  H292     1.0000 0.51930  0.11880  0.67230  Biso   1.000  H
  C147     1.0000 0.36300  0.91690  0.36790  Biso   1.000  C
  C148     1.0000 0.63700  0.08310  0.63210  Biso   1.000  C
  H293     1.0000 0.36650  0.95230  0.33350  Biso   1.000  H
  H294     1.0000 0.63350  0.04770  0.66650  Biso   1.000  H
  H295     1.0000 0.30490  0.89500  0.36330  Biso   1.000  H
  H296     1.0000 0.69510  0.10500  0.63670  Biso   1.000  H
  H297     1.0000 0.76910  0.68930  0.43880  Biso   1.000  H
  H298     1.0000 0.23090  0.31070  0.56120  Biso   1.000  H
  H299     1.0000 0.59210  0.69400  0.44460  Biso   1.000  H
  H300     1.0000 0.40790  0.30600  0.55540  Biso   1.000  H
  H301     1.0000 0.59380  0.64540  0.50830  Biso   1.000  H
  H302     1.0000 0.40620  0.35460  0.49170  Biso   1.000  H
  H303     1.0000 0.67870  0.63170  0.40020  Biso   1.000  H
  H304     1.0000 0.32130  0.36830  0.59980  Biso   1.000  H
  H305     1.0000 0.56500  0.61250  0.42800  Biso   1.000  H
  H306     1.0000 0.43500  0.38750  0.57200  Biso   1.000  H
  H307     1.0000 0.63700  0.54460  0.51110  Biso   1.000  H
  H308     1.0000 0.36300  0.45540  0.48890  Biso   1.000  H
  H309     1.0000 0.67260  0.53400  0.44950  Biso   1.000  H
  H310     1.0000 0.32740  0.46600  0.55050  Biso   1.000  H
  H311     1.0000 0.82340  0.57610  0.44740  Biso   1.000  H
  H312     1.0000 0.17660  0.42390  0.55260  Biso   1.000  H
  H313     1.0000 0.84920  0.48640  0.48580  Biso   1.000  H
  H314     1.0000 0.15080  0.51360  0.51420  Biso   1.000  H
  H315     1.0000 0.78020  0.48360  0.54570  Biso   1.000  H
  H316     1.0000 0.21980  0.51640  0.45430  Biso   1.000  H
  H317     1.0000 0.95440  0.47580  0.56940  Biso   1.000  H
  H318     1.0000 0.04560  0.52420  0.43060  Biso   1.000  H
  H319     1.0000 0.98340  0.53050  0.51320  Biso   1.000  H
  H320     1.0000 0.01660  0.46950  0.48680  Biso   1.000  H
  H321     1.0000 0.85780  0.52870  0.61270  Biso   1.000  H
  H322     1.0000 0.14220  0.47130  0.38730  Biso   1.000  H
  H323     1.0000 0.67560  0.72160  0.52980  Biso   1.000  H
  H324     1.0000 0.32440  0.27840  0.47020  Biso   1.000  H
  H325     1.0000 0.72470  0.76080  0.46640  Biso   1.000  H
  H326     1.0000 0.27530  0.23920  0.53360  Biso   1.000  H
  H327     1.0000 0.96090  0.68960  0.61530  Biso   1.000  H
  H328     1.0000 0.03910  0.31040  0.38470  Biso   1.000  H
  H329     1.0000 0.00840  0.66960  0.56130  Biso   1.000  H
  H330     1.0000 0.99160  0.33040  0.43870  Biso   1.000  H
  H331     1.0000 0.05250  0.56760  0.58240  Biso   1.000  H
  H332     1.0000 0.94750  0.43240  0.41760  Biso   1.000  H
  H333     1.0000 0.00900  0.52280  0.64370  Biso   1.000  H
  H334     1.0000 0.99100  0.47720  0.35630  Biso   1.000  H
  H335     1.0000 0.03720  0.60500  0.65980  Biso   1.000  H
  H336     1.0000 0.96280  0.39500  0.34020  Biso   1.000  H
  H337     1.0000 0.91590  0.59340  0.66860  Biso   1.000  H
  H338     1.0000 0.08410  0.40660  0.33140  Biso   1.000  H
  H339     1.0000 0.80380  0.66440  0.60190  Biso   1.000  H
  H340     1.0000 0.19620  0.33560  0.39810  Biso   1.000  H
  H341     1.0000 0.89120  0.73690  0.49630  Biso   1.000  H
  H342     1.0000 0.10880  0.26310  0.50370  Biso   1.000  H
  H343     1.0000 0.82810  0.75410  0.54890  Biso   1.000  H
  H344     1.0000 0.17190  0.24590  0.45110  Biso   1.000  H
  N57      1.0000 0.21320  0.63000  0.59680  Biso   1.000  N
  N58      1.0000 0.78680  0.37000  0.40320  Biso   1.000  N
  H345     1.0000 0.22720  0.63820  0.63080  Biso   1.000  H
  H346     1.0000 0.77280  0.36180  0.36920  Biso   1.000  H
  C149     1.0000 0.18800  0.57050  0.61670  Biso   1.000  C
  C150     1.0000 0.81200  0.42950  0.38330  Biso   1.000  C
  H347     1.0000 0.24610  0.54790  0.63790  Biso   1.000  H
  H348     1.0000 0.75390  0.45210  0.36210  Biso   1.000  H
  H349     1.0000 0.17820  0.55920  0.58130  Biso   1.000  H
  H350     1.0000 0.82180  0.44080  0.41870  Biso   1.000  H
  C151     1.0000 0.09200  0.55780  0.65740  Biso   1.000  C
  C152     1.0000 0.90800  0.44220  0.34260  Biso   1.000  C
  H351     1.0000 0.09840  0.57370  0.68980  Biso   1.000  H
  H352     1.0000 0.90160  0.42630  0.31020  Biso   1.000  H
  H353     1.0000 0.08760  0.51650  0.67610  Biso   1.000  H
  H354     1.0000 0.91240  0.48350  0.32390  Biso   1.000  H
  C153     1.0000 0.99100  0.57930  0.62930  Biso   1.000  C
  C154     1.0000 0.00900  0.42070  0.37070  Biso   1.000  C
  H355     1.0000 0.98380  0.56540  0.59540  Biso   1.000  H
  H356     1.0000 0.01620  0.43460  0.40460  Biso   1.000  H
  H357     1.0000 0.93230  0.56490  0.65910  Biso   1.000  H
  H358     1.0000 0.06770  0.43510  0.34090  Biso   1.000  H
  N59      1.0000 0.98710  0.64120  0.60780  Biso   1.000  N
  N60      1.0000 0.01290  0.35880  0.39220  Biso   1.000  N
  H359     1.0000 0.98160  0.65160  0.64200  Biso   1.000  H
  H360     1.0000 0.01840  0.34840  0.35800  Biso   1.000  H
  C155     1.0000 0.89400  0.72570  0.55090  Biso   1.000  C
  C156     1.0000 0.10600  0.27430  0.44910  Biso   1.000  C
  H361     1.0000 0.83510  0.74010  0.52540  Biso   1.000  H
  H362     1.0000 0.16490  0.25990  0.47460  Biso   1.000  H
  H363     1.0000 0.88800  0.74220  0.58350  Biso   1.000  H
  H364     1.0000 0.11200  0.25780  0.41650  Biso   1.000  H
  N61      1.0000 0.99240  0.74250  0.51490  Biso   1.000  N
  N62      1.0000 0.00760  0.25750  0.48510  Biso   1.000  N
  C157     1.0000 0.01500  0.80170  0.49860  Biso   1.000  C
  C158     1.0000 0.98500  0.19830  0.50140  Biso   1.000  C
  H365     1.0000 0.02170  0.81100  0.53550  Biso   1.000  H
  H366     1.0000 0.97830  0.18900  0.46450  Biso   1.000  H
  H367     1.0000 0.95660  0.82430  0.47750  Biso   1.000  H
  H368     1.0000 0.04340  0.17570  0.52250  Biso   1.000  H
  C159     1.0000 0.11160  0.81730  0.45960  Biso   1.000  C
  C160     1.0000 0.88840  0.18270  0.54040  Biso   1.000  C
  H369     1.0000 0.11720  0.85870  0.44600  Biso   1.000  H
  H370     1.0000 0.88280  0.14130  0.55400  Biso   1.000  H
  H371     1.0000 0.10560  0.80630  0.42370  Biso   1.000  H
  H372     1.0000 0.89440  0.19370  0.57630  Biso   1.000  H
  C161     1.0000 0.21100  0.79130  0.48820  Biso   1.000  C
  C162     1.0000 0.78900  0.20870  0.51180  Biso   1.000  C
  H373     1.0000 0.27020  0.80870  0.46050  Biso   1.000  H
  H374     1.0000 0.72980  0.19130  0.53950  Biso   1.000  H
  H375     1.0000 0.21520  0.80090  0.52520  Biso   1.000  H
  H376     1.0000 0.78480  0.19910  0.47480  Biso   1.000  H
  N63      1.0000 0.22080  0.73020  0.50350  Biso   1.000  N
  N64      1.0000 0.77920  0.26980  0.49650  Biso   1.000  N
  H377     1.0000 0.22060  0.72310  0.46740  Biso   1.000  H
  H378     1.0000 0.77940  0.27690  0.53260  Biso   1.000  H
  C163     1.0000 0.31920  0.70640  0.52900  Biso   1.000  C
  C164     1.0000 0.68080  0.29360  0.47100  Biso   1.000  C
  H379     1.0000 0.33540  0.72240  0.56010  Biso   1.000  H
  H380     1.0000 0.66460  0.27760  0.43990  Biso   1.000  H
  H381     1.0000 0.37640  0.71500  0.49740  Biso   1.000  H
  H382     1.0000 0.62360  0.28500  0.50260  Biso   1.000  H
  C165     1.0000 0.30600  0.64390  0.55590  Biso   1.000  C
  C166     1.0000 0.69400  0.35610  0.44410  Biso   1.000  C
  H383     1.0000 0.30170  0.62770  0.52350  Biso   1.000  H
  H384     1.0000 0.69830  0.37230  0.47650  Biso   1.000  H
  H385     1.0000 0.36810  0.62690  0.57800  Biso   1.000  H
  H386     1.0000 0.63190  0.37310  0.42200  Biso   1.000  H
  H387     1.0000 0.82920  0.65030  0.60710  Biso   1.000  H
  H388     1.0000 0.17080  0.34970  0.39290  Biso   1.000  H
  H389     1.0000 0.88280  0.64480  0.54590  Biso   1.000  H
  H390     1.0000 0.11720  0.35520  0.45410  Biso   1.000  H
  H391     1.0000 0.98440  0.73620  0.47900  Biso   1.000  H
  H392     1.0000 0.01560  0.26380  0.52100  Biso   1.000  H
  Cu13     1.0000 0.48370  0.94820  0.44790  Biso   1.000  Cu
  Cu14     1.0000 0.51630  0.05180  0.55210  Biso   1.000  Cu
  C167     1.0000 0.89000  0.66140  0.57780  Biso   1.000  C
  C168     1.0000 0.11000  0.33860  0.42220  Biso   1.000  C
  Cu15     1.0000 0.10300  0.68577  0.55619  Biso   1.000  Cu
  Cu16     1.0000 0.89700  0.31423  0.44381  Biso   1.000  Cu
  H393     1.0000 0.59780  0.71060  0.44870  Biso   1.000  H
  H394     1.0000 0.40220  0.28940  0.55130  Biso   1.000  H
  H395     1.0000 0.65050  0.71070  0.50760  Biso   1.000  H
  H396     1.0000 0.34950  0.28930  0.49240  Biso   1.000  H
