data_image0
_cell_length_a       12.9244
_cell_length_b       25.13
_cell_length_c       23.8354
_cell_angle_alpha    70.522
_cell_angle_beta     85.939
_cell_angle_gamma    87.518

_symmetry_space_group_name_H-M    "P 1"
_symmetry_int_tables_number       1

loop_
  _symmetry_equiv_pos_as_xyz
  'x, y, z'

loop_
  _atom_site_label
  _atom_site_occupancy
  _atom_site_fract_x
  _atom_site_fract_y
  _atom_site_fract_z
  _atom_site_thermal_displace_type
  _atom_site_B_iso_or_equiv
  _atom_site_type_symbol
  W1       1.0000 0.07289  0.65795  0.40854  Biso   1.000  W
  W2       1.0000 0.92711  0.34205  0.59146  Biso   1.000  W
  W3       1.0000 0.90589  0.62737  0.32257  Biso   1.000  W
  W4       1.0000 0.09411  0.37263  0.67743  Biso   1.000  W
  W5       1.0000 0.91065  0.75800  0.32816  Biso   1.000  W
  W6       1.0000 0.08935  0.24200  0.67184  Biso   1.000  W
  W7       1.0000 0.29118  0.59926  0.33477  Biso   1.000  W
  W8       1.0000 0.70882  0.40074  0.66523  Biso   1.000  W
  W9       1.0000 0.12320  0.57276  0.24695  Biso   1.000  W
  W10      1.0000 0.87680  0.42724  0.75305  Biso   1.000  W
  W11      1.0000 0.94562  0.68423  0.15454  Biso   1.000  W
  W12      1.0000 0.05438  0.31577  0.84546  Biso   1.000  W
  W13      1.0000 0.95462  0.81424  0.15921  Biso   1.000  W
  W14      1.0000 0.04538  0.18576  0.84079  Biso   1.000  W
  W15      1.0000 0.13995  0.84394  0.26093  Biso   1.000  W
  W16      1.0000 0.86005  0.15606  0.73907  Biso   1.000  W
  W17      1.0000 0.30364  0.74484  0.33906  Biso   1.000  W
  W18      1.0000 0.69636  0.25516  0.66094  Biso   1.000  W
  W19      1.0000 0.33169  0.65188  0.18395  Biso   1.000  W
  W20      1.0000 0.66831  0.34812  0.81605  Biso   1.000  W
  W21      1.0000 0.33637  0.79768  0.18801  Biso   1.000  W
  W22      1.0000 0.66363  0.20232  0.81199  Biso   1.000  W
  W23      1.0000 0.43944  0.82583  0.59858  Biso   1.000  W
  W24      1.0000 0.56056  0.17417  0.40142  Biso   1.000  W
  W25      1.0000 0.62029  0.86348  0.67109  Biso   1.000  W
  W26      1.0000 0.37971  0.13652  0.32891  Biso   1.000  W
  W27      1.0000 0.60207  0.72854  0.68107  Biso   1.000  W
  W28      1.0000 0.39793  0.27146  0.31893  Biso   1.000  W
  W29      1.0000 0.22927  0.89143  0.67125  Biso   1.000  W
  W30      1.0000 0.77073  0.10857  0.32875  Biso   1.000  W
  W31      1.0000 0.41258  0.93026  0.74207  Biso   1.000  W
  W32      1.0000 0.58742  0.06974  0.25793  Biso   1.000  W
  W33      1.0000 0.59509  0.82404  0.83868  Biso   1.000  W
  W34      1.0000 0.40491  0.17596  0.16132  Biso   1.000  W
  W35      1.0000 0.58210  0.68834  0.84925  Biso   1.000  W
  W36      1.0000 0.41790  0.31166  0.15075  Biso   1.000  W
  W37      1.0000 0.37801  0.64653  0.76632  Biso   1.000  W
  W38      1.0000 0.62199  0.35347  0.23368  Biso   1.000  W
  W39      1.0000 0.21441  0.74109  0.68228  Biso   1.000  W
  W40      1.0000 0.78559  0.25891  0.31772  Biso   1.000  W
  W41      1.0000 0.21146  0.85482  0.82214  Biso   1.000  W
  W42      1.0000 0.78854  0.14518  0.17786  Biso   1.000  W
  W43      1.0000 0.19393  0.70572  0.83388  Biso   1.000  W
  W44      1.0000 0.80607  0.29428  0.16612  Biso   1.000  W
  Ce1      1.0000 0.16248  0.77189  0.06587  Biso   1.000  Ce
  Ce2      1.0000 0.83752  0.22811  0.93413  Biso   1.000  Ce
  Ce3      1.0000 0.38660  0.74021  0.94040  Biso   1.000  Ce
  Ce4      1.0000 0.61340  0.25979  0.05960  Biso   1.000  Ce
  Ge1      1.0000 0.11874  0.71096  0.24874  Biso   1.000  Ge
  Ge2      1.0000 0.88126  0.28904  0.75126  Biso   1.000  Ge
  Ge3      1.0000 0.40936  0.78613  0.75907  Biso   1.000  Ge
  Ge4      1.0000 0.59064  0.21387  0.24093  Biso   1.000  Ge
  Cu1      1.0000 0.48990  0.49674  0.80733  Biso   1.000  Cu
  Cu2      1.0000 0.51010  0.50326  0.19267  Biso   1.000  Cu
  Cu3      1.0000 0.10190  0.99667  0.18668  Biso   1.000  Cu
  Cu4      1.0000 0.89810  0.00333  0.81332  Biso   1.000  Cu
  N1       1.0000 0.22540  0.98090  0.13600  Biso   1.000  N
  N2       1.0000 0.77460  0.01910  0.86400  Biso   1.000  N
  H1       1.0000 0.24210  0.94280  0.15380  Biso   1.000  H
  H2       1.0000 0.75790  0.05720  0.84620  Biso   1.000  H
  N3       1.0000 0.99770  0.96960  0.14380  Biso   1.000  N
  N4       1.0000 0.00230  0.03040  0.85620  Biso   1.000  N
  H3       1.0000 0.99880  0.93060  0.16180  Biso   1.000  H
  H4       1.0000 0.00120  0.06940  0.83820  Biso   1.000  H
  N5       1.0000 0.97740  0.01410  0.23350  Biso   1.000  N
  N6       1.0000 0.02260  0.98590  0.76650  Biso   1.000  N
  H5       1.0000 0.96120  0.05230  0.21660  Biso   1.000  H
  H6       1.0000 0.03880  0.94770  0.78340  Biso   1.000  H
  N7       1.0000 0.20340  0.03030  0.22210  Biso   1.000  N
  N8       1.0000 0.79660  0.96970  0.77790  Biso   1.000  N
  H7       1.0000 0.20080  0.06910  0.20280  Biso   1.000  H
  H8       1.0000 0.79920  0.93090  0.79720  Biso   1.000  H
  N9       1.0000 0.61300  0.53820  0.81800  Biso   1.000  N
  N10      1.0000 0.38700  0.46180  0.18200  Biso   1.000  N
  H9       1.0000 0.58820  0.57190  0.82260  Biso   1.000  H
  H10      1.0000 0.41180  0.42810  0.17740  Biso   1.000  H
  N11      1.0000 0.44110  0.48250  0.89360  Biso   1.000  N
  N12      1.0000 0.55890  0.51750  0.10640  Biso   1.000  N
  H11      1.0000 0.41690  0.51700  0.89620  Biso   1.000  H
  H12      1.0000 0.58310  0.48300  0.10380  Biso   1.000  H
  N13      1.0000 0.36930  0.45100  0.80500  Biso   1.000  N
  N14      1.0000 0.63070  0.54900  0.19500  Biso   1.000  N
  H13      1.0000 0.39100  0.41330  0.81650  Biso   1.000  H
  H14      1.0000 0.60900  0.58670  0.18350  Biso   1.000  H
  N15      1.0000 0.54960  0.50710  0.72540  Biso   1.000  N
  N16      1.0000 0.45040  0.49290  0.27460  Biso   1.000  N
  H15      1.0000 0.59170  0.47570  0.72690  Biso   1.000  H
  H16      1.0000 0.40830  0.52430  0.27310  Biso   1.000  H
  C1       1.0000 0.31230  0.85420  0.98140  Biso   1.000  C
  C2       1.0000 0.68770  0.14580  0.01860  Biso   1.000  C
  C3       1.0000 0.23720  0.65910  0.02200  Biso   1.000  C
  C4       1.0000 0.76280  0.34090  0.97800  Biso   1.000  C
  C5       1.0000 0.38270  0.89720  0.94670  Biso   1.000  C
  C6       1.0000 0.61730  0.10280  0.05330  Biso   1.000  C
  H17      1.0000 0.44980  0.89090  0.96490  Biso   1.000  H
  H18      1.0000 0.55020  0.10910  0.03510  Biso   1.000  H
  H19      1.0000 0.35420  0.93430  0.94540  Biso   1.000  H
  H20      1.0000 0.64580  0.06570  0.05460  Biso   1.000  H
  H21      1.0000 0.39230  0.89580  0.90600  Biso   1.000  H
  H22      1.0000 0.60770  0.10420  0.09400  Biso   1.000  H
  C7       1.0000 0.15850  0.61780  0.05100  Biso   1.000  C
  C8       1.0000 0.84150  0.38220  0.94900  Biso   1.000  C
  H23      1.0000 0.15110  0.61320  0.09360  Biso   1.000  H
  H24      1.0000 0.84890  0.38680  0.90640  Biso   1.000  H
  H25      1.0000 0.17910  0.58160  0.04600  Biso   1.000  H
  H26      1.0000 0.82090  0.41840  0.95400  Biso   1.000  H
  H27      1.0000 0.09220  0.63080  0.03300  Biso   1.000  H
  H28      1.0000 0.90780  0.36920  0.96700  Biso   1.000  H
  C9       1.0000 0.21200  0.98810  0.07190  Biso   1.000  C
  C10      1.0000 0.78800  0.01190  0.92810  Biso   1.000  C
  H29      1.0000 0.27510  0.97400  0.05500  Biso   1.000  H
  H30      1.0000 0.72490  0.02600  0.94500  Biso   1.000  H
  H31      1.0000 0.20300  0.02870  0.04920  Biso   1.000  H
  H32      1.0000 0.79700  0.97130  0.95080  Biso   1.000  H
  C11      1.0000 0.11800  0.95660  0.06410  Biso   1.000  C
  C12      1.0000 0.88200  0.04340  0.93590  Biso   1.000  C
  H33      1.0000 0.12030  0.95770  0.02210  Biso   1.000  H
  H34      1.0000 0.87970  0.04230  0.97790  Biso   1.000  H
  H35      1.0000 0.12520  0.91660  0.08940  Biso   1.000  H
  H36      1.0000 0.87480  0.08340  0.91060  Biso   1.000  H
  C13      1.0000 0.01800  0.97830  0.07870  Biso   1.000  C
  C14      1.0000 0.98200  0.02170  0.92130  Biso   1.000  C
  H37      1.0000 0.96290  0.95940  0.06570  Biso   1.000  H
  H38      1.0000 0.03710  0.04060  0.93430  Biso   1.000  H
  H39      1.0000 0.01280  0.01920  0.05620  Biso   1.000  H
  H40      1.0000 0.98720  0.98080  0.94380  Biso   1.000  H
  C15      1.0000 0.89300  0.98780  0.16200  Biso   1.000  C
  C16      1.0000 0.10700  0.01220  0.83800  Biso   1.000  C
  H41      1.0000 0.87970  0.02780  0.13830  Biso   1.000  H
  H42      1.0000 0.12030  0.97220  0.86170  Biso   1.000  H
  H43      1.0000 0.83950  0.96460  0.15460  Biso   1.000  H
  H44      1.0000 0.16050  0.03540  0.84540  Biso   1.000  H
  C17      1.0000 0.88940  0.98160  0.22410  Biso   1.000  C
  C18      1.0000 0.11060  0.01840  0.77590  Biso   1.000  C
  H45      1.0000 0.89650  0.94120  0.24840  Biso   1.000  H
  H46      1.0000 0.10350  0.05880  0.75160  Biso   1.000  H
  H47      1.0000 0.82240  0.99640  0.23610  Biso   1.000  H
  H48      1.0000 0.17760  0.00360  0.76390  Biso   1.000  H
  C19      1.0000 0.99000  0.00310  0.29550  Biso   1.000  C
  C20      1.0000 0.01000  0.99690  0.70450  Biso   1.000  C
  H49      1.0000 0.00310  0.96210  0.31480  Biso   1.000  H
  H50      1.0000 0.99690  0.03790  0.68520  Biso   1.000  H
  H51      1.0000 0.92440  0.01320  0.31400  Biso   1.000  H
  H52      1.0000 0.07560  0.98680  0.68600  Biso   1.000  H
  C21      1.0000 0.08000  0.03590  0.30750  Biso   1.000  C
  C22      1.0000 0.92000  0.96410  0.69250  Biso   1.000  C
  H53      1.0000 0.06700  0.07670  0.28690  Biso   1.000  H
  H54      1.0000 0.93300  0.92330  0.71310  Biso   1.000  H
  H55      1.0000 0.07780  0.02970  0.35080  Biso   1.000  H
  H56      1.0000 0.92220  0.97030  0.64920  Biso   1.000  H
  C23      1.0000 0.18600  0.02020  0.28790  Biso   1.000  C
  C24      1.0000 0.81400  0.97980  0.71210  Biso   1.000  C
  H57      1.0000 0.23770  0.04210  0.29960  Biso   1.000  H
  H58      1.0000 0.76230  0.95790  0.70040  Biso   1.000  H
  H59      1.0000 0.20000  0.97970  0.30950  Biso   1.000  H
  H60      1.0000 0.80000  0.02030  0.69050  Biso   1.000  H
  C25      1.0000 0.30800  0.00880  0.20570  Biso   1.000  C
  C26      1.0000 0.69200  0.99120  0.79430  Biso   1.000  C
  H61      1.0000 0.36340  0.03220  0.21160  Biso   1.000  H
  H62      1.0000 0.63660  0.96780  0.78840  Biso   1.000  H
  H63      1.0000 0.31990  0.96940  0.23190  Biso   1.000  H
  H64      1.0000 0.68010  0.03060  0.76810  Biso   1.000  H
  C27      1.0000 0.31400  0.01100  0.14360  Biso   1.000  C
  C28      1.0000 0.68600  0.98900  0.85640  Biso   1.000  C
  H65      1.0000 0.31110  0.05070  0.11670  Biso   1.000  H
  H66      1.0000 0.68890  0.94930  0.88330  Biso   1.000  H
  H67      1.0000 0.37920  0.99310  0.13400  Biso   1.000  H
  H68      1.0000 0.62080  0.00690  0.86600  Biso   1.000  H
  C29      1.0000 0.67100  0.50870  0.86930  Biso   1.000  C
  C30      1.0000 0.32900  0.49130  0.13070  Biso   1.000  C
  H69      1.0000 0.73450  0.52960  0.86800  Biso   1.000  H
  H70      1.0000 0.26550  0.47040  0.13200  Biso   1.000  H
  H71      1.0000 0.69180  0.47080  0.86780  Biso   1.000  H
  H72      1.0000 0.30820  0.52920  0.13220  Biso   1.000  H
  C31      1.0000 0.61000  0.50230  0.92600  Biso   1.000  C
  C32      1.0000 0.39000  0.49770  0.07400  Biso   1.000  C
  H73      1.0000 0.58010  0.53970  0.92470  Biso   1.000  H
  H74      1.0000 0.41990  0.46030  0.07530  Biso   1.000  H
  H75      1.0000 0.65680  0.48970  0.95910  Biso   1.000  H
  H76      1.0000 0.34320  0.51030  0.04090  Biso   1.000  H
  C33      1.0000 0.52100  0.46080  0.93940  Biso   1.000  C
  C34      1.0000 0.47900  0.53920  0.06060  Biso   1.000  C
  H77      1.0000 0.54920  0.42360  0.93880  Biso   1.000  H
  H78      1.0000 0.45080  0.57640  0.06120  Biso   1.000  H
  H79      1.0000 0.48900  0.45580  0.97970  Biso   1.000  H
  H80      1.0000 0.51100  0.54420  0.02030  Biso   1.000  H
  C35      1.0000 0.35000  0.44520  0.90720  Biso   1.000  C
  C36      1.0000 0.65000  0.55480  0.09280  Biso   1.000  C
  H81      1.0000 0.30320  0.45240  0.93890  Biso   1.000  H
  H82      1.0000 0.69680  0.54760  0.06110  Biso   1.000  H
  H83      1.0000 0.37270  0.40510  0.92160  Biso   1.000  H
  H84      1.0000 0.62730  0.59490  0.07840  Biso   1.000  H
  C37      1.0000 0.29100  0.45740  0.85030  Biso   1.000  C
  C38      1.0000 0.70900  0.54260  0.14970  Biso   1.000  C
  H85      1.0000 0.23460  0.43030  0.85670  Biso   1.000  H
  H86      1.0000 0.76540  0.56970  0.14330  Biso   1.000  H
  H87      1.0000 0.26120  0.49620  0.83800  Biso   1.000  H
  H88      1.0000 0.73880  0.50380  0.16200  Biso   1.000  H
  C39      1.0000 0.32100  0.46470  0.74740  Biso   1.000  C
  C40      1.0000 0.67900  0.53530  0.25260  Biso   1.000  C
  H89      1.0000 0.28610  0.50230  0.73820  Biso   1.000  H
  H90      1.0000 0.71390  0.49770  0.26180  Biso   1.000  H
  H91      1.0000 0.26730  0.43670  0.75110  Biso   1.000  H
  H92      1.0000 0.73270  0.56330  0.24890  Biso   1.000  H
  C41      1.0000 0.40000  0.46540  0.69480  Biso   1.000  C
  C42      1.0000 0.60000  0.53460  0.30520  Biso   1.000  C
  H93      1.0000 0.44000  0.42930  0.70550  Biso   1.000  H
  H94      1.0000 0.56000  0.57070  0.29450  Biso   1.000  H
  H95      1.0000 0.36160  0.46850  0.65930  Biso   1.000  H
  H96      1.0000 0.63840  0.53150  0.34070  Biso   1.000  H
  C43      1.0000 0.47570  0.51450  0.67900  Biso   1.000  C
  C44      1.0000 0.52430  0.48550  0.32100  Biso   1.000  C
  H97      1.0000 0.51470  0.51750  0.64080  Biso   1.000  H
  H98      1.0000 0.48530  0.48250  0.35920  Biso   1.000  H
  H99      1.0000 0.43570  0.55020  0.67340  Biso   1.000  H
  H100     1.0000 0.56430  0.44980  0.32660  Biso   1.000  H
  C45      1.0000 0.61810  0.55840  0.70690  Biso   1.000  C
  C46      1.0000 0.38190  0.44160  0.29310  Biso   1.000  C
  H101     1.0000 0.57560  0.59360  0.69570  Biso   1.000  H
  H102     1.0000 0.42440  0.40640  0.30430  Biso   1.000  H
  H103     1.0000 0.66640  0.55860  0.67270  Biso   1.000  H
  H104     1.0000 0.33360  0.44140  0.32730  Biso   1.000  H
  C47      1.0000 0.67810  0.55270  0.76190  Biso   1.000  C
  C48      1.0000 0.32190  0.44730  0.23810  Biso   1.000  C
  H105     1.0000 0.73290  0.52320  0.76580  Biso   1.000  H
  H106     1.0000 0.26710  0.47680  0.23420  Biso   1.000  H
  H107     1.0000 0.71260  0.58880  0.75580  Biso   1.000  H
  H108     1.0000 0.28740  0.41120  0.24420  Biso   1.000  H
  O1       1.0000 0.08290  0.63330  0.48550  Biso   1.000  O
  O2       1.0000 0.91710  0.36670  0.51450  Biso   1.000  O
  O3       1.0000 0.80730  0.57930  0.34450  Biso   1.000  O
  O4       1.0000 0.19270  0.42070  0.65550  Biso   1.000  O
  O5       1.0000 0.81830  0.79690  0.35490  Biso   1.000  O
  O6       1.0000 0.18170  0.20310  0.64510  Biso   1.000  O
  O7       1.0000 0.36490  0.55380  0.38810  Biso   1.000  O
  O8       1.0000 0.63510  0.44620  0.61190  Biso   1.000  O
  O9       1.0000 0.09080  0.50870  0.24280  Biso   1.000  O
  O10      1.0000 0.90920  0.49130  0.75720  Biso   1.000  O
  O11      1.0000 0.84770  0.64860  0.13800  Biso   1.000  O
  O12      1.0000 0.15230  0.35140  0.86200  Biso   1.000  O
  O13      1.0000 0.86350  0.86900  0.14480  Biso   1.000  O
  O14      1.0000 0.13650  0.13100  0.85520  Biso   1.000  O
  O15      1.0000 0.11650  0.91290  0.25900  Biso   1.000  O
  O16      1.0000 0.88350  0.08710  0.74100  Biso   1.000  O
  O17      1.0000 0.38100  0.74700  0.39370  Biso   1.000  O
  O18      1.0000 0.61900  0.25300  0.60630  Biso   1.000  O
  O19      1.0000 0.44370  0.63390  0.14730  Biso   1.000  O
  O20      1.0000 0.55630  0.36610  0.85270  Biso   1.000  O
  O21      1.0000 0.44900  0.83190  0.15200  Biso   1.000  O
  O22      1.0000 0.55100  0.16810  0.84800  Biso   1.000  O
  O23      1.0000 0.96460  0.61180  0.40220  Biso   1.000  O
  O24      1.0000 0.03540  0.38820  0.59780  Biso   1.000  O
  O25      1.0000 0.97040  0.71750  0.40530  Biso   1.000  O
  O26      1.0000 0.02960  0.28250  0.59470  Biso   1.000  O
  O27      1.0000 0.17100  0.61190  0.38300  Biso   1.000  O
  O28      1.0000 0.82900  0.38810  0.61700  Biso   1.000  O
  O29      1.0000 0.18020  0.71440  0.38240  Biso   1.000  O
  O30      1.0000 0.81980  0.28560  0.61760  Biso   1.000  O
  O31      1.0000 0.37360  0.71930  0.19650  Biso   1.000  O
  O32      1.0000 0.62640  0.28070  0.80350  Biso   1.000  O
  O33      1.0000 0.83430  0.69060  0.34010  Biso   1.000  O
  O34      1.0000 0.16570  0.30940  0.65990  Biso   1.000  O
  O35      1.0000 0.01840  0.58320  0.30360  Biso   1.000  O
  O36      1.0000 0.98160  0.41680  0.69640  Biso   1.000  O
  O37      1.0000 0.89400  0.66230  0.24330  Biso   1.000  O
  O38      1.0000 0.10600  0.33770  0.75670  Biso   1.000  O
  O39      1.0000 0.89780  0.78250  0.24780  Biso   1.000  O
  O40      1.0000 0.10220  0.21750  0.75220  Biso   1.000  O
  O41      1.0000 0.03130  0.80540  0.31110  Biso   1.000  O
  O42      1.0000 0.96870  0.19460  0.68890  Biso   1.000  O
  O43      1.0000 0.37890  0.60950  0.26630  Biso   1.000  O
  O44      1.0000 0.62110  0.39050  0.73370  Biso   1.000  O
  O45      1.0000 0.21510  0.54590  0.31400  Biso   1.000  O
  O46      1.0000 0.78490  0.45410  0.68600  Biso   1.000  O
  O47      1.0000 0.33200  0.67210  0.33560  Biso   1.000  O
  O48      1.0000 0.66800  0.32790  0.66440  Biso   1.000  O
  O49      1.0000 0.24990  0.58480  0.19680  Biso   1.000  O
  O50      1.0000 0.75010  0.41520  0.80320  Biso   1.000  O
  O51      1.0000 0.04510  0.62410  0.18700  Biso   1.000  O
  O52      1.0000 0.95490  0.37590  0.81300  Biso   1.000  O
  O53      1.0000 0.87450  0.75620  0.14860  Biso   1.000  O
  O54      1.0000 0.12550  0.24380  0.85140  Biso   1.000  O
  O55      1.0000 0.05750  0.84240  0.19710  Biso   1.000  O
  O56      1.0000 0.94250  0.15760  0.80290  Biso   1.000  O
  O57      1.0000 0.26190  0.85990  0.20570  Biso   1.000  O
  O58      1.0000 0.73810  0.14010  0.79430  Biso   1.000  O
  O59      1.0000 0.23020  0.81940  0.32280  Biso   1.000  O
  O60      1.0000 0.76980  0.18060  0.67720  Biso   1.000  O
  O61      1.0000 0.38670  0.78000  0.27100  Biso   1.000  O
  O62      1.0000 0.61330  0.22000  0.72900  Biso   1.000  O
  O63      1.0000 0.01600  0.71250  0.08290  Biso   1.000  O
  O64      1.0000 0.98400  0.28750  0.91710  Biso   1.000  O
  O65      1.0000 0.02590  0.83140  0.08740  Biso   1.000  O
  O66      1.0000 0.97410  0.16860  0.91260  Biso   1.000  O
  O67      1.0000 0.25300  0.69270  0.12550  Biso   1.000  O
  O68      1.0000 0.74700  0.30730  0.87450  Biso   1.000  O
  O69      1.0000 0.25380  0.80390  0.13070  Biso   1.000  O
  O70      1.0000 0.74620  0.19610  0.86930  Biso   1.000  O
  O71      1.0000 0.03020  0.69400  0.31110  Biso   1.000  O
  O72      1.0000 0.96980  0.30600  0.68890  Biso   1.000  O
  O73      1.0000 0.19730  0.65340  0.25090  Biso   1.000  O
  O74      1.0000 0.80270  0.34660  0.74910  Biso   1.000  O
  O75      1.0000 0.05740  0.73750  0.18180  Biso   1.000  O
  O76      1.0000 0.94260  0.26250  0.81820  Biso   1.000  O
  O77      1.0000 0.20270  0.75990  0.25540  Biso   1.000  O
  O78      1.0000 0.79730  0.24010  0.74460  Biso   1.000  O
  O79      1.0000 0.34550  0.80240  0.00390  Biso   1.000  O
  O80      1.0000 0.65450  0.19760  0.99610  Biso   1.000  O
  O81      1.0000 0.21980  0.86600  0.99380  Biso   1.000  O
  O82      1.0000 0.78020  0.13400  0.00620  Biso   1.000  O
  O83      1.0000 0.42250  0.84560  0.52300  Biso   1.000  O
  O84      1.0000 0.57750  0.15440  0.47700  Biso   1.000  O
  O85      1.0000 0.72010  0.90930  0.63910  Biso   1.000  O
  O86      1.0000 0.27990  0.09070  0.36090  Biso   1.000  O
  O87      1.0000 0.69180  0.68540  0.65810  Biso   1.000  O
  O88      1.0000 0.30820  0.31460  0.34190  Biso   1.000  O
  O89      1.0000 0.15320  0.93270  0.61760  Biso   1.000  O
  O90      1.0000 0.84680  0.06730  0.38240  Biso   1.000  O
  O91      1.0000 0.44680  0.99620  0.73700  Biso   1.000  O
  O92      1.0000 0.55320  0.00380  0.26300  Biso   1.000  O
  O93      1.0000 0.69660  0.86130  0.84990  Biso   1.000  O
  O94      1.0000 0.30340  0.13870  0.15010  Biso   1.000  O
  O95      1.0000 0.67720  0.63480  0.86460  Biso   1.000  O
  O96      1.0000 0.32280  0.36520  0.13540  Biso   1.000  O
  O97      1.0000 0.39720  0.57630  0.77330  Biso   1.000  O
  O98      1.0000 0.60280  0.42370  0.22670  Biso   1.000  O
  O99      1.0000 0.13060  0.73330  0.63370  Biso   1.000  O
  O100     1.0000 0.86940  0.26670  0.36630  Biso   1.000  O
  O101     1.0000 0.10520  0.87620  0.85870  Biso   1.000  O
  O102     1.0000 0.89480  0.12380  0.14130  Biso   1.000  O
  O103     1.0000 0.08240  0.67670  0.87570  Biso   1.000  O
  O104     1.0000 0.91760  0.32330  0.12430  Biso   1.000  O
  O105     1.0000 0.54830  0.87310  0.59640  Biso   1.000  O
  O106     1.0000 0.45170  0.12690  0.40360  Biso   1.000  O
  O107     1.0000 0.53630  0.76470  0.60610  Biso   1.000  O
  O108     1.0000 0.46370  0.23530  0.39390  Biso   1.000  O
  O109     1.0000 0.34390  0.87530  0.62130  Biso   1.000  O
  O110     1.0000 0.65610  0.12470  0.37870  Biso   1.000  O
  O111     1.0000 0.33310  0.77090  0.63120  Biso   1.000  O
  O112     1.0000 0.66690  0.22910  0.36880  Biso   1.000  O
  O113     1.0000 0.16460  0.78400  0.81650  Biso   1.000  O
  O114     1.0000 0.83540  0.21600  0.18350  Biso   1.000  O
  O115     1.0000 0.68170  0.79620  0.66090  Biso   1.000  O
  O116     1.0000 0.31830  0.20380  0.33910  Biso   1.000  O
  O117     1.0000 0.51410  0.91320  0.68590  Biso   1.000  O
  O118     1.0000 0.48590  0.08680  0.31410  Biso   1.000  O
  O119     1.0000 0.64020  0.83920  0.75100  Biso   1.000  O
  O120     1.0000 0.35980  0.16080  0.24900  Biso   1.000  O
  O121     1.0000 0.62420  0.71370  0.76020  Biso   1.000  O
  O122     1.0000 0.37580  0.28630  0.23980  Biso   1.000  O
  O123     1.0000 0.48430  0.68200  0.70690  Biso   1.000  O
  O124     1.0000 0.51570  0.31800  0.29310  Biso   1.000  O
  O125     1.0000 0.15320  0.88940  0.73960  Biso   1.000  O
  O126     1.0000 0.84680  0.11060  0.26040  Biso   1.000  O
  O127     1.0000 0.31420  0.94820  0.68220  Biso   1.000  O
  O128     1.0000 0.68580  0.05180  0.31780  Biso   1.000  O
  O129     1.0000 0.18860  0.81710  0.68080  Biso   1.000  O
  O130     1.0000 0.81140  0.18290  0.31920  Biso   1.000  O
  O131     1.0000 0.29610  0.92280  0.79860  Biso   1.000  O
  O132     1.0000 0.70390  0.07720  0.20140  Biso   1.000  O
  O133     1.0000 0.49780  0.88310  0.80410  Biso   1.000  O
  O134     1.0000 0.50220  0.11690  0.19590  Biso   1.000  O
  O135     1.0000 0.66340  0.75010  0.85030  Biso   1.000  O
  O136     1.0000 0.33660  0.24990  0.14970  Biso   1.000  O
  O137     1.0000 0.47090  0.65280  0.82250  Biso   1.000  O
  O138     1.0000 0.52910  0.34720  0.17750  Biso   1.000  O
  O139     1.0000 0.26070  0.63840  0.82290  Biso   1.000  O
  O140     1.0000 0.73930  0.36160  0.17710  Biso   1.000  O
  O141     1.0000 0.28240  0.66870  0.70250  Biso   1.000  O
  O142     1.0000 0.71760  0.33130  0.29750  Biso   1.000  O
  O143     1.0000 0.13350  0.71590  0.75380  Biso   1.000  O
  O144     1.0000 0.86650  0.28410  0.24620  Biso   1.000  O
  O145     1.0000 0.53080  0.80150  0.91350  Biso   1.000  O
  O146     1.0000 0.46920  0.19850  0.08650  Biso   1.000  O
  O147     1.0000 0.52200  0.67870  0.92110  Biso   1.000  O
  O148     1.0000 0.47800  0.32130  0.07890  Biso   1.000  O
  O149     1.0000 0.29410  0.81710  0.87960  Biso   1.000  O
  O150     1.0000 0.70590  0.18290  0.12040  Biso   1.000  O
  O151     1.0000 0.28640  0.70320  0.88340  Biso   1.000  O
  O152     1.0000 0.71360  0.29680  0.11660  Biso   1.000  O
  O153     1.0000 0.49130  0.79920  0.69240  Biso   1.000  O
  O154     1.0000 0.50870  0.20080  0.30760  Biso   1.000  O
  O155     1.0000 0.33550  0.84770  0.75120  Biso   1.000  O
  O156     1.0000 0.66450  0.15230  0.24880  Biso   1.000  O
  O157     1.0000 0.47790  0.76570  0.82350  Biso   1.000  O
  O158     1.0000 0.52210  0.23430  0.17650  Biso   1.000  O
  O159     1.0000 0.32370  0.73460  0.75890  Biso   1.000  O
  O160     1.0000 0.67630  0.26540  0.24110  Biso   1.000  O
  O161     1.0000 0.21010  0.71200  0.00270  Biso   1.000  O
  O162     1.0000 0.78990  0.28800  0.99730  Biso   1.000  O
  O163     1.0000 0.32860  0.64540  0.01310  Biso   1.000  O
  O164     1.0000 0.67140  0.35460  0.98690  Biso   1.000  O
  Cu5      1.0000 0.62175  0.81126  0.14959  Biso   1.000  Cu
  Cu6      1.0000 0.37825  0.18874  0.85041  Biso   1.000  Cu
  N17      1.0000 0.59870  0.73040  0.15500  Biso   1.000  N
  N18      1.0000 0.40130  0.26960  0.84500  Biso   1.000  N
  H109     1.0000 0.52720  0.72590  0.15780  Biso   1.000  H
  H110     1.0000 0.47280  0.27410  0.84220  Biso   1.000  H
  C49      1.0000 0.64000  0.71290  0.10410  Biso   1.000  C
  C50      1.0000 0.36000  0.28710  0.89590  Biso   1.000  C
  H111     1.0000 0.62120  0.67320  0.11160  Biso   1.000  H
  H112     1.0000 0.37880  0.32680  0.88840  Biso   1.000  H
  H113     1.0000 0.71660  0.71460  0.10120  Biso   1.000  H
  H114     1.0000 0.28340  0.28540  0.89880  Biso   1.000  H
  C51      1.0000 0.59880  0.74940  0.04560  Biso   1.000  C
  C52      1.0000 0.40120  0.25060  0.95440  Biso   1.000  C
  H115     1.0000 0.52270  0.75400  0.05110  Biso   1.000  H
  H116     1.0000 0.47730  0.24600  0.94890  Biso   1.000  H
  H117     1.0000 0.61220  0.72980  0.01590  Biso   1.000  H
  H118     1.0000 0.38780  0.27020  0.98410  Biso   1.000  H
  C53      1.0000 0.64640  0.80770  0.02080  Biso   1.000  C
  C54      1.0000 0.35360  0.19230  0.97920  Biso   1.000  C
  H119     1.0000 0.72290  0.80430  0.02150  Biso   1.000  H
  H120     1.0000 0.27710  0.19570  0.97850  Biso   1.000  H
  H121     1.0000 0.62800  0.82650  0.97910  Biso   1.000  H
  H122     1.0000 0.37200  0.17350  0.02090  Biso   1.000  H
  N19      1.0000 0.60490  0.84100  0.05880  Biso   1.000  N
  N20      1.0000 0.39510  0.15900  0.94120  Biso   1.000  N
  H123     1.0000 0.53370  0.84410  0.05440  Biso   1.000  H
  H124     1.0000 0.46630  0.15590  0.94560  Biso   1.000  H
  C55      1.0000 0.64200  0.89880  0.03720  Biso   1.000  C
  C56      1.0000 0.35800  0.10120  0.96280  Biso   1.000  C
  H125     1.0000 0.61130  0.91950  0.99880  Biso   1.000  H
  H126     1.0000 0.38870  0.08050  0.00120  Biso   1.000  H
  H127     1.0000 0.71820  0.89810  0.02990  Biso   1.000  H
  H128     1.0000 0.28180  0.10190  0.97010  Biso   1.000  H
  C57      1.0000 0.61440  0.92940  0.08040  Biso   1.000  C
  C58      1.0000 0.38560  0.07060  0.91960  Biso   1.000  C
  H129     1.0000 0.53840  0.93570  0.08360  Biso   1.000  H
  H130     1.0000 0.46160  0.06430  0.91640  Biso   1.000  H
  H131     1.0000 0.64830  0.96660  0.06700  Biso   1.000  H
  H132     1.0000 0.35170  0.03340  0.93300  Biso   1.000  H
  N21      1.0000 0.65250  0.89280  0.14000  Biso   1.000  N
  N22      1.0000 0.34750  0.10720  0.86000  Biso   1.000  N
  H133     1.0000 0.72440  0.89550  0.13690  Biso   1.000  H
  H134     1.0000 0.27560  0.10450  0.86310  Biso   1.000  H
  C59      1.0000 0.61580  0.91080  0.19050  Biso   1.000  C
  C60      1.0000 0.38420  0.08920  0.80950  Biso   1.000  C
  H135     1.0000 0.53920  0.90830  0.19580  Biso   1.000  H
  H136     1.0000 0.46080  0.09170  0.80420  Biso   1.000  H
  H137     1.0000 0.63410  0.95070  0.18200  Biso   1.000  H
  H138     1.0000 0.36590  0.04930  0.81800  Biso   1.000  H
  C61      1.0000 0.66340  0.87440  0.24750  Biso   1.000  C
  C62      1.0000 0.33660  0.12560  0.75250  Biso   1.000  C
  H139     1.0000 0.64770  0.89230  0.27840  Biso   1.000  H
  H140     1.0000 0.35230  0.10770  0.72160  Biso   1.000  H
  H141     1.0000 0.73980  0.87390  0.24000  Biso   1.000  H
  H142     1.0000 0.26020  0.12610  0.76000  Biso   1.000  H
  C63      1.0000 0.62700  0.81350  0.27210  Biso   1.000  C
  C64      1.0000 0.37300  0.18650  0.72790  Biso   1.000  C
  H143     1.0000 0.65490  0.79540  0.31190  Biso   1.000  H
  H144     1.0000 0.34510  0.20460  0.68810  Biso   1.000  H
  H145     1.0000 0.55060  0.81380  0.27740  Biso   1.000  H
  H146     1.0000 0.44940  0.18620  0.72260  Biso   1.000  H
  N23      1.0000 0.65900  0.77960  0.23480  Biso   1.000  N
  N24      1.0000 0.34100  0.22040  0.76520  Biso   1.000  N
  H147     1.0000 0.73090  0.77570  0.23470  Biso   1.000  H
  H148     1.0000 0.26910  0.22430  0.76530  Biso   1.000  H
  C65      1.0000 0.61770  0.72430  0.25900  Biso   1.000  C
  C66      1.0000 0.38230  0.27570  0.74100  Biso   1.000  C
  H149     1.0000 0.54230  0.72680  0.26870  Biso   1.000  H
  H150     1.0000 0.45770  0.27320  0.73130  Biso   1.000  H
  H151     1.0000 0.65150  0.70300  0.29620  Biso   1.000  H
  H152     1.0000 0.34850  0.29700  0.70380  Biso   1.000  H
  C67      1.0000 0.63750  0.69390  0.21310  Biso   1.000  C
  C68      1.0000 0.36250  0.30610  0.78690  Biso   1.000  C
  H153     1.0000 0.71270  0.68610  0.20830  Biso   1.000  H
  H154     1.0000 0.28730  0.31390  0.79170  Biso   1.000  H
  H155     1.0000 0.60130  0.65750  0.22700  Biso   1.000  H
  H156     1.0000 0.39870  0.34250  0.77300  Biso   1.000  H
  Cu7      1.0000 0.91530  0.69238  0.85155  Biso   1.000  Cu
  Cu8      1.0000 0.08470  0.30762  0.14845  Biso   1.000  Cu
  N25      1.0000 0.93750  0.77020  0.78690  Biso   1.000  N
  N26      1.0000 0.06250  0.22980  0.21310  Biso   1.000  N
  H157     1.0000 0.00700  0.77260  0.77350  Biso   1.000  H
  H158     1.0000 0.99300  0.22740  0.22650  Biso   1.000  H
  N27      1.0000 0.94200  0.65340  0.79170  Biso   1.000  N
  N28      1.0000 0.05800  0.34660  0.20830  Biso   1.000  N
  H159     1.0000 0.01060  0.65990  0.77710  Biso   1.000  H
  H160     1.0000 0.98940  0.34010  0.22290  Biso   1.000  H
  N29      1.0000 0.88030  0.61480  0.90910  Biso   1.000  N
  N30      1.0000 0.11970  0.38520  0.09090  Biso   1.000  N
  H161     1.0000 0.81120  0.60840  0.90530  Biso   1.000  H
  H162     1.0000 0.18880  0.39160  0.09470  Biso   1.000  H
  N31      1.0000 0.86760  0.73460  0.90510  Biso   1.000  N
  N32      1.0000 0.13240  0.26540  0.09490  Biso   1.000  N
  H163     1.0000 0.79740  0.74350  0.90020  Biso   1.000  H
  H164     1.0000 0.20260  0.25650  0.09980  Biso   1.000  H
  C69      1.0000 0.87400  0.77740  0.73510  Biso   1.000  C
  C70      1.0000 0.12600  0.22260  0.26490  Biso   1.000  C
  H165     1.0000 0.80010  0.77320  0.74970  Biso   1.000  H
  H166     1.0000 0.19990  0.22680  0.25030  Biso   1.000  H
  H167     1.0000 0.88210  0.81650  0.70740  Biso   1.000  H
  H168     1.0000 0.11790  0.18350  0.29260  Biso   1.000  H
  C71      1.0000 0.89700  0.73960  0.70250  Biso   1.000  C
  C72      1.0000 0.10300  0.26040  0.29750  Biso   1.000  C
  H169     1.0000 0.97170  0.74280  0.68860  Biso   1.000  H
  H170     1.0000 0.02830  0.25720  0.31140  Biso   1.000  H
  H171     1.0000 0.85610  0.75110  0.66680  Biso   1.000  H
  H172     1.0000 0.14390  0.24890  0.33320  Biso   1.000  H
  C73      1.0000 0.87500  0.67650  0.73960  Biso   1.000  C
  C74      1.0000 0.12500  0.32350  0.26040  Biso   1.000  C
  H173     1.0000 0.80120  0.67340  0.75440  Biso   1.000  H
  H174     1.0000 0.19880  0.32660  0.24560  Biso   1.000  H
  H175     1.0000 0.88640  0.65330  0.71320  Biso   1.000  H
  H176     1.0000 0.11360  0.34670  0.28680  Biso   1.000  H
  C75      1.0000 0.93200  0.59160  0.82080  Biso   1.000  C
  C76      1.0000 0.06800  0.40840  0.17920  Biso   1.000  C
  H177     1.0000 0.86230  0.58000  0.81460  Biso   1.000  H
  H178     1.0000 0.13770  0.42000  0.18540  Biso   1.000  H
  H179     1.0000 0.98460  0.57140  0.80290  Biso   1.000  H
  H180     1.0000 0.01540  0.42860  0.19710  Biso   1.000  H
  C77      1.0000 0.94500  0.57660  0.88480  Biso   1.000  C
  C78      1.0000 0.05500  0.42340  0.11520  Biso   1.000  C
  H181     1.0000 0.01920  0.58010  0.89140  Biso   1.000  H
  H182     1.0000 0.98080  0.41990  0.10860  Biso   1.000  H
  H183     1.0000 0.92520  0.53700  0.90560  Biso   1.000  H
  H184     1.0000 0.07480  0.46300  0.09440  Biso   1.000  H
  C79      1.0000 0.89400  0.60430  0.97170  Biso   1.000  C
  C80      1.0000 0.10600  0.39570  0.02830  Biso   1.000  C
  H185     1.0000 0.96870  0.60550  0.97810  Biso   1.000  H
  H186     1.0000 0.03130  0.39450  0.02190  Biso   1.000  H
  H187     1.0000 0.86870  0.56630  0.99560  Biso   1.000  H
  H188     1.0000 0.13130  0.43370  0.00440  Biso   1.000  H
  C81      1.0000 0.83300  0.64950  0.99160  Biso   1.000  C
  C82      1.0000 0.16700  0.35050  0.00840  Biso   1.000  C
  H189     1.0000 0.76240  0.65310  0.97730  Biso   1.000  H
  H190     1.0000 0.23760  0.34690  0.02270  Biso   1.000  H
  H191     1.0000 0.82680  0.63660  0.03570  Biso   1.000  H
  H192     1.0000 0.17320  0.36340  0.96430  Biso   1.000  H
  C83      1.0000 0.88200  0.70710  0.96940  Biso   1.000  C
  C84      1.0000 0.11800  0.29290  0.03060  Biso   1.000  C
  H193     1.0000 0.84940  0.73090  0.99180  Biso   1.000  H
  H194     1.0000 0.15060  0.26910  0.00820  Biso   1.000  H
  H195     1.0000 0.95690  0.70310  0.97630  Biso   1.000  H
  H196     1.0000 0.04310  0.29690  0.02370  Biso   1.000  H
  C85      1.0000 0.92780  0.78970  0.88200  Biso   1.000  C
  C86      1.0000 0.07220  0.21030  0.11800  Biso   1.000  C
  H197     1.0000 0.89930  0.81690  0.90140  Biso   1.000  H
  H198     1.0000 0.10070  0.18310  0.09860  Biso   1.000  H
  H199     1.0000 0.00210  0.78240  0.89020  Biso   1.000  H
  H200     1.0000 0.99790  0.21760  0.10980  Biso   1.000  H
  C87      1.0000 0.91510  0.81210  0.81670  Biso   1.000  C
  C88      1.0000 0.08490  0.18790  0.18330  Biso   1.000  C
  H201     1.0000 0.84290  0.82650  0.80980  Biso   1.000  H
  H202     1.0000 0.15710  0.17350  0.19020  Biso   1.000  H
  H203     1.0000 0.96180  0.84440  0.79860  Biso   1.000  H
  H204     1.0000 0.03820  0.15560  0.20140  Biso   1.000  H
  Cu9      1.0000 0.39390  0.78340  0.46840  Biso   1.000  Cu
  Cu10     1.0000 0.60610  0.21660  0.53160  Biso   1.000  Cu
  N33      1.0000 0.49700  0.72210  0.50990  Biso   1.000  N
  N34      1.0000 0.50300  0.27790  0.49010  Biso   1.000  N
  C89      1.0000 0.19600  0.83790  0.46830  Biso   1.000  C
  C90      1.0000 0.80400  0.16210  0.53170  Biso   1.000  C
  H205     1.0000 0.20620  0.85250  0.50120  Biso   1.000  H
  H206     1.0000 0.79380  0.14750  0.49880  Biso   1.000  H
  H207     1.0000 0.13520  0.85790  0.44670  Biso   1.000  H
  H208     1.0000 0.86480  0.14210  0.55330  Biso   1.000  H
  N35      1.0000 0.29200  0.84620  0.42630  Biso   1.000  N
  N36      1.0000 0.70800  0.15380  0.57370  Biso   1.000  N
  H209     1.0000 0.27310  0.83800  0.39320  Biso   1.000  H
  H210     1.0000 0.72690  0.16200  0.60680  Biso   1.000  H
  C91      1.0000 0.32500  0.90500  0.40400  Biso   1.000  C
  C92      1.0000 0.67500  0.09500  0.59600  Biso   1.000  C
  H211     1.0000 0.33670  0.91780  0.43820  Biso   1.000  H
  H212     1.0000 0.66330  0.08220  0.56180  Biso   1.000  H
  H213     1.0000 0.26980  0.92940  0.38100  Biso   1.000  H
  H214     1.0000 0.73020  0.07060  0.61900  Biso   1.000  H
  C93      1.0000 0.42400  0.91010  0.36500  Biso   1.000  C
  C94      1.0000 0.57600  0.08990  0.63500  Biso   1.000  C
  H215     1.0000 0.43830  0.95070  0.34520  Biso   1.000  H
  H216     1.0000 0.56170  0.04930  0.65480  Biso   1.000  H
  H217     1.0000 0.41240  0.89400  0.33330  Biso   1.000  H
  H218     1.0000 0.58760  0.10600  0.66670  Biso   1.000  H
  C95      1.0000 0.52000  0.88130  0.39700  Biso   1.000  C
  C96      1.0000 0.48000  0.11870  0.60300  Biso   1.000  C
  H219     1.0000 0.58190  0.89440  0.36940  Biso   1.000  H
  H220     1.0000 0.41810  0.10560  0.63060  Biso   1.000  H
  H221     1.0000 0.52650  0.89380  0.43160  Biso   1.000  H
  H222     1.0000 0.47350  0.10620  0.56840  Biso   1.000  H
  N37      1.0000 0.52100  0.82030  0.41720  Biso   1.000  N
  N38      1.0000 0.47900  0.17970  0.58280  Biso   1.000  N
  H223     1.0000 0.52150  0.81020  0.38300  Biso   1.000  H
  H224     1.0000 0.47850  0.18980  0.61700  Biso   1.000  H
  C97      1.0000 0.61400  0.79650  0.44600  Biso   1.000  C
  C98      1.0000 0.38600  0.20350  0.55400  Biso   1.000  C
  H225     1.0000 0.62660  0.81320  0.47660  Biso   1.000  H
  H226     1.0000 0.37340  0.18680  0.52340  Biso   1.000  H
  H227     1.0000 0.67350  0.80420  0.41610  Biso   1.000  H
  H228     1.0000 0.32650  0.19580  0.58390  Biso   1.000  H
  C99      1.0000 0.59800  0.73240  0.47400  Biso   1.000  C
  C100     1.0000 0.40200  0.26760  0.52600  Biso   1.000  C
  N39      1.0000 0.22390  0.73020  0.50060  Biso   1.000  N
  N40      1.0000 0.77610  0.26980  0.49940  Biso   1.000  N
  C101     1.0000 0.36200  0.65510  0.56870  Biso   1.000  C
  C102     1.0000 0.63800  0.34490  0.43130  Biso   1.000  C
  C103     1.0000 0.26500  0.68370  0.53900  Biso   1.000  C
  C104     1.0000 0.73500  0.31630  0.46100  Biso   1.000  C
  C105     1.0000 0.45900  0.66420  0.52700  Biso   1.000  C
  C106     1.0000 0.54100  0.33580  0.47300  Biso   1.000  C
  H229     1.0000 0.22330  0.72280  0.46490  Biso   1.000  H
  H230     1.0000 0.77670  0.27720  0.53510  Biso   1.000  H
  C107     1.0000 0.17900  0.77520  0.49200  Biso   1.000  C
  C108     1.0000 0.82100  0.22480  0.50800  Biso   1.000  C
  Cu11     1.0000 0.81900  0.61220  0.52940  Biso   1.000  Cu
  Cu12     1.0000 0.18100  0.38780  0.47060  Biso   1.000  Cu
  N41      1.0000 0.73400  0.67720  0.47600  Biso   1.000  N
  N42      1.0000 0.26600  0.32280  0.52400  Biso   1.000  N
  H231     1.0000 0.77060  0.68980  0.43900  Biso   1.000  H
  H232     1.0000 0.22940  0.31020  0.56100  Biso   1.000  H
  C109     1.0000 0.63100  0.66100  0.46600  Biso   1.000  C
  C110     1.0000 0.36900  0.33900  0.53400  Biso   1.000  C
  C111     1.0000 0.63700  0.61710  0.43480  Biso   1.000  C
  C112     1.0000 0.36300  0.38290  0.56520  Biso   1.000  C
  H233     1.0000 0.68380  0.63090  0.39840  Biso   1.000  H
  H234     1.0000 0.31620  0.36910  0.60160  Biso   1.000  H
  H235     1.0000 0.56750  0.61310  0.42230  Biso   1.000  H
  H236     1.0000 0.43250  0.38690  0.57770  Biso   1.000  H
  C113     1.0000 0.67700  0.55950  0.47300  Biso   1.000  C
  C114     1.0000 0.32300  0.44050  0.52700  Biso   1.000  C
  H237     1.0000 0.63630  0.54740  0.51190  Biso   1.000  H
  H238     1.0000 0.36370  0.45260  0.48810  Biso   1.000  H
  H239     1.0000 0.66640  0.53150  0.45290  Biso   1.000  H
  H240     1.0000 0.33360  0.46850  0.54710  Biso   1.000  H
  N43      1.0000 0.78800  0.56130  0.48280  Biso   1.000  N
  N44      1.0000 0.21200  0.43870  0.51720  Biso   1.000  N
  H241     1.0000 0.82440  0.57420  0.44580  Biso   1.000  H
  H242     1.0000 0.17560  0.42580  0.55420  Biso   1.000  H
  C115     1.0000 0.83000  0.50540  0.51550  Biso   1.000  C
  C116     1.0000 0.17000  0.49460  0.48450  Biso   1.000  C
  H243     1.0000 0.84490  0.48390  0.48770  Biso   1.000  H
  H244     1.0000 0.15510  0.51610  0.51230  Biso   1.000  H
  H245     1.0000 0.77710  0.48470  0.54640  Biso   1.000  H
  H246     1.0000 0.22290  0.51530  0.45360  Biso   1.000  H
  C117     1.0000 0.92700  0.50960  0.54440  Biso   1.000  C
  C118     1.0000 0.07300  0.49040  0.45560  Biso   1.000  C
  H247     1.0000 0.98230  0.52650  0.51370  Biso   1.000  H
  H248     1.0000 0.01770  0.47350  0.48630  Biso   1.000  H
  H249     1.0000 0.95030  0.47170  0.56930  Biso   1.000  H
  H250     1.0000 0.04970  0.52830  0.43070  Biso   1.000  H
  N45      1.0000 0.90100  0.54670  0.58270  Biso   1.000  N
  N46      1.0000 0.09900  0.45330  0.41730  Biso   1.000  N
  H251     1.0000 0.85490  0.52670  0.61360  Biso   1.000  H
  H252     1.0000 0.14510  0.47330  0.38640  Biso   1.000  H
  C119     1.0000 0.99300  0.55640  0.61000  Biso   1.000  C
  C120     1.0000 0.00700  0.44360  0.39000  Biso   1.000  C
  H253     1.0000 0.05090  0.56770  0.57970  Biso   1.000  H
  H254     1.0000 0.94910  0.43230  0.42030  Biso   1.000  H
  H255     1.0000 0.01350  0.52080  0.64120  Biso   1.000  H
  H256     1.0000 0.98650  0.47920  0.35880  Biso   1.000  H
  C121     1.0000 0.97200  0.60180  0.63870  Biso   1.000  C
  C122     1.0000 0.02800  0.39820  0.36130  Biso   1.000  C
  H257     1.0000 0.03230  0.60330  0.66160  Biso   1.000  H
  H258     1.0000 0.96770  0.39670  0.33840  Biso   1.000  H
  H259     1.0000 0.91080  0.59150  0.66710  Biso   1.000  H
  H260     1.0000 0.08920  0.40850  0.33290  Biso   1.000  H
  C123     1.0000 0.95300  0.66080  0.59400  Biso   1.000  C
  C124     1.0000 0.04700  0.33920  0.40600  Biso   1.000  C
  H261     1.0000 0.96180  0.68950  0.61280  Biso   1.000  H
  H262     1.0000 0.03820  0.31050  0.38720  Biso   1.000  H
  H263     1.0000 0.00540  0.66760  0.55970  Biso   1.000  H
  H264     1.0000 0.99460  0.33240  0.44030  Biso   1.000  H
  N47      1.0000 0.85000  0.66740  0.57100  Biso   1.000  N
  N48      1.0000 0.15000  0.33260  0.42900  Biso   1.000  N
  H265     1.0000 0.80110  0.66320  0.60270  Biso   1.000  H
  H266     1.0000 0.19890  0.33680  0.39730  Biso   1.000  H
  C125     1.0000 0.83700  0.72280  0.52800  Biso   1.000  C
  C126     1.0000 0.16300  0.27720  0.47200  Biso   1.000  C
  H267     1.0000 0.89390  0.73030  0.49660  Biso   1.000  H
  H268     1.0000 0.10610  0.26970  0.50340  Biso   1.000  H
  H269     1.0000 0.83790  0.75190  0.54780  Biso   1.000  H
  H270     1.0000 0.16210  0.24810  0.45220  Biso   1.000  H
  C127     1.0000 0.73200  0.72410  0.50100  Biso   1.000  C
  C128     1.0000 0.26800  0.27590  0.49900  Biso   1.000  C
  Cu13     1.0000 0.10410  0.68610  0.55530  Biso   1.000  Cu
  Cu14     1.0000 0.89590  0.31390  0.44470  Biso   1.000  Cu
  N49      1.0000 0.21500  0.63040  0.59500  Biso   1.000  N
  N50      1.0000 0.78500  0.36960  0.40500  Biso   1.000  N
  H271     1.0000 0.23090  0.63850  0.62870  Biso   1.000  H
  H272     1.0000 0.76910  0.36150  0.37130  Biso   1.000  H
  C129     1.0000 0.18700  0.57020  0.61480  Biso   1.000  C
  C130     1.0000 0.81300  0.42980  0.38520  Biso   1.000  C
  H273     1.0000 0.24680  0.54670  0.63420  Biso   1.000  H
  H274     1.0000 0.75320  0.45330  0.36580  Biso   1.000  H
  H275     1.0000 0.17330  0.55960  0.57970  Biso   1.000  H
  H276     1.0000 0.82670  0.44040  0.42030  Biso   1.000  H
  C131     1.0000 0.09300  0.55840  0.65820  Biso   1.000  C
  C132     1.0000 0.90700  0.44160  0.34180  Biso   1.000  C
  H277     1.0000 0.10100  0.57710  0.68810  Biso   1.000  H
  H278     1.0000 0.89900  0.42290  0.31190  Biso   1.000  H
  H279     1.0000 0.08990  0.51720  0.67950  Biso   1.000  H
  H280     1.0000 0.91010  0.48280  0.32050  Biso   1.000  H
  C133     1.0000 0.99100  0.57840  0.62900  Biso   1.000  C
  C134     1.0000 0.00900  0.42160  0.37100  Biso   1.000  C
  H281     1.0000 0.98460  0.56300  0.59610  Biso   1.000  H
  H282     1.0000 0.01540  0.43700  0.40390  Biso   1.000  H
  H283     1.0000 0.93190  0.56480  0.65850  Biso   1.000  H
  H284     1.0000 0.06810  0.43520  0.34150  Biso   1.000  H
  N51      1.0000 0.98780  0.64100  0.60500  Biso   1.000  N
  N52      1.0000 0.01220  0.35900  0.39500  Biso   1.000  N
  H285     1.0000 0.98340  0.65150  0.63900  Biso   1.000  H
  H286     1.0000 0.01660  0.34850  0.36100  Biso   1.000  H
  C135     1.0000 0.89300  0.66410  0.57600  Biso   1.000  C
  C136     1.0000 0.10700  0.33590  0.42400  Biso   1.000  C
  H287     1.0000 0.83270  0.65200  0.60540  Biso   1.000  H
  H288     1.0000 0.16730  0.34800  0.39460  Biso   1.000  H
  H289     1.0000 0.88420  0.64890  0.54340  Biso   1.000  H
  H290     1.0000 0.11580  0.35110  0.45660  Biso   1.000  H
  C137     1.0000 0.89300  0.72730  0.55200  Biso   1.000  C
  C138     1.0000 0.10700  0.27270  0.44800  Biso   1.000  C
  H291     1.0000 0.89140  0.74330  0.58440  Biso   1.000  H
  H292     1.0000 0.10860  0.25670  0.41560  Biso   1.000  H
  H293     1.0000 0.83180  0.74190  0.52800  Biso   1.000  H
  H294     1.0000 0.16820  0.25810  0.47200  Biso   1.000  H
  N53      1.0000 0.99200  0.74330  0.51230  Biso   1.000  N
  N54      1.0000 0.00800  0.25670  0.48770  Biso   1.000  N
  H295     1.0000 0.98310  0.73850  0.47600  Biso   1.000  H
  H296     1.0000 0.01690  0.26150  0.52400  Biso   1.000  H
  C139     1.0000 0.02000  0.80230  0.50100  Biso   1.000  C
  C140     1.0000 0.98000  0.19770  0.49900  Biso   1.000  C
  H297     1.0000 0.03410  0.80770  0.53890  Biso   1.000  H
  H298     1.0000 0.96590  0.19230  0.46110  Biso   1.000  H
  H299     1.0000 0.96080  0.82760  0.48380  Biso   1.000  H
  H300     1.0000 0.03920  0.17240  0.51620  Biso   1.000  H
  C141     1.0000 0.11500  0.81700  0.45810  Biso   1.000  C
  C142     1.0000 0.88500  0.18300  0.54190  Biso   1.000  C
  H301     1.0000 0.12070  0.85850  0.44230  Biso   1.000  H
  H302     1.0000 0.87930  0.14150  0.55770  Biso   1.000  H
  H303     1.0000 0.10460  0.80390  0.42400  Biso   1.000  H
  H304     1.0000 0.89540  0.19610  0.57600  Biso   1.000  H
  C143     1.0000 0.21600  0.79100  0.48600  Biso   1.000  C
  C144     1.0000 0.78400  0.20900  0.51400  Biso   1.000  C
  H305     1.0000 0.27510  0.80820  0.45790  Biso   1.000  H
  H306     1.0000 0.72490  0.19180  0.54210  Biso   1.000  H
  H307     1.0000 0.22220  0.80040  0.52280  Biso   1.000  H
  H308     1.0000 0.77780  0.19960  0.47720  Biso   1.000  H
  C145     1.0000 0.31900  0.70750  0.52640  Biso   1.000  C
  C146     1.0000 0.68100  0.29250  0.47360  Biso   1.000  C
  H309     1.0000 0.33340  0.72310  0.55800  Biso   1.000  H
  H310     1.0000 0.66660  0.27690  0.44200  Biso   1.000  H
  H311     1.0000 0.37750  0.71720  0.49560  Biso   1.000  H
  H312     1.0000 0.62250  0.28280  0.50440  Biso   1.000  H
  C147     1.0000 0.30900  0.64290  0.55280  Biso   1.000  C
  C148     1.0000 0.69100  0.35710  0.44720  Biso   1.000  C
  H313     1.0000 0.30150  0.62700  0.52050  Biso   1.000  H
  H314     1.0000 0.69850  0.37300  0.47950  Biso   1.000  H
  H315     1.0000 0.37140  0.62570  0.57400  Biso   1.000  H
  H316     1.0000 0.62860  0.37430  0.42600  Biso   1.000  H
  Cu15     1.0000 0.48170  0.94840  0.44790  Biso   1.000  Cu
  Cu16     1.0000 0.51830  0.05160  0.55210  Biso   1.000  Cu
  N55      1.0000 0.34200  0.92800  0.42600  Biso   1.000  N
  N56      1.0000 0.65800  0.07200  0.57400  Biso   1.000  N
  H317     1.0000 0.32450  0.89350  0.45430  Biso   1.000  H
  H318     1.0000 0.67550  0.10650  0.54570  Biso   1.000  H
  C149     1.0000 0.25500  0.96700  0.42800  Biso   1.000  C
  C150     1.0000 0.74500  0.03300  0.57200  Biso   1.000  C
  H319     1.0000 0.19180  0.95420  0.41590  Biso   1.000  H
  H320     1.0000 0.80820  0.04580  0.58410  Biso   1.000  H
  H321     1.0000 0.27130  0.00510  0.39900  Biso   1.000  H
  H322     1.0000 0.72870  0.99490  0.60100  Biso   1.000  H
  C151     1.0000 0.23500  0.97200  0.49000  Biso   1.000  C
  C152     1.0000 0.76500  0.02800  0.51000  Biso   1.000  C
  H323     1.0000 0.23660  0.93310  0.51920  Biso   1.000  H
  H324     1.0000 0.76340  0.06690  0.48080  Biso   1.000  H
  H325     1.0000 0.16500  0.98800  0.49240  Biso   1.000  H
  H326     1.0000 0.83500  0.01200  0.50760  Biso   1.000  H
  C153     1.0000 0.31200  0.00700  0.50600  Biso   1.000  C
  C154     1.0000 0.68800  0.99300  0.49400  Biso   1.000  C
  H327     1.0000 0.31060  0.04600  0.47770  Biso   1.000  H
  H328     1.0000 0.68940  0.95400  0.52230  Biso   1.000  H
  H329     1.0000 0.29250  0.00850  0.54650  Biso   1.000  H
  H330     1.0000 0.70750  0.99150  0.45350  Biso   1.000  H
  N57      1.0000 0.41900  0.98300  0.50500  Biso   1.000  N
  N58      1.0000 0.58100  0.01700  0.49500  Biso   1.000  N
  H331     1.0000 0.41950  0.95330  0.54140  Biso   1.000  H
  H332     1.0000 0.58050  0.04670  0.45860  Biso   1.000  H
  C155     1.0000 0.49700  0.02000  0.51100  Biso   1.000  C
  C156     1.0000 0.50300  0.98000  0.48900  Biso   1.000  C
  H333     1.0000 0.48090  0.02910  0.54810  Biso   1.000  H
  H334     1.0000 0.51910  0.97090  0.45190  Biso   1.000  H
  H335     1.0000 0.49470  0.05590  0.47710  Biso   1.000  H
  H336     1.0000 0.50530  0.94410  0.52290  Biso   1.000  H
  C157     1.0000 0.60400  0.99500  0.51200  Biso   1.000  C
  C158     1.0000 0.39600  0.00500  0.48800  Biso   1.000  C
  H337     1.0000 0.61150  0.96240  0.54920  Biso   1.000  H
  H338     1.0000 0.38850  0.03760  0.45080  Biso   1.000  H
  H339     1.0000 0.65600  0.02360  0.51150  Biso   1.000  H
  H340     1.0000 0.34400  0.97640  0.48850  Biso   1.000  H
  N59      1.0000 0.62200  0.97700  0.45800  Biso   1.000  N
  N60      1.0000 0.37800  0.02300  0.54200  Biso   1.000  N
  H341     1.0000 0.63540  0.00920  0.42520  Biso   1.000  H
  H342     1.0000 0.36460  0.99080  0.57480  Biso   1.000  H
  C159     1.0000 0.71100  0.93800  0.46200  Biso   1.000  C
  C160     1.0000 0.28900  0.06200  0.53800  Biso   1.000  C
  H343     1.0000 0.70470  0.90760  0.50110  Biso   1.000  H
  H344     1.0000 0.29530  0.09240  0.49890  Biso   1.000  H
  H345     1.0000 0.77480  0.95900  0.46120  Biso   1.000  H
  H346     1.0000 0.22520  0.04100  0.53880  Biso   1.000  H
  C161     1.0000 0.72100  0.91300  0.41300  Biso   1.000  C
  C162     1.0000 0.27900  0.08700  0.58700  Biso   1.000  C
  H347     1.0000 0.78410  0.88790  0.41920  Biso   1.000  H
  H348     1.0000 0.21590  0.11210  0.58080  Biso   1.000  H
  H349     1.0000 0.73330  0.94360  0.37480  Biso   1.000  H
  H350     1.0000 0.26670  0.05640  0.62520  Biso   1.000  H
  C163     1.0000 0.63000  0.87900  0.40800  Biso   1.000  C
  C164     1.0000 0.37000  0.12100  0.59200  Biso   1.000  C
  H351     1.0000 0.65170  0.85650  0.38130  Biso   1.000  H
  H352     1.0000 0.34830  0.14350  0.61870  Biso   1.000  H
  H353     1.0000 0.60980  0.85150  0.44770  Biso   1.000  H
  H354     1.0000 0.39020  0.14850  0.55230  Biso   1.000  H
  N61      1.0000 0.54100  0.91410  0.38440  Biso   1.000  N
  N62      1.0000 0.45900  0.08590  0.61560  Biso   1.000  N
  H355     1.0000 0.56320  0.94330  0.35060  Biso   1.000  H
  H356     1.0000 0.43680  0.05670  0.64940  Biso   1.000  H
  C165     1.0000 0.46300  0.88410  0.36800  Biso   1.000  C
  C166     1.0000 0.53700  0.11590  0.63200  Biso   1.000  C
  H357     1.0000 0.45800  0.84550  0.39760  Biso   1.000  H
  H358     1.0000 0.54200  0.15450  0.60240  Biso   1.000  H
  H359     1.0000 0.48160  0.88140  0.32850  Biso   1.000  H
  H360     1.0000 0.51840  0.11860  0.67150  Biso   1.000  H
  C167     1.0000 0.36000  0.91700  0.36800  Biso   1.000  C
  C168     1.0000 0.64000  0.08300  0.63200  Biso   1.000  C
  H361     1.0000 0.36160  0.95270  0.33460  Biso   1.000  H
  H362     1.0000 0.63840  0.04730  0.66540  Biso   1.000  H
  H363     1.0000 0.30250  0.89400  0.36320  Biso   1.000  H
  H364     1.0000 0.69750  0.10600  0.63680  Biso   1.000  H
  H365     1.0000 0.50920  0.72810  0.54540  Biso   1.000  H
  H366     1.0000 0.49080  0.27190  0.45460  Biso   1.000  H
  H367     1.0000 0.51420  0.63740  0.54740  Biso   1.000  H
  H368     1.0000 0.48580  0.36260  0.45260  Biso   1.000  H
  H369     1.0000 0.44420  0.65580  0.49100  Biso   1.000  H
  H370     1.0000 0.55580  0.34420  0.50900  Biso   1.000  H
  N63      1.0000 0.27260  0.74590  0.51940  Biso   1.000  N
  N64      1.0000 0.72740  0.25410  0.48060  Biso   1.000  N
  H371     1.0000 0.27530  0.75450  0.55430  Biso   1.000  H
  H372     1.0000 0.72470  0.24550  0.44570  Biso   1.000  H
  H373     1.0000 0.59870  0.71490  0.44250  Biso   1.000  H
  H374     1.0000 0.40130  0.28510  0.55750  Biso   1.000  H
  H375     1.0000 0.65590  0.71520  0.50000  Biso   1.000  H
  H376     1.0000 0.34410  0.28480  0.50000  Biso   1.000  H
  H377     1.0000 0.59300  0.69490  0.44150  Biso   1.000  H
  H378     1.0000 0.40700  0.30510  0.55850  Biso   1.000  H
  H379     1.0000 0.59110  0.64570  0.50480  Biso   1.000  H
  H380     1.0000 0.40890  0.35430  0.49520  Biso   1.000  H
  H381     1.0000 0.16300  0.76190  0.45900  Biso   1.000  H
  H382     1.0000 0.83700  0.23810  0.54100  Biso   1.000  H
  H383     1.0000 0.11980  0.76670  0.52190  Biso   1.000  H
  H384     1.0000 0.88020  0.23330  0.47810  Biso   1.000  H
  H385     1.0000 0.67470  0.71890  0.53240  Biso   1.000  H
  H386     1.0000 0.32530  0.28110  0.46760  Biso   1.000  H
  H387     1.0000 0.72080  0.76080  0.46960  Biso   1.000  H
  H388     1.0000 0.27920  0.23920  0.53040  Biso   1.000  H
  H389     1.0000 0.37390  0.66930  0.60170  Biso   1.000  H
  H390     1.0000 0.62610  0.33070  0.39830  Biso   1.000  H
  H391     1.0000 0.35020  0.61400  0.58620  Biso   1.000  H
  H392     1.0000 0.64980  0.38600  0.41380  Biso   1.000  H
  H393     1.0000 0.25430  0.67180  0.50420  Biso   1.000  H
  H394     1.0000 0.74570  0.32820  0.49580  Biso   1.000  H
  H395     1.0000 0.20360  0.67190  0.56760  Biso   1.000  H
  H396     1.0000 0.79640  0.32810  0.43240  Biso   1.000  H
