data_image0
_cell_length_a       22.8645
_cell_length_b       23.8954
_cell_length_c       14.2051
_cell_angle_alpha    90
_cell_angle_beta     90
_cell_angle_gamma    90

_symmetry_space_group_name_H-M    "P 1"
_symmetry_int_tables_number       1

loop_
  _symmetry_equiv_pos_as_xyz
  'x, y, z'

loop_
  _atom_site_label
  _atom_site_occupancy
  _atom_site_fract_x
  _atom_site_fract_y
  _atom_site_fract_z
  _atom_site_thermal_displace_type
  _atom_site_B_iso_or_equiv
  _atom_site_type_symbol
  Cu1      1.0000 0.16230  0.50714  0.30904  Biso   1.000  Cu
  Cu2      1.0000 0.33770  0.49286  0.80904  Biso   1.000  Cu
  Cu3      1.0000 0.66230  0.99286  0.19096  Biso   1.000  Cu
  Cu4      1.0000 0.83770  0.00714  0.69096  Biso   1.000  Cu
  Cu5      1.0000 0.83770  0.49286  0.69096  Biso   1.000  Cu
  Cu6      1.0000 0.66230  0.50714  0.19096  Biso   1.000  Cu
  Cu7      1.0000 0.33770  0.00714  0.80904  Biso   1.000  Cu
  Cu8      1.0000 0.16230  0.99286  0.30904  Biso   1.000  Cu
  C1       1.0000 0.18090  0.52630  0.10430  Biso   1.000  C
  C2       1.0000 0.31910  0.47370  0.60430  Biso   1.000  C
  C3       1.0000 0.68090  0.97370  0.39570  Biso   1.000  C
  C4       1.0000 0.81910  0.02630  0.89570  Biso   1.000  C
  C5       1.0000 0.81910  0.47370  0.89570  Biso   1.000  C
  C6       1.0000 0.68090  0.52630  0.39570  Biso   1.000  C
  C7       1.0000 0.31910  0.02630  0.60430  Biso   1.000  C
  C8       1.0000 0.18090  0.97370  0.10430  Biso   1.000  C
  H1       1.0000 0.20800  0.55320  0.12300  Biso   1.000  H
  H2       1.0000 0.29200  0.44680  0.62300  Biso   1.000  H
  H3       1.0000 0.70800  0.94680  0.37700  Biso   1.000  H
  H4       1.0000 0.79200  0.05320  0.87700  Biso   1.000  H
  H5       1.0000 0.79200  0.44680  0.87700  Biso   1.000  H
  H6       1.0000 0.70800  0.55320  0.37700  Biso   1.000  H
  H7       1.0000 0.29200  0.05320  0.62300  Biso   1.000  H
  H8       1.0000 0.20800  0.94680  0.12300  Biso   1.000  H
  C9       1.0000 0.17670  0.51350  0.00980  Biso   1.000  C
  C10      1.0000 0.32330  0.48650  0.50980  Biso   1.000  C
  C11      1.0000 0.67670  0.98650  0.49020  Biso   1.000  C
  C12      1.0000 0.82330  0.01350  0.99020  Biso   1.000  C
  C13      1.0000 0.82330  0.48650  0.99020  Biso   1.000  C
  C14      1.0000 0.67670  0.51350  0.49020  Biso   1.000  C
  C15      1.0000 0.32330  0.01350  0.50980  Biso   1.000  C
  C16      1.0000 0.17670  0.98650  0.00980  Biso   1.000  C
  H9       1.0000 0.20060  0.53120  0.96600  Biso   1.000  H
  H10      1.0000 0.29940  0.46880  0.46600  Biso   1.000  H
  H11      1.0000 0.70060  0.96880  0.53400  Biso   1.000  H
  H12      1.0000 0.79940  0.03120  0.03400  Biso   1.000  H
  H13      1.0000 0.79940  0.46880  0.03400  Biso   1.000  H
  H14      1.0000 0.70060  0.53120  0.53400  Biso   1.000  H
  H15      1.0000 0.29940  0.03120  0.46600  Biso   1.000  H
  H16      1.0000 0.20060  0.96880  0.96600  Biso   1.000  H
  C17      1.0000 0.13610  0.47370  0.98100  Biso   1.000  C
  C18      1.0000 0.36390  0.52630  0.48100  Biso   1.000  C
  C19      1.0000 0.63610  0.02630  0.51900  Biso   1.000  C
  C20      1.0000 0.86390  0.97370  0.01900  Biso   1.000  C
  C21      1.0000 0.86390  0.52630  0.01900  Biso   1.000  C
  C22      1.0000 0.63610  0.47370  0.51900  Biso   1.000  C
  C23      1.0000 0.36390  0.97370  0.48100  Biso   1.000  C
  C24      1.0000 0.13610  0.02630  0.98100  Biso   1.000  C
  C25      1.0000 0.10070  0.45030  0.04920  Biso   1.000  C
  C26      1.0000 0.39930  0.54970  0.54920  Biso   1.000  C
  C27      1.0000 0.60070  0.04970  0.45080  Biso   1.000  C
  C28      1.0000 0.89930  0.95030  0.95080  Biso   1.000  C
  C29      1.0000 0.89930  0.54970  0.95080  Biso   1.000  C
  C30      1.0000 0.60070  0.45030  0.45080  Biso   1.000  C
  C31      1.0000 0.39930  0.95030  0.54920  Biso   1.000  C
  C32      1.0000 0.10070  0.04970  0.04920  Biso   1.000  C
  H17      1.0000 0.07160  0.42490  0.03270  Biso   1.000  H
  H18      1.0000 0.42840  0.57510  0.53270  Biso   1.000  H
  H19      1.0000 0.57160  0.07510  0.46730  Biso   1.000  H
  H20      1.0000 0.92840  0.92490  0.96730  Biso   1.000  H
  H21      1.0000 0.92840  0.57510  0.96730  Biso   1.000  H
  H22      1.0000 0.57160  0.42490  0.46730  Biso   1.000  H
  H23      1.0000 0.42840  0.92490  0.53270  Biso   1.000  H
  H24      1.0000 0.07160  0.07510  0.03270  Biso   1.000  H
  C33      1.0000 0.10900  0.46510  0.14150  Biso   1.000  C
  C34      1.0000 0.39100  0.53490  0.64150  Biso   1.000  C
  C35      1.0000 0.60900  0.03490  0.35850  Biso   1.000  C
  C36      1.0000 0.89100  0.96510  0.85850  Biso   1.000  C
  C37      1.0000 0.89100  0.53490  0.85850  Biso   1.000  C
  C38      1.0000 0.60900  0.46510  0.35850  Biso   1.000  C
  C39      1.0000 0.39100  0.96510  0.64150  Biso   1.000  C
  C40      1.0000 0.10900  0.03490  0.14150  Biso   1.000  C
  H25      1.0000 0.08570  0.44810  0.18690  Biso   1.000  H
  H26      1.0000 0.41430  0.55190  0.68690  Biso   1.000  H
  H27      1.0000 0.58570  0.05190  0.31310  Biso   1.000  H
  H28      1.0000 0.91430  0.94810  0.81310  Biso   1.000  H
  H29      1.0000 0.91430  0.55190  0.81310  Biso   1.000  H
  H30      1.0000 0.58570  0.44810  0.31310  Biso   1.000  H
  H31      1.0000 0.41430  0.94810  0.68690  Biso   1.000  H
  H32      1.0000 0.08570  0.05190  0.18690  Biso   1.000  H
  C41      1.0000 0.12940  0.45780  0.88290  Biso   1.000  C
  C42      1.0000 0.37060  0.54220  0.38290  Biso   1.000  C
  C43      1.0000 0.62940  0.04220  0.61710  Biso   1.000  C
  C44      1.0000 0.87060  0.95780  0.11710  Biso   1.000  C
  C45      1.0000 0.87060  0.54220  0.11710  Biso   1.000  C
  C46      1.0000 0.62940  0.45780  0.61710  Biso   1.000  C
  C47      1.0000 0.37060  0.95780  0.38290  Biso   1.000  C
  C48      1.0000 0.12940  0.04220  0.88290  Biso   1.000  C
  C49      1.0000 0.13850  0.45570  0.73540  Biso   1.000  C
  C50      1.0000 0.36150  0.54430  0.23540  Biso   1.000  C
  C51      1.0000 0.63850  0.04430  0.76460  Biso   1.000  C
  C52      1.0000 0.86150  0.95570  0.26460  Biso   1.000  C
  C53      1.0000 0.86150  0.54430  0.26460  Biso   1.000  C
  C54      1.0000 0.63850  0.45570  0.76460  Biso   1.000  C
  C55      1.0000 0.36150  0.95570  0.23540  Biso   1.000  C
  C56      1.0000 0.13850  0.04430  0.73540  Biso   1.000  C
  C57      1.0000 0.15410  0.46820  0.63700  Biso   1.000  C
  C58      1.0000 0.34590  0.53180  0.13700  Biso   1.000  C
  C59      1.0000 0.65410  0.03180  0.86300  Biso   1.000  C
  C60      1.0000 0.84590  0.96820  0.36300  Biso   1.000  C
  C61      1.0000 0.84590  0.53180  0.36300  Biso   1.000  C
  C62      1.0000 0.65410  0.46820  0.86300  Biso   1.000  C
  C63      1.0000 0.34590  0.96820  0.13700  Biso   1.000  C
  C64      1.0000 0.15410  0.03180  0.63700  Biso   1.000  C
  C65      1.0000 0.15350  0.52310  0.60680  Biso   1.000  C
  C66      1.0000 0.34650  0.47690  0.10680  Biso   1.000  C
  C67      1.0000 0.65350  0.97690  0.89320  Biso   1.000  C
  C68      1.0000 0.84650  0.02310  0.39320  Biso   1.000  C
  C69      1.0000 0.84650  0.47690  0.39320  Biso   1.000  C
  C70      1.0000 0.65350  0.52310  0.89320  Biso   1.000  C
  C71      1.0000 0.34650  0.02310  0.10680  Biso   1.000  C
  C72      1.0000 0.15350  0.97690  0.60680  Biso   1.000  C
  H33      1.0000 0.14760  0.55200  0.64960  Biso   1.000  H
  H34      1.0000 0.35240  0.44800  0.14960  Biso   1.000  H
  H35      1.0000 0.64760  0.94800  0.85040  Biso   1.000  H
  H36      1.0000 0.85240  0.05200  0.35040  Biso   1.000  H
  H37      1.0000 0.85240  0.44800  0.35040  Biso   1.000  H
  H38      1.0000 0.64760  0.55200  0.85040  Biso   1.000  H
  H39      1.0000 0.35240  0.05200  0.14960  Biso   1.000  H
  H40      1.0000 0.14760  0.94800  0.64960  Biso   1.000  H
  C73      1.0000 0.16170  0.53500  0.51220  Biso   1.000  C
  C74      1.0000 0.33830  0.46500  0.01220  Biso   1.000  C
  C75      1.0000 0.66170  0.96500  0.98780  Biso   1.000  C
  C76      1.0000 0.83830  0.03500  0.48780  Biso   1.000  C
  C77      1.0000 0.83830  0.46500  0.48780  Biso   1.000  C
  C78      1.0000 0.66170  0.53500  0.98780  Biso   1.000  C
  C79      1.0000 0.33830  0.03500  0.01220  Biso   1.000  C
  C80      1.0000 0.16170  0.96500  0.51220  Biso   1.000  C
  H41      1.0000 0.16100  0.57200  0.49230  Biso   1.000  H
  H42      1.0000 0.33900  0.42800  0.99230  Biso   1.000  H
  H43      1.0000 0.66100  0.92800  0.00770  Biso   1.000  H
  H44      1.0000 0.83900  0.07200  0.50770  Biso   1.000  H
  H45      1.0000 0.83900  0.42800  0.50770  Biso   1.000  H
  H46      1.0000 0.66100  0.57200  0.00770  Biso   1.000  H
  H47      1.0000 0.33900  0.07200  0.99230  Biso   1.000  H
  H48      1.0000 0.16100  0.92800  0.49230  Biso   1.000  H
  C81      1.0000 0.17440  0.44210  0.47880  Biso   1.000  C
  C82      1.0000 0.32560  0.55790  0.97880  Biso   1.000  C
  C83      1.0000 0.67440  0.05790  0.02120  Biso   1.000  C
  C84      1.0000 0.82560  0.94210  0.52120  Biso   1.000  C
  C85      1.0000 0.82560  0.55790  0.52120  Biso   1.000  C
  C86      1.0000 0.67440  0.44210  0.02120  Biso   1.000  C
  C87      1.0000 0.32560  0.94210  0.97880  Biso   1.000  C
  C88      1.0000 0.17440  0.05790  0.47880  Biso   1.000  C
  H49      1.0000 0.18270  0.41420  0.43510  Biso   1.000  H
  H50      1.0000 0.31730  0.58580  0.93510  Biso   1.000  H
  H51      1.0000 0.68270  0.08580  0.06490  Biso   1.000  H
  H52      1.0000 0.81730  0.91420  0.56490  Biso   1.000  H
  H53      1.0000 0.81730  0.58580  0.56490  Biso   1.000  H
  H54      1.0000 0.68270  0.41420  0.06490  Biso   1.000  H
  H55      1.0000 0.31730  0.91420  0.93510  Biso   1.000  H
  H56      1.0000 0.18270  0.08580  0.43510  Biso   1.000  H
  C89      1.0000 0.16700  0.42740  0.57020  Biso   1.000  C
  C90      1.0000 0.33300  0.57260  0.07020  Biso   1.000  C
  C91      1.0000 0.66700  0.07260  0.92980  Biso   1.000  C
  C92      1.0000 0.83300  0.92740  0.42980  Biso   1.000  C
  C93      1.0000 0.83300  0.57260  0.42980  Biso   1.000  C
  C94      1.0000 0.66700  0.42740  0.92980  Biso   1.000  C
  C95      1.0000 0.33300  0.92740  0.07020  Biso   1.000  C
  C96      1.0000 0.16700  0.07260  0.57020  Biso   1.000  C
  H57      1.0000 0.17040  0.39010  0.58820  Biso   1.000  H
  H58      1.0000 0.32960  0.60990  0.08820  Biso   1.000  H
  H59      1.0000 0.67040  0.10990  0.91180  Biso   1.000  H
  H60      1.0000 0.82960  0.89010  0.41180  Biso   1.000  H
  H61      1.0000 0.82960  0.60990  0.41180  Biso   1.000  H
  H62      1.0000 0.67040  0.39010  0.91180  Biso   1.000  H
  H63      1.0000 0.32960  0.89010  0.08820  Biso   1.000  H
  H64      1.0000 0.17040  0.10990  0.58820  Biso   1.000  H
  C97      1.0000 0.05250  0.39160  0.70450  Biso   1.000  C
  C98      1.0000 0.44750  0.60840  0.20450  Biso   1.000  C
  C99      1.0000 0.55250  0.10840  0.79550  Biso   1.000  C
  C100     1.0000 0.94750  0.89160  0.29550  Biso   1.000  C
  C101     1.0000 0.94750  0.60840  0.29550  Biso   1.000  C
  C102     1.0000 0.55250  0.39160  0.79550  Biso   1.000  C
  C103     1.0000 0.44750  0.89160  0.20450  Biso   1.000  C
  C104     1.0000 0.05250  0.10840  0.70450  Biso   1.000  C
  H65      1.0000 0.03720  0.35980  0.73920  Biso   1.000  H
  H66      1.0000 0.46280  0.64020  0.23920  Biso   1.000  H
  H67      1.0000 0.53720  0.14020  0.76080  Biso   1.000  H
  H68      1.0000 0.96280  0.85980  0.26080  Biso   1.000  H
  H69      1.0000 0.96280  0.64020  0.26080  Biso   1.000  H
  H70      1.0000 0.53720  0.35980  0.76080  Biso   1.000  H
  H71      1.0000 0.46280  0.85980  0.23920  Biso   1.000  H
  H72      1.0000 0.03720  0.14020  0.73920  Biso   1.000  H
  H73      1.0000 0.07130  0.37760  0.64800  Biso   1.000  H
  H74      1.0000 0.42870  0.62240  0.14800  Biso   1.000  H
  H75      1.0000 0.57130  0.12240  0.85200  Biso   1.000  H
  H76      1.0000 0.92870  0.87760  0.35200  Biso   1.000  H
  H77      1.0000 0.92870  0.62240  0.35200  Biso   1.000  H
  H78      1.0000 0.57130  0.37760  0.85200  Biso   1.000  H
  H79      1.0000 0.42870  0.87760  0.14800  Biso   1.000  H
  H80      1.0000 0.07130  0.12240  0.64800  Biso   1.000  H
  C105     1.0000 0.95100  0.43220  0.71460  Biso   1.000  C
  C106     1.0000 0.54900  0.56780  0.21460  Biso   1.000  C
  C107     1.0000 0.45100  0.06780  0.78540  Biso   1.000  C
  C108     1.0000 0.04900  0.93220  0.28540  Biso   1.000  C
  C109     1.0000 0.04900  0.56780  0.28540  Biso   1.000  C
  C110     1.0000 0.45100  0.43220  0.78540  Biso   1.000  C
  C111     1.0000 0.54900  0.93220  0.21460  Biso   1.000  C
  C112     1.0000 0.95100  0.06780  0.71460  Biso   1.000  C
  H81      1.0000 0.93670  0.41050  0.76370  Biso   1.000  H
  H82      1.0000 0.56330  0.58950  0.26370  Biso   1.000  H
  H83      1.0000 0.43670  0.08950  0.73630  Biso   1.000  H
  H84      1.0000 0.06330  0.91050  0.23630  Biso   1.000  H
  H85      1.0000 0.06330  0.58950  0.23630  Biso   1.000  H
  H86      1.0000 0.43670  0.41050  0.73630  Biso   1.000  H
  H87      1.0000 0.56330  0.91050  0.26370  Biso   1.000  H
  H88      1.0000 0.93670  0.08950  0.76370  Biso   1.000  H
  C113     1.0000 0.96080  0.49200  0.60650  Biso   1.000  C
  C114     1.0000 0.53920  0.50800  0.10650  Biso   1.000  C
  C115     1.0000 0.46080  0.00800  0.89350  Biso   1.000  C
  C116     1.0000 0.03920  0.99200  0.39350  Biso   1.000  C
  C117     1.0000 0.03920  0.50800  0.39350  Biso   1.000  C
  C118     1.0000 0.46080  0.49200  0.89350  Biso   1.000  C
  C119     1.0000 0.53920  0.99200  0.10650  Biso   1.000  C
  C120     1.0000 0.96080  0.00800  0.60650  Biso   1.000  C
  H89      1.0000 0.95220  0.52120  0.56540  Biso   1.000  H
  H90      1.0000 0.54780  0.47880  0.06540  Biso   1.000  H
  H91      1.0000 0.45220  0.97880  0.93460  Biso   1.000  H
  H92      1.0000 0.04780  0.02120  0.43460  Biso   1.000  H
  H93      1.0000 0.04780  0.47880  0.43460  Biso   1.000  H
  H94      1.0000 0.45220  0.52120  0.93460  Biso   1.000  H
  H95      1.0000 0.54780  0.02120  0.06540  Biso   1.000  H
  H96      1.0000 0.95220  0.97880  0.56540  Biso   1.000  H
  N1       1.0000 0.14830  0.50230  0.16960  Biso   1.000  N
  N2       1.0000 0.35170  0.49770  0.66960  Biso   1.000  N
  N3       1.0000 0.64830  0.99770  0.33040  Biso   1.000  N
  N4       1.0000 0.85170  0.00230  0.83040  Biso   1.000  N
  N5       1.0000 0.85170  0.49770  0.83040  Biso   1.000  N
  N6       1.0000 0.64830  0.50230  0.33040  Biso   1.000  N
  N7       1.0000 0.35170  0.00230  0.66960  Biso   1.000  N
  N8       1.0000 0.14830  0.99770  0.16960  Biso   1.000  N
  N9       1.0000 0.16120  0.47970  0.80950  Biso   1.000  N
  N10      1.0000 0.33880  0.52030  0.30950  Biso   1.000  N
  N11      1.0000 0.66120  0.02030  0.69050  Biso   1.000  N
  N12      1.0000 0.83880  0.97970  0.19050  Biso   1.000  N
  N13      1.0000 0.83880  0.52030  0.19050  Biso   1.000  N
  N14      1.0000 0.66120  0.47970  0.69050  Biso   1.000  N
  N15      1.0000 0.33880  0.97970  0.30950  Biso   1.000  N
  N16      1.0000 0.16120  0.02030  0.80950  Biso   1.000  N
  N17      1.0000 0.08830  0.42250  0.85640  Biso   1.000  N
  N18      1.0000 0.41170  0.57750  0.35640  Biso   1.000  N
  N19      1.0000 0.58830  0.07750  0.64360  Biso   1.000  N
  N20      1.0000 0.91170  0.92250  0.14360  Biso   1.000  N
  N21      1.0000 0.91170  0.57750  0.14360  Biso   1.000  N
  N22      1.0000 0.58830  0.42250  0.64360  Biso   1.000  N
  N23      1.0000 0.41170  0.92250  0.35640  Biso   1.000  N
  N24      1.0000 0.08830  0.07750  0.85640  Biso   1.000  N
  N25      1.0000 0.09470  0.42080  0.76150  Biso   1.000  N
  N26      1.0000 0.40530  0.57920  0.26150  Biso   1.000  N
  N27      1.0000 0.59470  0.07920  0.73850  Biso   1.000  N
  N28      1.0000 0.90530  0.92080  0.23850  Biso   1.000  N
  N29      1.0000 0.90530  0.57920  0.23850  Biso   1.000  N
  N30      1.0000 0.59470  0.42080  0.73850  Biso   1.000  N
  N31      1.0000 0.40530  0.92080  0.26150  Biso   1.000  N
  N32      1.0000 0.09470  0.07920  0.76150  Biso   1.000  N
  N33      1.0000 0.17050  0.49460  0.44910  Biso   1.000  N
  N34      1.0000 0.32950  0.50540  0.94910  Biso   1.000  N
  N35      1.0000 0.67050  0.00540  0.05090  Biso   1.000  N
  N36      1.0000 0.82950  0.99460  0.55090  Biso   1.000  N
  N37      1.0000 0.82950  0.50540  0.55090  Biso   1.000  N
  N38      1.0000 0.67050  0.49460  0.05090  Biso   1.000  N
  N39      1.0000 0.32950  0.99460  0.94910  Biso   1.000  N
  N40      1.0000 0.17050  0.00540  0.44910  Biso   1.000  N
  N41      1.0000 0.00450  0.42870  0.67850  Biso   1.000  N
  N42      1.0000 0.49550  0.57130  0.17850  Biso   1.000  N
  N43      1.0000 0.50450  0.07130  0.82150  Biso   1.000  N
  N44      1.0000 0.99550  0.92870  0.32150  Biso   1.000  N
  N45      1.0000 0.99550  0.57130  0.32150  Biso   1.000  N
  N46      1.0000 0.50450  0.42870  0.82150  Biso   1.000  N
  N47      1.0000 0.49550  0.92870  0.17850  Biso   1.000  N
  N48      1.0000 0.00450  0.07130  0.67850  Biso   1.000  N
  N49      1.0000 0.01100  0.46740  0.60880  Biso   1.000  N
  N50      1.0000 0.48900  0.53260  0.10880  Biso   1.000  N
  N51      1.0000 0.51100  0.03260  0.89120  Biso   1.000  N
  N52      1.0000 0.98900  0.96740  0.39120  Biso   1.000  N
  N53      1.0000 0.98900  0.53260  0.39120  Biso   1.000  N
  N54      1.0000 0.51100  0.46740  0.89120  Biso   1.000  N
  N55      1.0000 0.48900  0.96740  0.10880  Biso   1.000  N
  N56      1.0000 0.01100  0.03260  0.60880  Biso   1.000  N
  N57      1.0000 0.92150  0.47140  0.66970  Biso   1.000  N
  N58      1.0000 0.57850  0.52860  0.16970  Biso   1.000  N
  N59      1.0000 0.42150  0.02860  0.83030  Biso   1.000  N
  N60      1.0000 0.07850  0.97140  0.33030  Biso   1.000  N
  N61      1.0000 0.07850  0.52860  0.33030  Biso   1.000  N
  N62      1.0000 0.42150  0.47140  0.83030  Biso   1.000  N
  N63      1.0000 0.57850  0.97140  0.16970  Biso   1.000  N
  N64      1.0000 0.92150  0.02860  0.66970  Biso   1.000  N
  O1       1.0000 0.23500  0.46360  0.28970  Biso   1.000  O
  O2       1.0000 0.26500  0.53640  0.78970  Biso   1.000  O
  O3       1.0000 0.73500  0.03640  0.21030  Biso   1.000  O
  O4       1.0000 0.76500  0.96360  0.71030  Biso   1.000  O
  O5       1.0000 0.76500  0.53640  0.71030  Biso   1.000  O
  O6       1.0000 0.73500  0.46360  0.21030  Biso   1.000  O
  O7       1.0000 0.26500  0.96360  0.78970  Biso   1.000  O
  O8       1.0000 0.23500  0.03640  0.28970  Biso   1.000  O
  H97      1.0000 0.27040  0.46640  0.30290  Biso   1.000  H
  H98      1.0000 0.22960  0.53360  0.80290  Biso   1.000  H
  H99      1.0000 0.77040  0.03360  0.19710  Biso   1.000  H
  H100     1.0000 0.72960  0.96640  0.69710  Biso   1.000  H
  H101     1.0000 0.72960  0.53360  0.69710  Biso   1.000  H
  H102     1.0000 0.77040  0.46640  0.19710  Biso   1.000  H
  H103     1.0000 0.22960  0.96640  0.80290  Biso   1.000  H
  H104     1.0000 0.27040  0.03360  0.30290  Biso   1.000  H
  H105     1.0000 0.22340  0.43130  0.30980  Biso   1.000  H
  H106     1.0000 0.27660  0.56870  0.80980  Biso   1.000  H
  H107     1.0000 0.72340  0.06870  0.19020  Biso   1.000  H
  H108     1.0000 0.77660  0.93130  0.69020  Biso   1.000  H
  H109     1.0000 0.77660  0.56870  0.69020  Biso   1.000  H
  H110     1.0000 0.72340  0.43130  0.19020  Biso   1.000  H
  H111     1.0000 0.27660  0.93130  0.80980  Biso   1.000  H
  H112     1.0000 0.22340  0.06870  0.30980  Biso   1.000  H
  O9       1.0000 0.20290  0.58940  0.30790  Biso   1.000  O
  O10      1.0000 0.29710  0.41060  0.80790  Biso   1.000  O
  O11      1.0000 0.70290  0.91060  0.19210  Biso   1.000  O
  O12      1.0000 0.79710  0.08940  0.69210  Biso   1.000  O
  O13      1.0000 0.79710  0.41060  0.69210  Biso   1.000  O
  O14      1.0000 0.70290  0.58940  0.19210  Biso   1.000  O
  O15      1.0000 0.29710  0.08940  0.80790  Biso   1.000  O
  O16      1.0000 0.20290  0.91060  0.30790  Biso   1.000  O
  H113     1.0000 0.22250  0.60520  0.35120  Biso   1.000  H
  H114     1.0000 0.27750  0.39480  0.85120  Biso   1.000  H
  H115     1.0000 0.72250  0.89480  0.14880  Biso   1.000  H
  H116     1.0000 0.77750  0.10520  0.64880  Biso   1.000  H
  H117     1.0000 0.77750  0.39480  0.64880  Biso   1.000  H
  H118     1.0000 0.72250  0.60520  0.14880  Biso   1.000  H
  H119     1.0000 0.27750  0.10520  0.85120  Biso   1.000  H
  H120     1.0000 0.22250  0.89480  0.35120  Biso   1.000  H
  H121     1.0000 0.19450  0.61450  0.26840  Biso   1.000  H
  H122     1.0000 0.30550  0.38550  0.76840  Biso   1.000  H
  H123     1.0000 0.69450  0.88550  0.23160  Biso   1.000  H
  H124     1.0000 0.80550  0.11450  0.73160  Biso   1.000  H
  H125     1.0000 0.80550  0.38550  0.73160  Biso   1.000  H
  H126     1.0000 0.69450  0.61450  0.23160  Biso   1.000  H
  H127     1.0000 0.30550  0.11450  0.76840  Biso   1.000  H
  H128     1.0000 0.19450  0.88550  0.26840  Biso   1.000  H
  W1       1.0000 0.94981  0.39683  0.19210  Biso   1.000  W
  W2       1.0000 0.55019  0.60316  0.69210  Biso   1.000  W
  W3       1.0000 0.44981  0.10316  0.30790  Biso   1.000  W
  W4       1.0000 0.05019  0.89684  0.80790  Biso   1.000  W
  W5       1.0000 0.05019  0.60316  0.80790  Biso   1.000  W
  W6       1.0000 0.44981  0.39683  0.30790  Biso   1.000  W
  W7       1.0000 0.55019  0.89684  0.69210  Biso   1.000  W
  W8       1.0000 0.94981  0.10316  0.19210  Biso   1.000  W
  W9       1.0000 0.07981  0.31987  0.27611  Biso   1.000  W
  W10      1.0000 0.42019  0.68013  0.77611  Biso   1.000  W
  W11      1.0000 0.57981  0.18013  0.22389  Biso   1.000  W
  W12      1.0000 0.92019  0.81987  0.72389  Biso   1.000  W
  W13      1.0000 0.92019  0.68013  0.72389  Biso   1.000  W
  W14      1.0000 0.57981  0.31987  0.22389  Biso   1.000  W
  W15      1.0000 0.42019  0.81987  0.77611  Biso   1.000  W
  W16      1.0000 0.07981  0.18013  0.27611  Biso   1.000  W
  W17      1.0000 0.94463  0.32043  0.41823  Biso   1.000  W
  W18      1.0000 0.55537  0.67957  0.91823  Biso   1.000  W
  W19      1.0000 0.44463  0.17957  0.08177  Biso   1.000  W
  W20      1.0000 0.05537  0.82043  0.58177  Biso   1.000  W
  W21      1.0000 0.05537  0.67957  0.58177  Biso   1.000  W
  W22      1.0000 0.44463  0.32043  0.08177  Biso   1.000  W
  W23      1.0000 0.55537  0.82043  0.91823  Biso   1.000  W
  W24      1.0000 0.94463  0.17957  0.41823  Biso   1.000  W
  W25      1.0000 0.82729  0.25000  0.34209  Biso   1.000  W
  W26      1.0000 0.67271  0.75000  0.84209  Biso   1.000  W
  W27      1.0000 0.32729  0.25000  0.15791  Biso   1.000  W
  W28      1.0000 0.17271  0.75000  0.65791  Biso   1.000  W
  W29      1.0000 0.83236  0.17275  0.11685  Biso   1.000  W
  W30      1.0000 0.66764  0.82725  0.61685  Biso   1.000  W
  W31      1.0000 0.33236  0.32725  0.38315  Biso   1.000  W
  W32      1.0000 0.16764  0.67275  0.88315  Biso   1.000  W
  W33      1.0000 0.16764  0.82725  0.88315  Biso   1.000  W
  W34      1.0000 0.33236  0.17275  0.38315  Biso   1.000  W
  W35      1.0000 0.66764  0.67275  0.61685  Biso   1.000  W
  W36      1.0000 0.83236  0.32725  0.11685  Biso   1.000  W
  W37      1.0000 0.95618  0.17301  0.98896  Biso   1.000  W
  W38      1.0000 0.54382  0.82698  0.48896  Biso   1.000  W
  W39      1.0000 0.45618  0.32698  0.51104  Biso   1.000  W
  W40      1.0000 0.04382  0.67302  0.01104  Biso   1.000  W
  W41      1.0000 0.04382  0.82698  0.01104  Biso   1.000  W
  W42      1.0000 0.45618  0.17301  0.51104  Biso   1.000  W
  W43      1.0000 0.54382  0.67302  0.48896  Biso   1.000  W
  W44      1.0000 0.95618  0.32698  0.98896  Biso   1.000  W
  W45      1.0000 0.08650  0.25000  0.07185  Biso   1.000  W
  W46      1.0000 0.41350  0.75000  0.57185  Biso   1.000  W
  W47      1.0000 0.58650  0.25000  0.42815  Biso   1.000  W
  W48      1.0000 0.91350  0.75000  0.92815  Biso   1.000  W
  Si1      1.0000 0.95339  0.25000  0.19999  Biso   1.000  Si
  Si2      1.0000 0.54661  0.75000  0.69999  Biso   1.000  Si
  Si3      1.0000 0.45339  0.25000  0.30001  Biso   1.000  Si
  Si4      1.0000 0.04661  0.75000  0.80001  Biso   1.000  Si
  O17      1.0000 0.96030  0.46570  0.21240  Biso   1.000  O
  O18      1.0000 0.53970  0.53430  0.71240  Biso   1.000  O
  O19      1.0000 0.46030  0.03430  0.28760  Biso   1.000  O
  O20      1.0000 0.03970  0.96570  0.78760  Biso   1.000  O
  O21      1.0000 0.03970  0.53430  0.78760  Biso   1.000  O
  O22      1.0000 0.46030  0.46570  0.28760  Biso   1.000  O
  O23      1.0000 0.53970  0.96570  0.71240  Biso   1.000  O
  O24      1.0000 0.96030  0.03430  0.21240  Biso   1.000  O
  O25      1.0000 0.96520  0.39420  0.05950  Biso   1.000  O
  O26      1.0000 0.53480  0.60580  0.55950  Biso   1.000  O
  O27      1.0000 0.46520  0.10580  0.44050  Biso   1.000  O
  O28      1.0000 0.03480  0.89420  0.94050  Biso   1.000  O
  O29      1.0000 0.03480  0.60580  0.94050  Biso   1.000  O
  O30      1.0000 0.46520  0.39420  0.44050  Biso   1.000  O
  O31      1.0000 0.53480  0.89420  0.55950  Biso   1.000  O
  O32      1.0000 0.96520  0.10580  0.05950  Biso   1.000  O
  O33      1.0000 0.86850  0.39410  0.16310  Biso   1.000  O
  O34      1.0000 0.63150  0.60590  0.66310  Biso   1.000  O
  O35      1.0000 0.36850  0.10590  0.33690  Biso   1.000  O
  O36      1.0000 0.13150  0.89410  0.83690  Biso   1.000  O
  O37      1.0000 0.13150  0.60590  0.83690  Biso   1.000  O
  O38      1.0000 0.36850  0.39410  0.33690  Biso   1.000  O
  O39      1.0000 0.63150  0.89410  0.66310  Biso   1.000  O
  O40      1.0000 0.86850  0.10590  0.16310  Biso   1.000  O
  O41      1.0000 0.93220  0.37040  0.31570  Biso   1.000  O
  O42      1.0000 0.56780  0.62960  0.81570  Biso   1.000  O
  O43      1.0000 0.43220  0.12960  0.18430  Biso   1.000  O
  O44      1.0000 0.06780  0.87040  0.68430  Biso   1.000  O
  O45      1.0000 0.06780  0.62960  0.68430  Biso   1.000  O
  O46      1.0000 0.43220  0.37040  0.18430  Biso   1.000  O
  O47      1.0000 0.56780  0.87040  0.81570  Biso   1.000  O
  O48      1.0000 0.93220  0.12960  0.31570  Biso   1.000  O
  O49      1.0000 0.02650  0.36820  0.21500  Biso   1.000  O
  O50      1.0000 0.47350  0.63180  0.71500  Biso   1.000  O
  O51      1.0000 0.52650  0.13180  0.28500  Biso   1.000  O
  O52      1.0000 0.97350  0.86820  0.78500  Biso   1.000  O
  O53      1.0000 0.97350  0.63180  0.78500  Biso   1.000  O
  O54      1.0000 0.52650  0.36820  0.28500  Biso   1.000  O
  O55      1.0000 0.47350  0.86820  0.71500  Biso   1.000  O
  O56      1.0000 0.02650  0.13180  0.21500  Biso   1.000  O
  O57      1.0000 0.12890  0.36710  0.31960  Biso   1.000  O
  O58      1.0000 0.37110  0.63290  0.81960  Biso   1.000  O
  O59      1.0000 0.62890  0.13290  0.18040  Biso   1.000  O
  O60      1.0000 0.87110  0.86710  0.68040  Biso   1.000  O
  O61      1.0000 0.87110  0.63290  0.68040  Biso   1.000  O
  O62      1.0000 0.62890  0.36710  0.18040  Biso   1.000  O
  O63      1.0000 0.37110  0.86710  0.81960  Biso   1.000  O
  O64      1.0000 0.12890  0.13290  0.31960  Biso   1.000  O
  O65      1.0000 0.11610  0.30580  0.15540  Biso   1.000  O
  O66      1.0000 0.38390  0.69420  0.65540  Biso   1.000  O
  O67      1.0000 0.61610  0.19420  0.34460  Biso   1.000  O
  O68      1.0000 0.88390  0.80580  0.84460  Biso   1.000  O
  O69      1.0000 0.88390  0.69420  0.84460  Biso   1.000  O
  O70      1.0000 0.61610  0.30580  0.34460  Biso   1.000  O
  O71      1.0000 0.38390  0.80580  0.65540  Biso   1.000  O
  O72      1.0000 0.11610  0.19420  0.15540  Biso   1.000  O
  O73      1.0000 0.11260  0.25000  0.31850  Biso   1.000  O
  O74      1.0000 0.38740  0.75000  0.81850  Biso   1.000  O
  O75      1.0000 0.61260  0.25000  0.18150  Biso   1.000  O
  O76      1.0000 0.88740  0.75000  0.68150  Biso   1.000  O
  O77      1.0000 0.02400  0.31620  0.37470  Biso   1.000  O
  O78      1.0000 0.47600  0.68380  0.87470  Biso   1.000  O
  O79      1.0000 0.52400  0.18380  0.12530  Biso   1.000  O
  O80      1.0000 0.97600  0.81620  0.62530  Biso   1.000  O
  O81      1.0000 0.97600  0.68380  0.62530  Biso   1.000  O
  O82      1.0000 0.52400  0.31620  0.12530  Biso   1.000  O
  O83      1.0000 0.47600  0.81620  0.87470  Biso   1.000  O
  O84      1.0000 0.02400  0.18380  0.37470  Biso   1.000  O
  O85      1.0000 0.95070  0.36570  0.51160  Biso   1.000  O
  O86      1.0000 0.54930  0.63430  0.01160  Biso   1.000  O
  O87      1.0000 0.45070  0.13430  0.98840  Biso   1.000  O
  O88      1.0000 0.04930  0.86570  0.48840  Biso   1.000  O
  O89      1.0000 0.04930  0.63430  0.48840  Biso   1.000  O
  O90      1.0000 0.45070  0.36570  0.98840  Biso   1.000  O
  O91      1.0000 0.54930  0.86570  0.01160  Biso   1.000  O
  O92      1.0000 0.95070  0.13430  0.51160  Biso   1.000  O
  O93      1.0000 0.95680  0.25000  0.48100  Biso   1.000  O
  O94      1.0000 0.54320  0.75000  0.98100  Biso   1.000  O
  O95      1.0000 0.45680  0.25000  0.01900  Biso   1.000  O
  O96      1.0000 0.04320  0.75000  0.51900  Biso   1.000  O
  O97      1.0000 0.86230  0.30590  0.42060  Biso   1.000  O
  O98      1.0000 0.63770  0.69410  0.92060  Biso   1.000  O
  O99      1.0000 0.36230  0.19410  0.07940  Biso   1.000  O
  O100     1.0000 0.13770  0.80590  0.57940  Biso   1.000  O
  O101     1.0000 0.13770  0.69410  0.57940  Biso   1.000  O
  O102     1.0000 0.36230  0.30590  0.07940  Biso   1.000  O
  O103     1.0000 0.63770  0.80590  0.92060  Biso   1.000  O
  O104     1.0000 0.86230  0.19410  0.42060  Biso   1.000  O
  O105     1.0000 0.75830  0.25000  0.38720  Biso   1.000  O
  O106     1.0000 0.74170  0.75000  0.88720  Biso   1.000  O
  O107     1.0000 0.25830  0.25000  0.11280  Biso   1.000  O
  O108     1.0000 0.24170  0.75000  0.61280  Biso   1.000  O
  O109     1.0000 0.82110  0.19460  0.24520  Biso   1.000  O
  O110     1.0000 0.67890  0.80540  0.74520  Biso   1.000  O
  O111     1.0000 0.32110  0.30540  0.25480  Biso   1.000  O
  O112     1.0000 0.17890  0.69460  0.75480  Biso   1.000  O
  O113     1.0000 0.17890  0.80540  0.75480  Biso   1.000  O
  O114     1.0000 0.32110  0.19460  0.25480  Biso   1.000  O
  O115     1.0000 0.67890  0.69460  0.74520  Biso   1.000  O
  O116     1.0000 0.82110  0.30540  0.24520  Biso   1.000  O
  O117     1.0000 0.82480  0.25000  0.08660  Biso   1.000  O
  O118     1.0000 0.67520  0.75000  0.58660  Biso   1.000  O
  O119     1.0000 0.32480  0.25000  0.41340  Biso   1.000  O
  O120     1.0000 0.17520  0.75000  0.91340  Biso   1.000  O
  O121     1.0000 0.76490  0.14870  0.08660  Biso   1.000  O
  O122     1.0000 0.73510  0.85130  0.58660  Biso   1.000  O
  O123     1.0000 0.26490  0.35130  0.41340  Biso   1.000  O
  O124     1.0000 0.23510  0.64870  0.91340  Biso   1.000  O
  O125     1.0000 0.23510  0.85130  0.91340  Biso   1.000  O
  O126     1.0000 0.26490  0.14870  0.41340  Biso   1.000  O
  O127     1.0000 0.73510  0.64870  0.58660  Biso   1.000  O
  O128     1.0000 0.76490  0.35130  0.08660  Biso   1.000  O
  O129     1.0000 0.87300  0.16130  0.99950  Biso   1.000  O
  O130     1.0000 0.62700  0.83870  0.49950  Biso   1.000  O
  O131     1.0000 0.37300  0.33870  0.50050  Biso   1.000  O
  O132     1.0000 0.12700  0.66130  0.00050  Biso   1.000  O
  O133     1.0000 0.12700  0.83870  0.00050  Biso   1.000  O
  O134     1.0000 0.37300  0.16130  0.50050  Biso   1.000  O
  O135     1.0000 0.62700  0.66130  0.49950  Biso   1.000  O
  O136     1.0000 0.87300  0.33870  0.99950  Biso   1.000  O
  O137     1.0000 0.96520  0.14960  0.87660  Biso   1.000  O
  O138     1.0000 0.53480  0.85040  0.37660  Biso   1.000  O
  O139     1.0000 0.46520  0.35040  0.62340  Biso   1.000  O
  O140     1.0000 0.03480  0.64960  0.12340  Biso   1.000  O
  O141     1.0000 0.03480  0.85040  0.12340  Biso   1.000  O
  O142     1.0000 0.46520  0.14960  0.62340  Biso   1.000  O
  O143     1.0000 0.53480  0.64960  0.37660  Biso   1.000  O
  O144     1.0000 0.96520  0.35040  0.87660  Biso   1.000  O
  O145     1.0000 0.94040  0.25000  0.96750  Biso   1.000  O
  O146     1.0000 0.55960  0.75000  0.46750  Biso   1.000  O
  O147     1.0000 0.44040  0.25000  0.53250  Biso   1.000  O
  O148     1.0000 0.05960  0.75000  0.03250  Biso   1.000  O
  O149     1.0000 0.03250  0.19610  0.02310  Biso   1.000  O
  O150     1.0000 0.46750  0.80390  0.52310  Biso   1.000  O
  O151     1.0000 0.53250  0.30390  0.47690  Biso   1.000  O
  O152     1.0000 0.96750  0.69610  0.97690  Biso   1.000  O
  O153     1.0000 0.96750  0.80390  0.97690  Biso   1.000  O
  O154     1.0000 0.53250  0.19610  0.47690  Biso   1.000  O
  O155     1.0000 0.46750  0.69610  0.52310  Biso   1.000  O
  O156     1.0000 0.03250  0.30390  0.02310  Biso   1.000  O
  O157     1.0000 0.14000  0.25000  0.98860  Biso   1.000  O
  O158     1.0000 0.36000  0.75000  0.48860  Biso   1.000  O
  O159     1.0000 0.64000  0.25000  0.51140  Biso   1.000  O
  O160     1.0000 0.86000  0.75000  0.01140  Biso   1.000  O
  O161     1.0000 0.02430  0.25000  0.20440  Biso   1.000  O
  O162     1.0000 0.47570  0.75000  0.70440  Biso   1.000  O
  O163     1.0000 0.52430  0.25000  0.29560  Biso   1.000  O
  O164     1.0000 0.97570  0.75000  0.79560  Biso   1.000  O
  O165     1.0000 0.92630  0.25000  0.30550  Biso   1.000  O
  O166     1.0000 0.57370  0.75000  0.80550  Biso   1.000  O
  O167     1.0000 0.42630  0.25000  0.19450  Biso   1.000  O
  O168     1.0000 0.07370  0.75000  0.69450  Biso   1.000  O
  O169     1.0000 0.93030  0.30570  0.14490  Biso   1.000  O
  O170     1.0000 0.56970  0.69430  0.64490  Biso   1.000  O
  O171     1.0000 0.43030  0.19430  0.35510  Biso   1.000  O
  O172     1.0000 0.06970  0.80570  0.85510  Biso   1.000  O
  O173     1.0000 0.06970  0.69430  0.85510  Biso   1.000  O
  O174     1.0000 0.43030  0.30570  0.35510  Biso   1.000  O
  O175     1.0000 0.56970  0.80570  0.64490  Biso   1.000  O
  O176     1.0000 0.93030  0.19430  0.14490  Biso   1.000  O
  O177     1.0000 0.22940  0.37720  0.15880  Biso   1.000  O
  O178     1.0000 0.27060  0.62280  0.65880  Biso   1.000  O
  O179     1.0000 0.72940  0.12280  0.34120  Biso   1.000  O
  O180     1.0000 0.77060  0.87720  0.84120  Biso   1.000  O
  O181     1.0000 0.77060  0.62280  0.84120  Biso   1.000  O
  O182     1.0000 0.72940  0.37720  0.34120  Biso   1.000  O
  O183     1.0000 0.27060  0.87720  0.65880  Biso   1.000  O
  O184     1.0000 0.22940  0.12280  0.15880  Biso   1.000  O
  H129     1.0000 0.19460  0.37130  0.14010  Biso   1.000  H
  H130     1.0000 0.30540  0.62870  0.64010  Biso   1.000  H
  H131     1.0000 0.69460  0.12870  0.35990  Biso   1.000  H
  H132     1.0000 0.80540  0.87130  0.85990  Biso   1.000  H
  H133     1.0000 0.80540  0.62870  0.85990  Biso   1.000  H
  H134     1.0000 0.69460  0.37130  0.35990  Biso   1.000  H
  H135     1.0000 0.30540  0.87130  0.64010  Biso   1.000  H
  H136     1.0000 0.19460  0.12870  0.14010  Biso   1.000  H
  H137     1.0000 0.23160  0.41140  0.17520  Biso   1.000  H
  H138     1.0000 0.26840  0.58860  0.67520  Biso   1.000  H
  H139     1.0000 0.73160  0.08860  0.32480  Biso   1.000  H
  H140     1.0000 0.76840  0.91140  0.82480  Biso   1.000  H
  H141     1.0000 0.76840  0.58860  0.82480  Biso   1.000  H
  H142     1.0000 0.73160  0.41140  0.32480  Biso   1.000  H
  H143     1.0000 0.26840  0.91140  0.67520  Biso   1.000  H
  H144     1.0000 0.23160  0.08860  0.17520  Biso   1.000  H
  O185     1.0000 0.26730  0.64320  0.44910  Biso   1.000  O
  O186     1.0000 0.23270  0.35680  0.94910  Biso   1.000  O
  O187     1.0000 0.76730  0.85680  0.05090  Biso   1.000  O
  O188     1.0000 0.73270  0.14320  0.55090  Biso   1.000  O
  O189     1.0000 0.73270  0.35680  0.55090  Biso   1.000  O
  O190     1.0000 0.76730  0.64320  0.05090  Biso   1.000  O
  O191     1.0000 0.23270  0.14320  0.94910  Biso   1.000  O
  O192     1.0000 0.26730  0.85680  0.44910  Biso   1.000  O
  H145     1.0000 0.25200  0.66010  0.49510  Biso   1.000  H
  H146     1.0000 0.24800  0.33990  0.99510  Biso   1.000  H
  H147     1.0000 0.75200  0.83990  0.00490  Biso   1.000  H
  H148     1.0000 0.74800  0.16010  0.50490  Biso   1.000  H
  H149     1.0000 0.74800  0.33990  0.50490  Biso   1.000  H
  H150     1.0000 0.75200  0.66010  0.00490  Biso   1.000  H
  H151     1.0000 0.24800  0.16010  0.99510  Biso   1.000  H
  H152     1.0000 0.25200  0.83990  0.49510  Biso   1.000  H
  H153     1.0000 0.29870  0.66030  0.43440  Biso   1.000  H
  H154     1.0000 0.20130  0.33970  0.93440  Biso   1.000  H
  H155     1.0000 0.79870  0.83970  0.06560  Biso   1.000  H
  H156     1.0000 0.70130  0.16030  0.56560  Biso   1.000  H
  H157     1.0000 0.70130  0.33970  0.56560  Biso   1.000  H
  H158     1.0000 0.79870  0.66030  0.06560  Biso   1.000  H
  H159     1.0000 0.20130  0.16030  0.93440  Biso   1.000  H
  H160     1.0000 0.29870  0.83970  0.43440  Biso   1.000  H
  O193     1.0000 0.17750  0.66990  0.18090  Biso   1.000  O
  O194     1.0000 0.32250  0.33010  0.68090  Biso   1.000  O
  O195     1.0000 0.67750  0.83010  0.31910  Biso   1.000  O
  O196     1.0000 0.82250  0.16990  0.81910  Biso   1.000  O
  O197     1.0000 0.82250  0.33010  0.81910  Biso   1.000  O
  O198     1.0000 0.67750  0.66990  0.31910  Biso   1.000  O
  O199     1.0000 0.32250  0.16990  0.68090  Biso   1.000  O
  O200     1.0000 0.17750  0.83010  0.18090  Biso   1.000  O
  H161     1.0000 0.16780  0.67070  0.12270  Biso   1.000  H
  H162     1.0000 0.33220  0.32930  0.62270  Biso   1.000  H
  H163     1.0000 0.66780  0.82930  0.37730  Biso   1.000  H
  H164     1.0000 0.83220  0.17070  0.87730  Biso   1.000  H
  H165     1.0000 0.83220  0.32930  0.87730  Biso   1.000  H
  H166     1.0000 0.66780  0.67070  0.37730  Biso   1.000  H
  H167     1.0000 0.33220  0.17070  0.62270  Biso   1.000  H
  H168     1.0000 0.16780  0.82930  0.12270  Biso   1.000  H
  H169     1.0000 0.16880  0.70140  0.20430  Biso   1.000  H
  H170     1.0000 0.33120  0.29860  0.70430  Biso   1.000  H
  H171     1.0000 0.66880  0.79860  0.29570  Biso   1.000  H
  H172     1.0000 0.83120  0.20140  0.79570  Biso   1.000  H
  H173     1.0000 0.83120  0.29860  0.79570  Biso   1.000  H
  H174     1.0000 0.66880  0.70140  0.29570  Biso   1.000  H
  H175     1.0000 0.33120  0.20140  0.70430  Biso   1.000  H
  H176     1.0000 0.16880  0.79860  0.20430  Biso   1.000  H
  O201     1.0000 0.20130  0.75000  0.40110  Biso   1.000  O
  O202     1.0000 0.29870  0.25000  0.90110  Biso   1.000  O
  O203     1.0000 0.70130  0.75000  0.09890  Biso   1.000  O
  O204     1.0000 0.79870  0.25000  0.59890  Biso   1.000  O
  H177     1.0000 0.22180  0.72040  0.40270  Biso   1.000  H
  H178     1.0000 0.27820  0.27960  0.90270  Biso   1.000  H
  H179     1.0000 0.72180  0.77960  0.09730  Biso   1.000  H
  H180     1.0000 0.77820  0.22040  0.59730  Biso   1.000  H
  H181     1.0000 0.77820  0.27960  0.59730  Biso   1.000  H
  H182     1.0000 0.72180  0.72040  0.09730  Biso   1.000  H
  H183     1.0000 0.27820  0.22040  0.90270  Biso   1.000  H
  H184     1.0000 0.22180  0.77960  0.40270  Biso   1.000  H
  O205     1.0000 0.11800  0.25000  0.78500  Biso   1.000  O
  O206     1.0000 0.38200  0.75000  0.28500  Biso   1.000  O
  O207     1.0000 0.61800  0.25000  0.71500  Biso   1.000  O
  O208     1.0000 0.88200  0.75000  0.21500  Biso   1.000  O
  O209     1.0000 0.00240  0.25000  0.69100  Biso   1.000  O
  O210     1.0000 0.49760  0.75000  0.19100  Biso   1.000  O
  O211     1.0000 0.50240  0.25000  0.80900  Biso   1.000  O
  O212     1.0000 0.99760  0.75000  0.30900  Biso   1.000  O
  H185     1.0000 0.99830  0.25000  0.63130  Biso   1.000  H
  H186     1.0000 0.50170  0.75000  0.13130  Biso   1.000  H
  H187     1.0000 0.49830  0.25000  0.86870  Biso   1.000  H
  H188     1.0000 0.00170  0.75000  0.36870  Biso   1.000  H
  H189     1.0000 0.96840  0.25000  0.71500  Biso   1.000  H
  H190     1.0000 0.53160  0.75000  0.21500  Biso   1.000  H
  H191     1.0000 0.46840  0.25000  0.78500  Biso   1.000  H
  H192     1.0000 0.03160  0.75000  0.28500  Biso   1.000  H
  O213     1.0000 0.89530  0.25000  0.72200  Biso   1.000  O
  O214     1.0000 0.60470  0.75000  0.22200  Biso   1.000  O
  O215     1.0000 0.39530  0.25000  0.77800  Biso   1.000  O
  O216     1.0000 0.10470  0.75000  0.27800  Biso   1.000  O
  O217     1.0000 0.27000  0.75000  0.15300  Biso   1.000  O
  O218     1.0000 0.23000  0.25000  0.65300  Biso   1.000  O
  O219     1.0000 0.77000  0.75000  0.34700  Biso   1.000  O
  O220     1.0000 0.73000  0.25000  0.84700  Biso   1.000  O
  O221     1.0000 0.32500  0.68500  0.26500  Biso   1.000  O
  O222     1.0000 0.17500  0.31500  0.76500  Biso   1.000  O
  O223     1.0000 0.82500  0.81500  0.23500  Biso   1.000  O
  O224     1.0000 0.67500  0.18500  0.73500  Biso   1.000  O
  O225     1.0000 0.67500  0.31500  0.73500  Biso   1.000  O
  O226     1.0000 0.82500  0.68500  0.23500  Biso   1.000  O
  O227     1.0000 0.17500  0.18500  0.76500  Biso   1.000  O
  O228     1.0000 0.32500  0.81500  0.26500  Biso   1.000  O
  O229     1.0000 0.19090  0.25000  0.48500  Biso   1.000  O
  O230     1.0000 0.30910  0.75000  0.98500  Biso   1.000  O
  O231     1.0000 0.69090  0.25000  0.01500  Biso   1.000  O
  O232     1.0000 0.80910  0.75000  0.51500  Biso   1.000  O
  O233     1.0000 0.06100  0.25000  0.78100  Biso   1.000  O
  O234     1.0000 0.43900  0.75000  0.28100  Biso   1.000  O
  O235     1.0000 0.56100  0.25000  0.71900  Biso   1.000  O
  O236     1.0000 0.93900  0.75000  0.21900  Biso   1.000  O
  O237     1.0000 0.08540  0.28420  0.55900  Biso   1.000  O
  O238     1.0000 0.41460  0.71580  0.05900  Biso   1.000  O
  O239     1.0000 0.58540  0.21580  0.94100  Biso   1.000  O
  O240     1.0000 0.91460  0.78420  0.44100  Biso   1.000  O
  O241     1.0000 0.91460  0.71580  0.44100  Biso   1.000  O
  O242     1.0000 0.58540  0.28420  0.94100  Biso   1.000  O
  O243     1.0000 0.41460  0.78420  0.05900  Biso   1.000  O
  O244     1.0000 0.08540  0.21580  0.55900  Biso   1.000  O
  O245     1.0000 0.17400  0.28510  0.50900  Biso   1.000  O
  O246     1.0000 0.32600  0.71490  0.00900  Biso   1.000  O
  O247     1.0000 0.67400  0.21490  0.99100  Biso   1.000  O
  O248     1.0000 0.82600  0.78510  0.49100  Biso   1.000  O
  O249     1.0000 0.82600  0.71490  0.49100  Biso   1.000  O
  O250     1.0000 0.67400  0.28510  0.99100  Biso   1.000  O
  O251     1.0000 0.32600  0.78510  0.00900  Biso   1.000  O
  O252     1.0000 0.17400  0.21490  0.50900  Biso   1.000  O
