data_image0
_cell_length_a       19.379
_cell_length_b       19.379
_cell_length_c       23.744
_cell_angle_alpha    90
_cell_angle_beta     90
_cell_angle_gamma    90

_symmetry_space_group_name_H-M    "P 1"
_symmetry_int_tables_number       1

loop_
  _symmetry_equiv_pos_as_xyz
  'x, y, z'

loop_
  _atom_site_label
  _atom_site_occupancy
  _atom_site_fract_x
  _atom_site_fract_y
  _atom_site_fract_z
  _atom_site_thermal_displace_type
  _atom_site_B_iso_or_equiv
  _atom_site_type_symbol
  Cu1      1.0000 0.13837  0.25000  0.12500  Biso   1.000  Cu
  Cu2      1.0000 0.25000  0.86163  0.87500  Biso   1.000  Cu
  Cu3      1.0000 0.86163  0.75000  0.12500  Biso   1.000  Cu
  Cu4      1.0000 0.75000  0.13837  0.87500  Biso   1.000  Cu
  Cu5      1.0000 0.75000  0.36163  0.37500  Biso   1.000  Cu
  Cu6      1.0000 0.25000  0.63837  0.37500  Biso   1.000  Cu
  Cu7      1.0000 0.63837  0.75000  0.62500  Biso   1.000  Cu
  Cu8      1.0000 0.36163  0.25000  0.62500  Biso   1.000  Cu
  O1       1.0000 0.13480  0.14380  0.11490  Biso   1.000  O
  O2       1.0000 0.14380  0.86520  0.88510  Biso   1.000  O
  O3       1.0000 0.86520  0.85620  0.11490  Biso   1.000  O
  O4       1.0000 0.85620  0.13480  0.88510  Biso   1.000  O
  O5       1.0000 0.13480  0.35620  0.13510  Biso   1.000  O
  O6       1.0000 0.86520  0.64380  0.13510  Biso   1.000  O
  O7       1.0000 0.85620  0.36520  0.36490  Biso   1.000  O
  O8       1.0000 0.14380  0.63480  0.36490  Biso   1.000  O
  O9       1.0000 0.63480  0.64380  0.61490  Biso   1.000  O
  O10      1.0000 0.64380  0.36520  0.38510  Biso   1.000  O
  O11      1.0000 0.36520  0.35620  0.61490  Biso   1.000  O
  O12      1.0000 0.35620  0.63480  0.38510  Biso   1.000  O
  O13      1.0000 0.63480  0.85620  0.63510  Biso   1.000  O
  O14      1.0000 0.36520  0.14380  0.63510  Biso   1.000  O
  O15      1.0000 0.35620  0.86520  0.86490  Biso   1.000  O
  O16      1.0000 0.64380  0.13480  0.86490  Biso   1.000  O
  O17      1.0000 0.13860  0.27370  0.03380  Biso   1.000  O
  O18      1.0000 0.27370  0.86140  0.96620  Biso   1.000  O
  O19      1.0000 0.86140  0.72630  0.03380  Biso   1.000  O
  O20      1.0000 0.72630  0.13860  0.96620  Biso   1.000  O
  O21      1.0000 0.13860  0.22630  0.21620  Biso   1.000  O
  O22      1.0000 0.86140  0.77370  0.21620  Biso   1.000  O
  O23      1.0000 0.72630  0.36140  0.28380  Biso   1.000  O
  O24      1.0000 0.27370  0.63860  0.28380  Biso   1.000  O
  O25      1.0000 0.63860  0.77370  0.53380  Biso   1.000  O
  O26      1.0000 0.77370  0.36140  0.46620  Biso   1.000  O
  O27      1.0000 0.36140  0.22630  0.53380  Biso   1.000  O
  O28      1.0000 0.22630  0.63860  0.46620  Biso   1.000  O
  O29      1.0000 0.63860  0.72630  0.71620  Biso   1.000  O
  O30      1.0000 0.36140  0.27370  0.71620  Biso   1.000  O
  O31      1.0000 0.22630  0.86140  0.78380  Biso   1.000  O
  O32      1.0000 0.77370  0.13860  0.78380  Biso   1.000  O
  O33      1.0000 0.12370  0.17400  0.01250  Biso   1.000  O
  O34      1.0000 0.17400  0.87630  0.98750  Biso   1.000  O
  O35      1.0000 0.87630  0.82600  0.01250  Biso   1.000  O
  O36      1.0000 0.82600  0.12370  0.98750  Biso   1.000  O
  O37      1.0000 0.12370  0.32600  0.23750  Biso   1.000  O
  O38      1.0000 0.87630  0.67400  0.23750  Biso   1.000  O
  O39      1.0000 0.82600  0.37630  0.26250  Biso   1.000  O
  O40      1.0000 0.17400  0.62370  0.26250  Biso   1.000  O
  O41      1.0000 0.62370  0.67400  0.51250  Biso   1.000  O
  O42      1.0000 0.67400  0.37630  0.48750  Biso   1.000  O
  O43      1.0000 0.37630  0.32600  0.51250  Biso   1.000  O
  O44      1.0000 0.32600  0.62370  0.48750  Biso   1.000  O
  O45      1.0000 0.62370  0.82600  0.73750  Biso   1.000  O
  O46      1.0000 0.37630  0.17400  0.73750  Biso   1.000  O
  O47      1.0000 0.32600  0.87630  0.76250  Biso   1.000  O
  O48      1.0000 0.67400  0.12370  0.76250  Biso   1.000  O
  O49      1.0000 0.13530  0.24120  0.95370  Biso   1.000  O
  O50      1.0000 0.24120  0.86470  0.04630  Biso   1.000  O
  O51      1.0000 0.86470  0.75880  0.95370  Biso   1.000  O
  O52      1.0000 0.75880  0.13530  0.04630  Biso   1.000  O
  O53      1.0000 0.13530  0.25880  0.29630  Biso   1.000  O
  O54      1.0000 0.86470  0.74120  0.29630  Biso   1.000  O
  O55      1.0000 0.75880  0.36470  0.20370  Biso   1.000  O
  O56      1.0000 0.24120  0.63530  0.20370  Biso   1.000  O
  O57      1.0000 0.63530  0.74120  0.45370  Biso   1.000  O
  O58      1.0000 0.74120  0.36470  0.54630  Biso   1.000  O
  O59      1.0000 0.36470  0.25880  0.45370  Biso   1.000  O
  O60      1.0000 0.25880  0.63530  0.54630  Biso   1.000  O
  O61      1.0000 0.63530  0.75880  0.79630  Biso   1.000  O
  O62      1.0000 0.36470  0.24120  0.79630  Biso   1.000  O
  O63      1.0000 0.25880  0.86470  0.70370  Biso   1.000  O
  O64      1.0000 0.74120  0.13530  0.70370  Biso   1.000  O
  O65      1.0000 0.45580  0.32250  0.05030  Biso   1.000  O
  O66      1.0000 0.32250  0.54420  0.94970  Biso   1.000  O
  O67      1.0000 0.54420  0.67750  0.05030  Biso   1.000  O
  O68      1.0000 0.67750  0.45580  0.94970  Biso   1.000  O
  O69      1.0000 0.45580  0.17750  0.19970  Biso   1.000  O
  O70      1.0000 0.54420  0.82250  0.19970  Biso   1.000  O
  O71      1.0000 0.67750  0.04420  0.30030  Biso   1.000  O
  O72      1.0000 0.32250  0.95580  0.30030  Biso   1.000  O
  O73      1.0000 0.95580  0.82250  0.55030  Biso   1.000  O
  O74      1.0000 0.82250  0.04420  0.44970  Biso   1.000  O
  O75      1.0000 0.04420  0.17750  0.55030  Biso   1.000  O
  O76      1.0000 0.17750  0.95580  0.44970  Biso   1.000  O
  O77      1.0000 0.95580  0.67750  0.69970  Biso   1.000  O
  O78      1.0000 0.04420  0.32250  0.69970  Biso   1.000  O
  O79      1.0000 0.17750  0.54420  0.80030  Biso   1.000  O
  O80      1.0000 0.82250  0.45580  0.80030  Biso   1.000  O
  O81      1.0000 0.81920  0.32020  0.04980  Biso   1.000  O
  O82      1.0000 0.32020  0.18080  0.95020  Biso   1.000  O
  O83      1.0000 0.18080  0.67980  0.04980  Biso   1.000  O
  O84      1.0000 0.67980  0.81920  0.95020  Biso   1.000  O
  O85      1.0000 0.81920  0.17980  0.20020  Biso   1.000  O
  O86      1.0000 0.18080  0.82020  0.20020  Biso   1.000  O
  O87      1.0000 0.67980  0.68080  0.29980  Biso   1.000  O
  O88      1.0000 0.32020  0.31920  0.29980  Biso   1.000  O
  O89      1.0000 0.31920  0.82020  0.54980  Biso   1.000  O
  O90      1.0000 0.82020  0.68080  0.45020  Biso   1.000  O
  O91      1.0000 0.68080  0.17980  0.54980  Biso   1.000  O
  O92      1.0000 0.17980  0.31920  0.45020  Biso   1.000  O
  O93      1.0000 0.31920  0.67980  0.70020  Biso   1.000  O
  O94      1.0000 0.68080  0.32020  0.70020  Biso   1.000  O
  O95      1.0000 0.17980  0.18080  0.79980  Biso   1.000  O
  O96      1.0000 0.82020  0.81920  0.79980  Biso   1.000  O
  N1       1.0000 0.15590  0.03170  0.11470  Biso   1.000  N
  N2       1.0000 0.03170  0.84410  0.88530  Biso   1.000  N
  N3       1.0000 0.84410  0.96830  0.11470  Biso   1.000  N
  N4       1.0000 0.96830  0.15590  0.88530  Biso   1.000  N
  N5       1.0000 0.15590  0.46830  0.13530  Biso   1.000  N
  N6       1.0000 0.84410  0.53170  0.13530  Biso   1.000  N
  N7       1.0000 0.96830  0.34410  0.36470  Biso   1.000  N
  N8       1.0000 0.03170  0.65590  0.36470  Biso   1.000  N
  N9       1.0000 0.65590  0.53170  0.61470  Biso   1.000  N
  N10      1.0000 0.53170  0.34410  0.38530  Biso   1.000  N
  N11      1.0000 0.34410  0.46830  0.61470  Biso   1.000  N
  N12      1.0000 0.46830  0.65590  0.38530  Biso   1.000  N
  N13      1.0000 0.65590  0.96830  0.63530  Biso   1.000  N
  N14      1.0000 0.34410  0.03170  0.63530  Biso   1.000  N
  N15      1.0000 0.46830  0.84410  0.86470  Biso   1.000  N
  N16      1.0000 0.53170  0.15590  0.86470  Biso   1.000  N
  N17      1.0000 0.13400  0.22970  0.00080  Biso   1.000  N
  N18      1.0000 0.22970  0.86600  0.99920  Biso   1.000  N
  N19      1.0000 0.86600  0.77030  0.00080  Biso   1.000  N
  N20      1.0000 0.77030  0.13400  0.99920  Biso   1.000  N
  N21      1.0000 0.13400  0.27030  0.24920  Biso   1.000  N
  N22      1.0000 0.86600  0.72970  0.24920  Biso   1.000  N
  N23      1.0000 0.77030  0.36600  0.25080  Biso   1.000  N
  N24      1.0000 0.22970  0.63400  0.25080  Biso   1.000  N
  N25      1.0000 0.63400  0.72970  0.50080  Biso   1.000  N
  N26      1.0000 0.72970  0.36600  0.49920  Biso   1.000  N
  N27      1.0000 0.36600  0.27030  0.50080  Biso   1.000  N
  N28      1.0000 0.27030  0.63400  0.49920  Biso   1.000  N
  N29      1.0000 0.63400  0.77030  0.74920  Biso   1.000  N
  N30      1.0000 0.36600  0.22970  0.74920  Biso   1.000  N
  N31      1.0000 0.27030  0.86600  0.75080  Biso   1.000  N
  N32      1.0000 0.72970  0.13400  0.75080  Biso   1.000  N
  N33      1.0000 0.24150  0.25000  0.12500  Biso   1.000  N
  N34      1.0000 0.25000  0.75850  0.87500  Biso   1.000  N
  N35      1.0000 0.75850  0.75000  0.12500  Biso   1.000  N
  N36      1.0000 0.75000  0.24150  0.87500  Biso   1.000  N
  N37      1.0000 0.75000  0.25850  0.37500  Biso   1.000  N
  N38      1.0000 0.25000  0.74150  0.37500  Biso   1.000  N
  N39      1.0000 0.74150  0.75000  0.62500  Biso   1.000  N
  N40      1.0000 0.25850  0.25000  0.62500  Biso   1.000  N
  N41      1.0000 0.45780  0.25000  0.12500  Biso   1.000  N
  N42      1.0000 0.25000  0.54220  0.87500  Biso   1.000  N
  N43      1.0000 0.54220  0.75000  0.12500  Biso   1.000  N
  N44      1.0000 0.75000  0.45780  0.87500  Biso   1.000  N
  N45      1.0000 0.75000  0.04220  0.37500  Biso   1.000  N
  N46      1.0000 0.25000  0.95780  0.37500  Biso   1.000  N
  N47      1.0000 0.95780  0.75000  0.62500  Biso   1.000  N
  N48      1.0000 0.04220  0.25000  0.62500  Biso   1.000  N
  N49      1.0000 0.81910  0.25000  0.12500  Biso   1.000  N
  N50      1.0000 0.25000  0.18090  0.87500  Biso   1.000  N
  N51      1.0000 0.18090  0.75000  0.12500  Biso   1.000  N
  N52      1.0000 0.75000  0.81910  0.87500  Biso   1.000  N
  N53      1.0000 0.75000  0.68090  0.37500  Biso   1.000  N
  N54      1.0000 0.25000  0.31910  0.37500  Biso   1.000  N
  N55      1.0000 0.31910  0.75000  0.62500  Biso   1.000  N
  N56      1.0000 0.68090  0.25000  0.62500  Biso   1.000  N
  N57      1.0000 0.03470  0.25000  0.12500  Biso   1.000  N
  N58      1.0000 0.25000  0.96530  0.87500  Biso   1.000  N
  N59      1.0000 0.96530  0.75000  0.12500  Biso   1.000  N
  N60      1.0000 0.75000  0.03470  0.87500  Biso   1.000  N
  N61      1.0000 0.75000  0.46530  0.37500  Biso   1.000  N
  N62      1.0000 0.25000  0.53470  0.37500  Biso   1.000  N
  N63      1.0000 0.53470  0.75000  0.62500  Biso   1.000  N
  N64      1.0000 0.46530  0.25000  0.62500  Biso   1.000  N
  C1       1.0000 0.16400  0.09150  0.13270  Biso   1.000  C
  C2       1.0000 0.09150  0.83600  0.86730  Biso   1.000  C
  C3       1.0000 0.83600  0.90850  0.13270  Biso   1.000  C
  C4       1.0000 0.90850  0.16400  0.86730  Biso   1.000  C
  C5       1.0000 0.16400  0.40850  0.11730  Biso   1.000  C
  C6       1.0000 0.83600  0.59150  0.11730  Biso   1.000  C
  C7       1.0000 0.90850  0.33600  0.38270  Biso   1.000  C
  C8       1.0000 0.09150  0.66400  0.38270  Biso   1.000  C
  C9       1.0000 0.66400  0.59150  0.63270  Biso   1.000  C
  C10      1.0000 0.59150  0.33600  0.36730  Biso   1.000  C
  C11      1.0000 0.33600  0.40850  0.63270  Biso   1.000  C
  C12      1.0000 0.40850  0.66400  0.36730  Biso   1.000  C
  C13      1.0000 0.66400  0.90850  0.61730  Biso   1.000  C
  C14      1.0000 0.33600  0.09150  0.61730  Biso   1.000  C
  C15      1.0000 0.40850  0.83600  0.88270  Biso   1.000  C
  C16      1.0000 0.59150  0.16400  0.88270  Biso   1.000  C
  C17      1.0000 0.21660  0.08670  0.18390  Biso   1.000  C
  C18      1.0000 0.08670  0.78340  0.81610  Biso   1.000  C
  C19      1.0000 0.78340  0.91330  0.18390  Biso   1.000  C
  C20      1.0000 0.91330  0.21660  0.81610  Biso   1.000  C
  C21      1.0000 0.21660  0.41330  0.06610  Biso   1.000  C
  C22      1.0000 0.78340  0.58670  0.06610  Biso   1.000  C
  C23      1.0000 0.91330  0.28340  0.43390  Biso   1.000  C
  C24      1.0000 0.08670  0.71660  0.43390  Biso   1.000  C
  C25      1.0000 0.71660  0.58670  0.68390  Biso   1.000  C
  C26      1.0000 0.58670  0.28340  0.31610  Biso   1.000  C
  C27      1.0000 0.28340  0.41330  0.68390  Biso   1.000  C
  C28      1.0000 0.41330  0.71660  0.31610  Biso   1.000  C
  C29      1.0000 0.71660  0.91330  0.56610  Biso   1.000  C
  C30      1.0000 0.28340  0.08670  0.56610  Biso   1.000  C
  C31      1.0000 0.41330  0.78340  0.93390  Biso   1.000  C
  C32      1.0000 0.58670  0.21660  0.93390  Biso   1.000  C
  H1       1.0000 0.25940  0.11050  0.17540  Biso   1.000  H
  H2       1.0000 0.11050  0.74060  0.82460  Biso   1.000  H
  H3       1.0000 0.74060  0.88950  0.17540  Biso   1.000  H
  H4       1.0000 0.88950  0.25940  0.82460  Biso   1.000  H
  H5       1.0000 0.25940  0.38950  0.07460  Biso   1.000  H
  H6       1.0000 0.74060  0.61050  0.07460  Biso   1.000  H
  H7       1.0000 0.88950  0.24060  0.42540  Biso   1.000  H
  H8       1.0000 0.11050  0.75940  0.42540  Biso   1.000  H
  H9       1.0000 0.75940  0.61050  0.67540  Biso   1.000  H
  H10      1.0000 0.61050  0.24060  0.32460  Biso   1.000  H
  H11      1.0000 0.24060  0.38950  0.67540  Biso   1.000  H
  H12      1.0000 0.38950  0.75940  0.32460  Biso   1.000  H
  H13      1.0000 0.75940  0.88950  0.57460  Biso   1.000  H
  H14      1.0000 0.24060  0.11050  0.57460  Biso   1.000  H
  H15      1.0000 0.38950  0.74060  0.92540  Biso   1.000  H
  H16      1.0000 0.61050  0.25940  0.92540  Biso   1.000  H
  H17      1.0000 0.19680  0.10610  0.21790  Biso   1.000  H
  H18      1.0000 0.10610  0.80320  0.78210  Biso   1.000  H
  H19      1.0000 0.80320  0.89390  0.21790  Biso   1.000  H
  H20      1.0000 0.89390  0.19680  0.78210  Biso   1.000  H
  H21      1.0000 0.19680  0.39390  0.03210  Biso   1.000  H
  H22      1.0000 0.80320  0.60610  0.03210  Biso   1.000  H
  H23      1.0000 0.89390  0.30320  0.46790  Biso   1.000  H
  H24      1.0000 0.10610  0.69680  0.46790  Biso   1.000  H
  H25      1.0000 0.69680  0.60610  0.71790  Biso   1.000  H
  H26      1.0000 0.60610  0.30320  0.28210  Biso   1.000  H
  H27      1.0000 0.30320  0.39390  0.71790  Biso   1.000  H
  H28      1.0000 0.39390  0.69680  0.28210  Biso   1.000  H
  H29      1.0000 0.69680  0.89390  0.53210  Biso   1.000  H
  H30      1.0000 0.30320  0.10610  0.53210  Biso   1.000  H
  H31      1.0000 0.39390  0.80320  0.96790  Biso   1.000  H
  H32      1.0000 0.60610  0.19680  0.96790  Biso   1.000  H
  C33      1.0000 0.22690  0.01700  0.18920  Biso   1.000  C
  C34      1.0000 0.01700  0.77310  0.81080  Biso   1.000  C
  C35      1.0000 0.77310  0.98300  0.18920  Biso   1.000  C
  C36      1.0000 0.98300  0.22690  0.81080  Biso   1.000  C
  C37      1.0000 0.22690  0.48300  0.06080  Biso   1.000  C
  C38      1.0000 0.77310  0.51700  0.06080  Biso   1.000  C
  C39      1.0000 0.98300  0.27310  0.43920  Biso   1.000  C
  C40      1.0000 0.01700  0.72690  0.43920  Biso   1.000  C
  C41      1.0000 0.72690  0.51700  0.68920  Biso   1.000  C
  C42      1.0000 0.51700  0.27310  0.31080  Biso   1.000  C
  C43      1.0000 0.27310  0.48300  0.68920  Biso   1.000  C
  C44      1.0000 0.48300  0.72690  0.31080  Biso   1.000  C
  C45      1.0000 0.72690  0.98300  0.56080  Biso   1.000  C
  C46      1.0000 0.27310  0.01700  0.56080  Biso   1.000  C
  C47      1.0000 0.48300  0.77310  0.93920  Biso   1.000  C
  C48      1.0000 0.51700  0.22690  0.93920  Biso   1.000  C
  H33      1.0000 0.20860  0.00070  0.22490  Biso   1.000  H
  H34      1.0000 0.00070  0.79140  0.77510  Biso   1.000  H
  H35      1.0000 0.79140  0.99930  0.22490  Biso   1.000  H
  H36      1.0000 0.99930  0.20860  0.77510  Biso   1.000  H
  H37      1.0000 0.20860  0.49930  0.02510  Biso   1.000  H
  H38      1.0000 0.79140  0.50070  0.02510  Biso   1.000  H
  H39      1.0000 0.99930  0.29140  0.47490  Biso   1.000  H
  H40      1.0000 0.00070  0.70860  0.47490  Biso   1.000  H
  H41      1.0000 0.70860  0.50070  0.72490  Biso   1.000  H
  H42      1.0000 0.50070  0.29140  0.27510  Biso   1.000  H
  H43      1.0000 0.29140  0.49930  0.72490  Biso   1.000  H
  H44      1.0000 0.49930  0.70860  0.27510  Biso   1.000  H
  H45      1.0000 0.70860  0.99930  0.52510  Biso   1.000  H
  H46      1.0000 0.29140  0.00070  0.52510  Biso   1.000  H
  H47      1.0000 0.49930  0.79140  0.97490  Biso   1.000  H
  H48      1.0000 0.50070  0.20860  0.97490  Biso   1.000  H
  H49      1.0000 0.27580  0.00630  0.18770  Biso   1.000  H
  H50      1.0000 0.00630  0.72420  0.81230  Biso   1.000  H
  H51      1.0000 0.72420  0.99370  0.18770  Biso   1.000  H
  H52      1.0000 0.99370  0.27580  0.81230  Biso   1.000  H
  H53      1.0000 0.27580  0.49370  0.06230  Biso   1.000  H
  H54      1.0000 0.72420  0.50630  0.06230  Biso   1.000  H
  H55      1.0000 0.99370  0.22420  0.43770  Biso   1.000  H
  H56      1.0000 0.00630  0.77580  0.43770  Biso   1.000  H
  H57      1.0000 0.77580  0.50630  0.68770  Biso   1.000  H
  H58      1.0000 0.50630  0.22420  0.31230  Biso   1.000  H
  H59      1.0000 0.22420  0.49370  0.68770  Biso   1.000  H
  H60      1.0000 0.49370  0.77580  0.31230  Biso   1.000  H
  H61      1.0000 0.77580  0.99370  0.56230  Biso   1.000  H
  H62      1.0000 0.22420  0.00630  0.56230  Biso   1.000  H
  H63      1.0000 0.49370  0.72420  0.93770  Biso   1.000  H
  H64      1.0000 0.50630  0.27580  0.93770  Biso   1.000  H
  C49      1.0000 0.19000  0.98350  0.14130  Biso   1.000  C
  C50      1.0000 0.98350  0.81000  0.85870  Biso   1.000  C
  C51      1.0000 0.81000  0.01650  0.14130  Biso   1.000  C
  C52      1.0000 0.01650  0.19000  0.85870  Biso   1.000  C
  C53      1.0000 0.19000  0.51650  0.10870  Biso   1.000  C
  C54      1.0000 0.81000  0.48350  0.10870  Biso   1.000  C
  C55      1.0000 0.01650  0.31000  0.39130  Biso   1.000  C
  C56      1.0000 0.98350  0.69000  0.39130  Biso   1.000  C
  C57      1.0000 0.69000  0.48350  0.64130  Biso   1.000  C
  C58      1.0000 0.48350  0.31000  0.35870  Biso   1.000  C
  C59      1.0000 0.31000  0.51650  0.64130  Biso   1.000  C
  C60      1.0000 0.51650  0.69000  0.35870  Biso   1.000  C
  C61      1.0000 0.69000  0.01650  0.60870  Biso   1.000  C
  C62      1.0000 0.31000  0.98350  0.60870  Biso   1.000  C
  C63      1.0000 0.51650  0.81000  0.89130  Biso   1.000  C
  C64      1.0000 0.48350  0.19000  0.89130  Biso   1.000  C
  H65      1.0000 0.22270  0.96170  0.11610  Biso   1.000  H
  H66      1.0000 0.96170  0.77730  0.88390  Biso   1.000  H
  H67      1.0000 0.77730  0.03830  0.11610  Biso   1.000  H
  H68      1.0000 0.03830  0.22270  0.88390  Biso   1.000  H
  H69      1.0000 0.22270  0.53830  0.13390  Biso   1.000  H
  H70      1.0000 0.77730  0.46170  0.13390  Biso   1.000  H
  H71      1.0000 0.03830  0.27730  0.36610  Biso   1.000  H
  H72      1.0000 0.96170  0.72270  0.36610  Biso   1.000  H
  H73      1.0000 0.72270  0.46170  0.61610  Biso   1.000  H
  H74      1.0000 0.46170  0.27730  0.38390  Biso   1.000  H
  H75      1.0000 0.27730  0.53830  0.61610  Biso   1.000  H
  H76      1.0000 0.53830  0.72270  0.38390  Biso   1.000  H
  H77      1.0000 0.72270  0.03830  0.63390  Biso   1.000  H
  H78      1.0000 0.27730  0.96170  0.63390  Biso   1.000  H
  H79      1.0000 0.53830  0.77730  0.86610  Biso   1.000  H
  H80      1.0000 0.46170  0.22270  0.86610  Biso   1.000  H
  H81      1.0000 0.15840  0.94860  0.15520  Biso   1.000  H
  H82      1.0000 0.94860  0.84160  0.84480  Biso   1.000  H
  H83      1.0000 0.84160  0.05140  0.15520  Biso   1.000  H
  H84      1.0000 0.05140  0.15840  0.84480  Biso   1.000  H
  H85      1.0000 0.15840  0.55140  0.09480  Biso   1.000  H
  H86      1.0000 0.84160  0.44860  0.09480  Biso   1.000  H
  H87      1.0000 0.05140  0.34160  0.40520  Biso   1.000  H
  H88      1.0000 0.94860  0.65840  0.40520  Biso   1.000  H
  H89      1.0000 0.65840  0.44860  0.65520  Biso   1.000  H
  H90      1.0000 0.44860  0.34160  0.34480  Biso   1.000  H
  H91      1.0000 0.34160  0.55140  0.65520  Biso   1.000  H
  H92      1.0000 0.55140  0.65840  0.34480  Biso   1.000  H
  H93      1.0000 0.65840  0.05140  0.59480  Biso   1.000  H
  H94      1.0000 0.34160  0.94860  0.59480  Biso   1.000  H
  H95      1.0000 0.55140  0.84160  0.90520  Biso   1.000  H
  H96      1.0000 0.44860  0.15840  0.90520  Biso   1.000  H
  C65      1.0000 0.11670  0.02120  0.06000  Biso   1.000  C
  C66      1.0000 0.02120  0.88330  0.94000  Biso   1.000  C
  C67      1.0000 0.88330  0.97880  0.06000  Biso   1.000  C
  C68      1.0000 0.97880  0.11670  0.94000  Biso   1.000  C
  C69      1.0000 0.11670  0.47880  0.19000  Biso   1.000  C
  C70      1.0000 0.88330  0.52120  0.19000  Biso   1.000  C
  C71      1.0000 0.97880  0.38330  0.31000  Biso   1.000  C
  C72      1.0000 0.02120  0.61670  0.31000  Biso   1.000  C
  C73      1.0000 0.61670  0.52120  0.56000  Biso   1.000  C
  C74      1.0000 0.52120  0.38330  0.44000  Biso   1.000  C
  C75      1.0000 0.38330  0.47880  0.56000  Biso   1.000  C
  C76      1.0000 0.47880  0.61670  0.44000  Biso   1.000  C
  C77      1.0000 0.61670  0.97880  0.69000  Biso   1.000  C
  C78      1.0000 0.38330  0.02120  0.69000  Biso   1.000  C
  C79      1.0000 0.47880  0.88330  0.81000  Biso   1.000  C
  C80      1.0000 0.52120  0.11670  0.81000  Biso   1.000  C
  H97      1.0000 0.10210  0.97390  0.05730  Biso   1.000  H
  H98      1.0000 0.97390  0.89790  0.94270  Biso   1.000  H
  H99      1.0000 0.89790  0.02610  0.05730  Biso   1.000  H
  H100     1.0000 0.02610  0.10210  0.94270  Biso   1.000  H
  H101     1.0000 0.10210  0.52610  0.19270  Biso   1.000  H
  H102     1.0000 0.89790  0.47390  0.19270  Biso   1.000  H
  H103     1.0000 0.02610  0.39790  0.30730  Biso   1.000  H
  H104     1.0000 0.97390  0.60210  0.30730  Biso   1.000  H
  H105     1.0000 0.60210  0.47390  0.55730  Biso   1.000  H
  H106     1.0000 0.47390  0.39790  0.44270  Biso   1.000  H
  H107     1.0000 0.39790  0.52610  0.55730  Biso   1.000  H
  H108     1.0000 0.52610  0.60210  0.44270  Biso   1.000  H
  H109     1.0000 0.60210  0.02610  0.69270  Biso   1.000  H
  H110     1.0000 0.39790  0.97390  0.69270  Biso   1.000  H
  H111     1.0000 0.52610  0.89790  0.80730  Biso   1.000  H
  H112     1.0000 0.47390  0.10210  0.80730  Biso   1.000  H
  H113     1.0000 0.14620  0.03200  0.02870  Biso   1.000  H
  H114     1.0000 0.03200  0.85380  0.97130  Biso   1.000  H
  H115     1.0000 0.85380  0.96800  0.02870  Biso   1.000  H
  H116     1.0000 0.96800  0.14620  0.97130  Biso   1.000  H
  H117     1.0000 0.14620  0.46800  0.22130  Biso   1.000  H
  H118     1.0000 0.85380  0.53200  0.22130  Biso   1.000  H
  H119     1.0000 0.96800  0.35380  0.27870  Biso   1.000  H
  H120     1.0000 0.03200  0.64620  0.27870  Biso   1.000  H
  H121     1.0000 0.64620  0.53200  0.52870  Biso   1.000  H
  H122     1.0000 0.53200  0.35380  0.47130  Biso   1.000  H
  H123     1.0000 0.35380  0.46800  0.52870  Biso   1.000  H
  H124     1.0000 0.46800  0.64620  0.47130  Biso   1.000  H
  H125     1.0000 0.64620  0.96800  0.72130  Biso   1.000  H
  H126     1.0000 0.35380  0.03200  0.72130  Biso   1.000  H
  H127     1.0000 0.46800  0.85380  0.77870  Biso   1.000  H
  H128     1.0000 0.53200  0.14620  0.77870  Biso   1.000  H
  H129     1.0000 0.07700  0.05080  0.05930  Biso   1.000  H
  H130     1.0000 0.05080  0.92300  0.94070  Biso   1.000  H
  H131     1.0000 0.92300  0.94920  0.05930  Biso   1.000  H
  H132     1.0000 0.94920  0.07700  0.94070  Biso   1.000  H
  H133     1.0000 0.07700  0.44920  0.19070  Biso   1.000  H
  H134     1.0000 0.92300  0.55080  0.19070  Biso   1.000  H
  H135     1.0000 0.94920  0.42300  0.30930  Biso   1.000  H
  H136     1.0000 0.05080  0.57700  0.30930  Biso   1.000  H
  H137     1.0000 0.57700  0.55080  0.55930  Biso   1.000  H
  H138     1.0000 0.55080  0.42300  0.44070  Biso   1.000  H
  H139     1.0000 0.42300  0.44920  0.55930  Biso   1.000  H
  H140     1.0000 0.44920  0.57700  0.44070  Biso   1.000  H
  H141     1.0000 0.57700  0.94920  0.69070  Biso   1.000  H
  H142     1.0000 0.42300  0.05080  0.69070  Biso   1.000  H
  H143     1.0000 0.44920  0.92300  0.80930  Biso   1.000  H
  H144     1.0000 0.55080  0.07700  0.80930  Biso   1.000  H
  C81      1.0000 0.27670  0.21490  0.08840  Biso   1.000  C
  C82      1.0000 0.21490  0.72330  0.91160  Biso   1.000  C
  C83      1.0000 0.72330  0.78510  0.08840  Biso   1.000  C
  C84      1.0000 0.78510  0.27670  0.91160  Biso   1.000  C
  C85      1.0000 0.27670  0.28510  0.16160  Biso   1.000  C
  C86      1.0000 0.72330  0.71490  0.16160  Biso   1.000  C
  C87      1.0000 0.78510  0.22330  0.33840  Biso   1.000  C
  C88      1.0000 0.21490  0.77670  0.33840  Biso   1.000  C
  C89      1.0000 0.77670  0.71490  0.58840  Biso   1.000  C
  C90      1.0000 0.71490  0.22330  0.41160  Biso   1.000  C
  C91      1.0000 0.22330  0.28510  0.58840  Biso   1.000  C
  C92      1.0000 0.28510  0.77670  0.41160  Biso   1.000  C
  C93      1.0000 0.77670  0.78510  0.66160  Biso   1.000  C
  C94      1.0000 0.22330  0.21490  0.66160  Biso   1.000  C
  C95      1.0000 0.28510  0.72330  0.83840  Biso   1.000  C
  C96      1.0000 0.71490  0.27670  0.83840  Biso   1.000  C
  H145     1.0000 0.25250  0.18920  0.06190  Biso   1.000  H
  H146     1.0000 0.18920  0.74750  0.93810  Biso   1.000  H
  H147     1.0000 0.74750  0.81080  0.06190  Biso   1.000  H
  H148     1.0000 0.81080  0.25250  0.93810  Biso   1.000  H
  H149     1.0000 0.25250  0.31080  0.18810  Biso   1.000  H
  H150     1.0000 0.74750  0.68920  0.18810  Biso   1.000  H
  H151     1.0000 0.81080  0.24750  0.31190  Biso   1.000  H
  H152     1.0000 0.18920  0.75250  0.31190  Biso   1.000  H
  H153     1.0000 0.75250  0.68920  0.56190  Biso   1.000  H
  H154     1.0000 0.68920  0.24750  0.43810  Biso   1.000  H
  H155     1.0000 0.24750  0.31080  0.56190  Biso   1.000  H
  H156     1.0000 0.31080  0.75250  0.43810  Biso   1.000  H
  H157     1.0000 0.75250  0.81080  0.68810  Biso   1.000  H
  H158     1.0000 0.24750  0.18920  0.68810  Biso   1.000  H
  H159     1.0000 0.31080  0.74750  0.81190  Biso   1.000  H
  H160     1.0000 0.68920  0.25250  0.81190  Biso   1.000  H
  C97      1.0000 0.34830  0.21350  0.08630  Biso   1.000  C
  C98      1.0000 0.21350  0.65170  0.91370  Biso   1.000  C
  C99      1.0000 0.65170  0.78650  0.08630  Biso   1.000  C
  C100     1.0000 0.78650  0.34830  0.91370  Biso   1.000  C
  C101     1.0000 0.34830  0.28650  0.16370  Biso   1.000  C
  C102     1.0000 0.65170  0.71350  0.16370  Biso   1.000  C
  C103     1.0000 0.78650  0.15170  0.33630  Biso   1.000  C
  C104     1.0000 0.21350  0.84830  0.33630  Biso   1.000  C
  C105     1.0000 0.84830  0.71350  0.58630  Biso   1.000  C
  C106     1.0000 0.71350  0.15170  0.41370  Biso   1.000  C
  C107     1.0000 0.15170  0.28650  0.58630  Biso   1.000  C
  C108     1.0000 0.28650  0.84830  0.41370  Biso   1.000  C
  C109     1.0000 0.84830  0.78650  0.66370  Biso   1.000  C
  C110     1.0000 0.15170  0.21350  0.66370  Biso   1.000  C
  C111     1.0000 0.28650  0.65170  0.83630  Biso   1.000  C
  C112     1.0000 0.71350  0.34830  0.83630  Biso   1.000  C
  H161     1.0000 0.37130  0.18790  0.05900  Biso   1.000  H
  H162     1.0000 0.18790  0.62870  0.94100  Biso   1.000  H
  H163     1.0000 0.62870  0.81210  0.05900  Biso   1.000  H
  H164     1.0000 0.81210  0.37130  0.94100  Biso   1.000  H
  H165     1.0000 0.37130  0.31210  0.19100  Biso   1.000  H
  H166     1.0000 0.62870  0.68790  0.19100  Biso   1.000  H
  H167     1.0000 0.81210  0.12870  0.30900  Biso   1.000  H
  H168     1.0000 0.18790  0.87130  0.30900  Biso   1.000  H
  H169     1.0000 0.87130  0.68790  0.55900  Biso   1.000  H
  H170     1.0000 0.68790  0.12870  0.44100  Biso   1.000  H
  H171     1.0000 0.12870  0.31210  0.55900  Biso   1.000  H
  H172     1.0000 0.31210  0.87130  0.44100  Biso   1.000  H
  H173     1.0000 0.87130  0.81210  0.69100  Biso   1.000  H
  H174     1.0000 0.12870  0.18790  0.69100  Biso   1.000  H
  H175     1.0000 0.31210  0.62870  0.80900  Biso   1.000  H
  H176     1.0000 0.68790  0.37130  0.80900  Biso   1.000  H
  C113     1.0000 0.38330  0.25000  0.12500  Biso   1.000  C
  C114     1.0000 0.25000  0.61670  0.87500  Biso   1.000  C
  C115     1.0000 0.61670  0.75000  0.12500  Biso   1.000  C
  C116     1.0000 0.75000  0.38330  0.87500  Biso   1.000  C
  C117     1.0000 0.75000  0.11670  0.37500  Biso   1.000  C
  C118     1.0000 0.25000  0.88330  0.37500  Biso   1.000  C
  C119     1.0000 0.88330  0.75000  0.62500  Biso   1.000  C
  C120     1.0000 0.11670  0.25000  0.62500  Biso   1.000  C
  C121     1.0000 0.48870  0.29010  0.08420  Biso   1.000  C
  C122     1.0000 0.29010  0.51130  0.91580  Biso   1.000  C
  C123     1.0000 0.51130  0.70990  0.08420  Biso   1.000  C
  C124     1.0000 0.70990  0.48870  0.91580  Biso   1.000  C
  C125     1.0000 0.48870  0.20990  0.16580  Biso   1.000  C
  C126     1.0000 0.51130  0.79010  0.16580  Biso   1.000  C
  C127     1.0000 0.70990  0.01130  0.33420  Biso   1.000  C
  C128     1.0000 0.29010  0.98870  0.33420  Biso   1.000  C
  C129     1.0000 0.98870  0.79010  0.58420  Biso   1.000  C
  C130     1.0000 0.79010  0.01130  0.41580  Biso   1.000  C
  C131     1.0000 0.01130  0.20990  0.58420  Biso   1.000  C
  C132     1.0000 0.20990  0.98870  0.41580  Biso   1.000  C
  C133     1.0000 0.98870  0.70990  0.66580  Biso   1.000  C
  C134     1.0000 0.01130  0.29010  0.66580  Biso   1.000  C
  C135     1.0000 0.20990  0.51130  0.83420  Biso   1.000  C
  C136     1.0000 0.79010  0.48870  0.83420  Biso   1.000  C
  C137     1.0000 0.56600  0.28970  0.08390  Biso   1.000  C
  C138     1.0000 0.28970  0.43400  0.91610  Biso   1.000  C
  C139     1.0000 0.43400  0.71030  0.08390  Biso   1.000  C
  C140     1.0000 0.71030  0.56600  0.91610  Biso   1.000  C
  C141     1.0000 0.56600  0.21030  0.16610  Biso   1.000  C
  C142     1.0000 0.43400  0.78970  0.16610  Biso   1.000  C
  C143     1.0000 0.71030  0.93400  0.33390  Biso   1.000  C
  C144     1.0000 0.28970  0.06600  0.33390  Biso   1.000  C
  C145     1.0000 0.06600  0.78970  0.58390  Biso   1.000  C
  C146     1.0000 0.78970  0.93400  0.41610  Biso   1.000  C
  C147     1.0000 0.93400  0.21030  0.58390  Biso   1.000  C
  C148     1.0000 0.21030  0.06600  0.41610  Biso   1.000  C
  C149     1.0000 0.06600  0.71030  0.66610  Biso   1.000  C
  C150     1.0000 0.93400  0.28970  0.66610  Biso   1.000  C
  C151     1.0000 0.21030  0.43400  0.83390  Biso   1.000  C
  C152     1.0000 0.78970  0.56600  0.83390  Biso   1.000  C
  C153     1.0000 0.60320  0.32780  0.04560  Biso   1.000  C
  C154     1.0000 0.32780  0.39680  0.95440  Biso   1.000  C
  C155     1.0000 0.39680  0.67220  0.04560  Biso   1.000  C
  C156     1.0000 0.67220  0.60320  0.95440  Biso   1.000  C
  C157     1.0000 0.60320  0.17220  0.20440  Biso   1.000  C
  C158     1.0000 0.39680  0.82780  0.20440  Biso   1.000  C
  C159     1.0000 0.67220  0.89680  0.29560  Biso   1.000  C
  C160     1.0000 0.32780  0.10320  0.29560  Biso   1.000  C
  C161     1.0000 0.10320  0.82780  0.54560  Biso   1.000  C
  C162     1.0000 0.82780  0.89680  0.45440  Biso   1.000  C
  C163     1.0000 0.89680  0.17220  0.54560  Biso   1.000  C
  C164     1.0000 0.17220  0.10320  0.45440  Biso   1.000  C
  C165     1.0000 0.10320  0.67220  0.70440  Biso   1.000  C
  C166     1.0000 0.89680  0.32780  0.70440  Biso   1.000  C
  C167     1.0000 0.17220  0.39680  0.79560  Biso   1.000  C
  C168     1.0000 0.82780  0.60320  0.79560  Biso   1.000  C
  H177     1.0000 0.58040  0.35440  0.01890  Biso   1.000  H
  H178     1.0000 0.35440  0.41960  0.98110  Biso   1.000  H
  H179     1.0000 0.41960  0.64560  0.01890  Biso   1.000  H
  H180     1.0000 0.64560  0.58040  0.98110  Biso   1.000  H
  H181     1.0000 0.58040  0.14560  0.23110  Biso   1.000  H
  H182     1.0000 0.41960  0.85440  0.23110  Biso   1.000  H
  H183     1.0000 0.64560  0.91960  0.26890  Biso   1.000  H
  H184     1.0000 0.35440  0.08040  0.26890  Biso   1.000  H
  H185     1.0000 0.08040  0.85440  0.51890  Biso   1.000  H
  H186     1.0000 0.85440  0.91960  0.48110  Biso   1.000  H
  H187     1.0000 0.91960  0.14560  0.51890  Biso   1.000  H
  H188     1.0000 0.14560  0.08040  0.48110  Biso   1.000  H
  H189     1.0000 0.08040  0.64560  0.73110  Biso   1.000  H
  H190     1.0000 0.91960  0.35440  0.73110  Biso   1.000  H
  H191     1.0000 0.14560  0.41960  0.76890  Biso   1.000  H
  H192     1.0000 0.85440  0.58040  0.76890  Biso   1.000  H
  C169     1.0000 0.60320  0.25000  0.12500  Biso   1.000  C
  C170     1.0000 0.25000  0.39680  0.87500  Biso   1.000  C
  C171     1.0000 0.39680  0.75000  0.12500  Biso   1.000  C
  C172     1.0000 0.75000  0.60320  0.87500  Biso   1.000  C
  C173     1.0000 0.75000  0.89680  0.37500  Biso   1.000  C
  C174     1.0000 0.25000  0.10320  0.37500  Biso   1.000  C
  C175     1.0000 0.10320  0.75000  0.62500  Biso   1.000  C
  C176     1.0000 0.89680  0.25000  0.62500  Biso   1.000  C
  C177     1.0000 0.67590  0.25000  0.12500  Biso   1.000  C
  C178     1.0000 0.25000  0.32410  0.87500  Biso   1.000  C
  C179     1.0000 0.32410  0.75000  0.12500  Biso   1.000  C
  C180     1.0000 0.75000  0.67590  0.87500  Biso   1.000  C
  C181     1.0000 0.75000  0.82410  0.37500  Biso   1.000  C
  C182     1.0000 0.25000  0.17590  0.37500  Biso   1.000  C
  C183     1.0000 0.17590  0.75000  0.62500  Biso   1.000  C
  C184     1.0000 0.82410  0.25000  0.62500  Biso   1.000  C
  C185     1.0000 0.67470  0.32650  0.04670  Biso   1.000  C
  C186     1.0000 0.32650  0.32530  0.95330  Biso   1.000  C
  C187     1.0000 0.32530  0.67350  0.04670  Biso   1.000  C
  C188     1.0000 0.67350  0.67470  0.95330  Biso   1.000  C
  C189     1.0000 0.67470  0.17350  0.20330  Biso   1.000  C
  C190     1.0000 0.32530  0.82650  0.20330  Biso   1.000  C
  C191     1.0000 0.67350  0.82530  0.29670  Biso   1.000  C
  C192     1.0000 0.32650  0.17470  0.29670  Biso   1.000  C
  C193     1.0000 0.17470  0.82650  0.54670  Biso   1.000  C
  C194     1.0000 0.82650  0.82530  0.45330  Biso   1.000  C
  C195     1.0000 0.82530  0.17350  0.54670  Biso   1.000  C
  C196     1.0000 0.17350  0.17470  0.45330  Biso   1.000  C
  C197     1.0000 0.17470  0.67350  0.70330  Biso   1.000  C
  C198     1.0000 0.82530  0.32650  0.70330  Biso   1.000  C
  C199     1.0000 0.17350  0.32530  0.79670  Biso   1.000  C
  C200     1.0000 0.82650  0.67470  0.79670  Biso   1.000  C
  H193     1.0000 0.69900  0.35190  0.02000  Biso   1.000  H
  H194     1.0000 0.35190  0.30100  0.98000  Biso   1.000  H
  H195     1.0000 0.30100  0.64810  0.02000  Biso   1.000  H
  H196     1.0000 0.64810  0.69900  0.98000  Biso   1.000  H
  H197     1.0000 0.69900  0.14810  0.23000  Biso   1.000  H
  H198     1.0000 0.30100  0.85190  0.23000  Biso   1.000  H
  H199     1.0000 0.64810  0.80100  0.27000  Biso   1.000  H
  H200     1.0000 0.35190  0.19900  0.27000  Biso   1.000  H
  H201     1.0000 0.19900  0.85190  0.52000  Biso   1.000  H
  H202     1.0000 0.85190  0.80100  0.48000  Biso   1.000  H
  H203     1.0000 0.80100  0.14810  0.52000  Biso   1.000  H
  H204     1.0000 0.14810  0.19900  0.48000  Biso   1.000  H
  H205     1.0000 0.19900  0.64810  0.73000  Biso   1.000  H
  H206     1.0000 0.80100  0.35190  0.73000  Biso   1.000  H
  H207     1.0000 0.14810  0.30100  0.77000  Biso   1.000  H
  H208     1.0000 0.85190  0.69900  0.77000  Biso   1.000  H
  C201     1.0000 0.70960  0.29010  0.08470  Biso   1.000  C
  C202     1.0000 0.29010  0.29040  0.91530  Biso   1.000  C
  C203     1.0000 0.29040  0.70990  0.08470  Biso   1.000  C
  C204     1.0000 0.70990  0.70960  0.91530  Biso   1.000  C
  C205     1.0000 0.70960  0.20990  0.16530  Biso   1.000  C
  C206     1.0000 0.29040  0.79010  0.16530  Biso   1.000  C
  C207     1.0000 0.70990  0.79040  0.33470  Biso   1.000  C
  C208     1.0000 0.29010  0.20960  0.33470  Biso   1.000  C
  C209     1.0000 0.20960  0.79010  0.58470  Biso   1.000  C
  C210     1.0000 0.79010  0.79040  0.41530  Biso   1.000  C
  C211     1.0000 0.79040  0.20990  0.58470  Biso   1.000  C
  C212     1.0000 0.20990  0.20960  0.41530  Biso   1.000  C
  C213     1.0000 0.20960  0.70990  0.66530  Biso   1.000  C
  C214     1.0000 0.79040  0.29010  0.66530  Biso   1.000  C
  C215     1.0000 0.20990  0.29040  0.83470  Biso   1.000  C
  C216     1.0000 0.79010  0.70960  0.83470  Biso   1.000  C
  C217     1.0000 0.78580  0.28870  0.08210  Biso   1.000  C
  C218     1.0000 0.28870  0.21420  0.91790  Biso   1.000  C
  C219     1.0000 0.21420  0.71130  0.08210  Biso   1.000  C
  C220     1.0000 0.71130  0.78580  0.91790  Biso   1.000  C
  C221     1.0000 0.78580  0.21130  0.16790  Biso   1.000  C
  C222     1.0000 0.21420  0.78870  0.16790  Biso   1.000  C
  C223     1.0000 0.71130  0.71420  0.33210  Biso   1.000  C
  C224     1.0000 0.28870  0.28580  0.33210  Biso   1.000  C
  C225     1.0000 0.28580  0.78870  0.58210  Biso   1.000  C
  C226     1.0000 0.78870  0.71420  0.41790  Biso   1.000  C
  C227     1.0000 0.71420  0.21130  0.58210  Biso   1.000  C
  C228     1.0000 0.21130  0.28580  0.41790  Biso   1.000  C
  C229     1.0000 0.28580  0.71130  0.66790  Biso   1.000  C
  C230     1.0000 0.71420  0.28870  0.66790  Biso   1.000  C
  C231     1.0000 0.21130  0.21420  0.83210  Biso   1.000  C
  C232     1.0000 0.78870  0.78580  0.83210  Biso   1.000  C
  C233     1.0000 0.89420  0.25000  0.12500  Biso   1.000  C
  C234     1.0000 0.25000  0.10580  0.87500  Biso   1.000  C
  C235     1.0000 0.10580  0.75000  0.12500  Biso   1.000  C
  C236     1.0000 0.75000  0.89420  0.87500  Biso   1.000  C
  C237     1.0000 0.75000  0.60580  0.37500  Biso   1.000  C
  C238     1.0000 0.25000  0.39420  0.37500  Biso   1.000  C
  C239     1.0000 0.39420  0.75000  0.62500  Biso   1.000  C
  C240     1.0000 0.60580  0.25000  0.62500  Biso   1.000  C
  C241     1.0000 0.92830  0.20450  0.08930  Biso   1.000  C
  C242     1.0000 0.20450  0.07170  0.91070  Biso   1.000  C
  C243     1.0000 0.07170  0.79550  0.08930  Biso   1.000  C
  C244     1.0000 0.79550  0.92830  0.91070  Biso   1.000  C
  C245     1.0000 0.92830  0.29550  0.16070  Biso   1.000  C
  C246     1.0000 0.07170  0.70450  0.16070  Biso   1.000  C
  C247     1.0000 0.79550  0.57170  0.33930  Biso   1.000  C
  C248     1.0000 0.20450  0.42830  0.33930  Biso   1.000  C
  C249     1.0000 0.42830  0.70450  0.58930  Biso   1.000  C
  C250     1.0000 0.70450  0.57170  0.41070  Biso   1.000  C
  C251     1.0000 0.57170  0.29550  0.58930  Biso   1.000  C
  C252     1.0000 0.29550  0.42830  0.41070  Biso   1.000  C
  C253     1.0000 0.42830  0.79550  0.66070  Biso   1.000  C
  C254     1.0000 0.57170  0.20450  0.66070  Biso   1.000  C
  C255     1.0000 0.29550  0.07170  0.83930  Biso   1.000  C
  C256     1.0000 0.70450  0.92830  0.83930  Biso   1.000  C
  H209     1.0000 0.90560  0.17390  0.06550  Biso   1.000  H
  H210     1.0000 0.17390  0.09440  0.93450  Biso   1.000  H
  H211     1.0000 0.09440  0.82610  0.06550  Biso   1.000  H
  H212     1.0000 0.82610  0.90560  0.93450  Biso   1.000  H
  H213     1.0000 0.90560  0.32610  0.18450  Biso   1.000  H
  H214     1.0000 0.09440  0.67390  0.18450  Biso   1.000  H
  H215     1.0000 0.82610  0.59440  0.31550  Biso   1.000  H
  H216     1.0000 0.17390  0.40560  0.31550  Biso   1.000  H
  H217     1.0000 0.40560  0.67390  0.56550  Biso   1.000  H
  H218     1.0000 0.67390  0.59440  0.43450  Biso   1.000  H
  H219     1.0000 0.59440  0.32610  0.56550  Biso   1.000  H
  H220     1.0000 0.32610  0.40560  0.43450  Biso   1.000  H
  H221     1.0000 0.40560  0.82610  0.68450  Biso   1.000  H
  H222     1.0000 0.59440  0.17390  0.68450  Biso   1.000  H
  H223     1.0000 0.32610  0.09440  0.81550  Biso   1.000  H
  H224     1.0000 0.67390  0.90560  0.81550  Biso   1.000  H
  C257     1.0000 0.99990  0.20930  0.09270  Biso   1.000  C
  C258     1.0000 0.20930  0.00010  0.90730  Biso   1.000  C
  C259     1.0000 0.00010  0.79070  0.09270  Biso   1.000  C
  C260     1.0000 0.79070  0.99990  0.90730  Biso   1.000  C
  C261     1.0000 0.99990  0.29070  0.15730  Biso   1.000  C
  C262     1.0000 0.00010  0.70930  0.15730  Biso   1.000  C
  C263     1.0000 0.79070  0.50010  0.34270  Biso   1.000  C
  C264     1.0000 0.20930  0.49990  0.34270  Biso   1.000  C
  C265     1.0000 0.49990  0.70930  0.59270  Biso   1.000  C
  C266     1.0000 0.70930  0.50010  0.40730  Biso   1.000  C
  C267     1.0000 0.50010  0.29070  0.59270  Biso   1.000  C
  C268     1.0000 0.29070  0.49990  0.40730  Biso   1.000  C
  C269     1.0000 0.49990  0.79070  0.65730  Biso   1.000  C
  C270     1.0000 0.50010  0.20930  0.65730  Biso   1.000  C
  C271     1.0000 0.29070  0.00010  0.84270  Biso   1.000  C
  C272     1.0000 0.70930  0.99990  0.84270  Biso   1.000  C
  H225     1.0000 0.02520  0.18030  0.06940  Biso   1.000  H
  H226     1.0000 0.18030  0.97480  0.93060  Biso   1.000  H
  H227     1.0000 0.97480  0.81970  0.06940  Biso   1.000  H
  H228     1.0000 0.81970  0.02520  0.93060  Biso   1.000  H
  H229     1.0000 0.02520  0.31970  0.18060  Biso   1.000  H
  H230     1.0000 0.97480  0.68030  0.18060  Biso   1.000  H
  H231     1.0000 0.81970  0.47480  0.31940  Biso   1.000  H
  H232     1.0000 0.18030  0.52520  0.31940  Biso   1.000  H
  H233     1.0000 0.52520  0.68030  0.56940  Biso   1.000  H
  H234     1.0000 0.68030  0.47480  0.43060  Biso   1.000  H
  H235     1.0000 0.47480  0.31970  0.56940  Biso   1.000  H
  H236     1.0000 0.31970  0.52520  0.43060  Biso   1.000  H
  H237     1.0000 0.52520  0.81970  0.68060  Biso   1.000  H
  H238     1.0000 0.47480  0.18030  0.68060  Biso   1.000  H
  H239     1.0000 0.31970  0.97480  0.81940  Biso   1.000  H
  H240     1.0000 0.68030  0.02520  0.81940  Biso   1.000  H
