data_image0
_cell_length_a       15.246
_cell_length_b       22.372
_cell_length_c       21.359
_cell_angle_alpha    90
_cell_angle_beta     100.2
_cell_angle_gamma    90

_symmetry_space_group_name_H-M    "P 1"
_symmetry_int_tables_number       1

loop_
  _symmetry_equiv_pos_as_xyz
  'x, y, z'

loop_
  _atom_site_label
  _atom_site_occupancy
  _atom_site_fract_x
  _atom_site_fract_y
  _atom_site_fract_z
  _atom_site_thermal_displace_type
  _atom_site_B_iso_or_equiv
  _atom_site_type_symbol
  Cu1      1.0000 0.75386  0.58557  0.74835  Biso   1.000  Cu
  Cu2      1.0000 0.75386  0.91443  0.24835  Biso   1.000  Cu
  Cu3      1.0000 0.24614  0.41443  0.25165  Biso   1.000  Cu
  Cu4      1.0000 0.24614  0.08557  0.75165  Biso   1.000  Cu
  Cu5      1.0000 0.25407  0.65794  0.75035  Biso   1.000  Cu
  Cu6      1.0000 0.25407  0.84206  0.25035  Biso   1.000  Cu
  Cu7      1.0000 0.74593  0.34206  0.24965  Biso   1.000  Cu
  Cu8      1.0000 0.74593  0.15794  0.74965  Biso   1.000  Cu
  O1       1.0000 0.85605  0.51591  0.74047  Biso   1.000  O
  O2       1.0000 0.85605  0.98409  0.24047  Biso   1.000  O
  O3       1.0000 0.14395  0.48409  0.25953  Biso   1.000  O
  O4       1.0000 0.14395  0.01591  0.75953  Biso   1.000  O
  H1       1.0000 0.89500  0.49940  0.78180  Biso   1.000  H
  H2       1.0000 0.89500  0.00060  0.28180  Biso   1.000  H
  H3       1.0000 0.10500  0.50060  0.21820  Biso   1.000  H
  H4       1.0000 0.10500  0.99940  0.71820  Biso   1.000  H
  H5       1.0000 0.87190  0.50270  0.69740  Biso   1.000  H
  H6       1.0000 0.87190  0.99730  0.19740  Biso   1.000  H
  H7       1.0000 0.12810  0.49730  0.30260  Biso   1.000  H
  H8       1.0000 0.12810  0.00270  0.80260  Biso   1.000  H
  O5       1.0000 0.70839  0.58360  0.65736  Biso   1.000  O
  O6       1.0000 0.70839  0.91640  0.15736  Biso   1.000  O
  O7       1.0000 0.29161  0.41640  0.34264  Biso   1.000  O
  O8       1.0000 0.29161  0.08360  0.84264  Biso   1.000  O
  H9       1.0000 0.66950  0.55310  0.63090  Biso   1.000  H
  H10      1.0000 0.66950  0.94690  0.13090  Biso   1.000  H
  H11      1.0000 0.33050  0.44690  0.36910  Biso   1.000  H
  H12      1.0000 0.33050  0.05310  0.86910  Biso   1.000  H
  H13      1.0000 0.72060  0.61220  0.62640  Biso   1.000  H
  H14      1.0000 0.72060  0.88780  0.12640  Biso   1.000  H
  H15      1.0000 0.27940  0.38780  0.37360  Biso   1.000  H
  H16      1.0000 0.27940  0.11220  0.87360  Biso   1.000  H
  O9       1.0000 0.79510  0.59546  0.83885  Biso   1.000  O
  O10      1.0000 0.79510  0.90454  0.33885  Biso   1.000  O
  O11      1.0000 0.20490  0.40454  0.16115  Biso   1.000  O
  O12      1.0000 0.20490  0.09546  0.66115  Biso   1.000  O
  H17      1.0000 0.82950  0.62310  0.86660  Biso   1.000  H
  H18      1.0000 0.82950  0.87690  0.36660  Biso   1.000  H
  H19      1.0000 0.17050  0.37690  0.13340  Biso   1.000  H
  H20      1.0000 0.17050  0.12310  0.63340  Biso   1.000  H
  H21      1.0000 0.77200  0.57340  0.86780  Biso   1.000  H
  H22      1.0000 0.77200  0.92660  0.36780  Biso   1.000  H
  H23      1.0000 0.22800  0.42660  0.13220  Biso   1.000  H
  H24      1.0000 0.22800  0.07340  0.63220  Biso   1.000  H
  O13      1.0000 0.29968  0.65250  0.84105  Biso   1.000  O
  O14      1.0000 0.29968  0.84750  0.34105  Biso   1.000  O
  O15      1.0000 0.70032  0.34750  0.15895  Biso   1.000  O
  O16      1.0000 0.70032  0.15250  0.65895  Biso   1.000  O
  H25      1.0000 0.32970  0.62300  0.86980  Biso   1.000  H
  H26      1.0000 0.32970  0.87700  0.36980  Biso   1.000  H
  H27      1.0000 0.67030  0.37700  0.13020  Biso   1.000  H
  H28      1.0000 0.67030  0.12300  0.63020  Biso   1.000  H
  H29      1.0000 0.27150  0.67300  0.87210  Biso   1.000  H
  H30      1.0000 0.27150  0.82700  0.37210  Biso   1.000  H
  H31      1.0000 0.72850  0.32700  0.12790  Biso   1.000  H
  H32      1.0000 0.72850  0.17300  0.62790  Biso   1.000  H
  O17      1.0000 0.35257  0.72756  0.73455  Biso   1.000  O
  O18      1.0000 0.35257  0.77244  0.23455  Biso   1.000  O
  O19      1.0000 0.64743  0.27244  0.26545  Biso   1.000  O
  O20      1.0000 0.64743  0.22756  0.76545  Biso   1.000  O
  H33      1.0000 0.34940  0.73110  0.68820  Biso   1.000  H
  H34      1.0000 0.34940  0.76890  0.18820  Biso   1.000  H
  H35      1.0000 0.65060  0.26890  0.31180  Biso   1.000  H
  H36      1.0000 0.65060  0.23110  0.81180  Biso   1.000  H
  H37      1.0000 0.38350  0.76040  0.75520  Biso   1.000  H
  H38      1.0000 0.38350  0.73960  0.25520  Biso   1.000  H
  H39      1.0000 0.61650  0.23960  0.24480  Biso   1.000  H
  H40      1.0000 0.61650  0.26040  0.74480  Biso   1.000  H
  O21      1.0000 0.20541  0.65634  0.66003  Biso   1.000  O
  O22      1.0000 0.20541  0.84366  0.16003  Biso   1.000  O
  O23      1.0000 0.79459  0.34366  0.33997  Biso   1.000  O
  O24      1.0000 0.79459  0.15634  0.83997  Biso   1.000  O
  H41      1.0000 0.15950  0.68310  0.63270  Biso   1.000  H
  H42      1.0000 0.15950  0.81690  0.13270  Biso   1.000  H
  H43      1.0000 0.84050  0.31690  0.36730  Biso   1.000  H
  H44      1.0000 0.84050  0.18310  0.86730  Biso   1.000  H
  H45      1.0000 0.20550  0.62720  0.62930  Biso   1.000  H
  H46      1.0000 0.20550  0.87280  0.12930  Biso   1.000  H
  H47      1.0000 0.79450  0.37280  0.37070  Biso   1.000  H
  H48      1.0000 0.79450  0.12720  0.87070  Biso   1.000  H
  N1       1.0000 0.66410  0.51887  0.76291  Biso   1.000  N
  N2       1.0000 0.66410  0.98113  0.26291  Biso   1.000  N
  N3       1.0000 0.33590  0.48113  0.23709  Biso   1.000  N
  N4       1.0000 0.33590  0.01887  0.73709  Biso   1.000  N
  N5       1.0000 0.30340  0.57423  0.73926  Biso   1.000  N
  N6       1.0000 0.30340  0.92577  0.23926  Biso   1.000  N
  N7       1.0000 0.69660  0.42577  0.26074  Biso   1.000  N
  N8       1.0000 0.69660  0.07423  0.76074  Biso   1.000  N
  N9       1.0000 0.80240  0.66961  0.73529  Biso   1.000  N
  N10      1.0000 0.80240  0.83039  0.23529  Biso   1.000  N
  N11      1.0000 0.19760  0.33039  0.26471  Biso   1.000  N
  N12      1.0000 0.19760  0.16961  0.76471  Biso   1.000  N
  N13      1.0000 0.16350  0.72438  0.76410  Biso   1.000  N
  N14      1.0000 0.16350  0.77562  0.26410  Biso   1.000  N
  N15      1.0000 0.83650  0.27562  0.23590  Biso   1.000  N
  N16      1.0000 0.83650  0.22438  0.73590  Biso   1.000  N
  N17      1.0000 0.59370  0.50359  0.59883  Biso   1.000  N
  N18      1.0000 0.59370  0.99641  0.09883  Biso   1.000  N
  N19      1.0000 0.40630  0.49641  0.40117  Biso   1.000  N
  N20      1.0000 0.40630  0.00359  0.90117  Biso   1.000  N
  N21      1.0000 0.23880  0.56612  0.57690  Biso   1.000  N
  N22      1.0000 0.23880  0.93388  0.07690  Biso   1.000  N
  N23      1.0000 0.76120  0.43388  0.42310  Biso   1.000  N
  N24      1.0000 0.76120  0.06612  0.92310  Biso   1.000  N
  N25      1.0000 0.74140  0.52758  0.93445  Biso   1.000  N
  N26      1.0000 0.74140  0.97242  0.43445  Biso   1.000  N
  N27      1.0000 0.25860  0.47242  0.06555  Biso   1.000  N
  N28      1.0000 0.25860  0.02758  0.56555  Biso   1.000  N
  N29      1.0000 0.37510  0.55349  0.89515  Biso   1.000  N
  N30      1.0000 0.37510  0.94651  0.39515  Biso   1.000  N
  N31      1.0000 0.62490  0.44651  0.10485  Biso   1.000  N
  N32      1.0000 0.62490  0.05349  0.60485  Biso   1.000  N
  N33      1.0000 0.23540  0.71629  0.93427  Biso   1.000  N
  N34      1.0000 0.23540  0.78371  0.43427  Biso   1.000  N
  N35      1.0000 0.76460  0.28371  0.06573  Biso   1.000  N
  N36      1.0000 0.76460  0.21629  0.56573  Biso   1.000  N
  N37      1.0000 0.86890  0.69457  0.89271  Biso   1.000  N
  N38      1.0000 0.86890  0.80543  0.39271  Biso   1.000  N
  N39      1.0000 0.13110  0.30543  0.10729  Biso   1.000  N
  N40      1.0000 0.13110  0.19457  0.60729  Biso   1.000  N
  N41      1.0000 0.09210  0.73732  0.60124  Biso   1.000  N
  N42      1.0000 0.09210  0.76268  0.10124  Biso   1.000  N
  N43      1.0000 0.90790  0.26268  0.39876  Biso   1.000  N
  N44      1.0000 0.90790  0.23732  0.89876  Biso   1.000  N
  N45      1.0000 0.73510  0.67642  0.56954  Biso   1.000  N
  N46      1.0000 0.73510  0.82358  0.06954  Biso   1.000  N
  N47      1.0000 0.26490  0.32358  0.43046  Biso   1.000  N
  N48      1.0000 0.26490  0.17642  0.93046  Biso   1.000  N
  C1       1.0000 0.69130  0.46246  0.77020  Biso   1.000  C
  C2       1.0000 0.69130  0.03754  0.27020  Biso   1.000  C
  C3       1.0000 0.30870  0.53754  0.22980  Biso   1.000  C
  C4       1.0000 0.30870  0.96246  0.72980  Biso   1.000  C
  H49      1.0000 0.75420  0.45460  0.77640  Biso   1.000  H
  H50      1.0000 0.75420  0.04540  0.27640  Biso   1.000  H
  H51      1.0000 0.24580  0.54540  0.22360  Biso   1.000  H
  H52      1.0000 0.24580  0.95460  0.72360  Biso   1.000  H
  C5       1.0000 0.63330  0.41464  0.76900  Biso   1.000  C
  C6       1.0000 0.63330  0.08536  0.26900  Biso   1.000  C
  C7       1.0000 0.36670  0.58536  0.23100  Biso   1.000  C
  C8       1.0000 0.36670  0.91464  0.73100  Biso   1.000  C
  H53      1.0000 0.65620  0.37470  0.77570  Biso   1.000  H
  H54      1.0000 0.65620  0.12530  0.27570  Biso   1.000  H
  H55      1.0000 0.34380  0.62530  0.22430  Biso   1.000  H
  H56      1.0000 0.34380  0.87470  0.72430  Biso   1.000  H
  C9       1.0000 0.54360  0.42443  0.75870  Biso   1.000  C
  C10      1.0000 0.54360  0.07557  0.25870  Biso   1.000  C
  C11      1.0000 0.45640  0.57557  0.24130  Biso   1.000  C
  C12      1.0000 0.45640  0.92443  0.74130  Biso   1.000  C
  H57      1.0000 0.50270  0.39150  0.75560  Biso   1.000  H
  H58      1.0000 0.50270  0.10850  0.25560  Biso   1.000  H
  H59      1.0000 0.49730  0.60850  0.24440  Biso   1.000  H
  H60      1.0000 0.49730  0.89150  0.74440  Biso   1.000  H
  C13      1.0000 0.51110  0.48308  0.75265  Biso   1.000  C
  C14      1.0000 0.51110  0.01692  0.25265  Biso   1.000  C
  C15      1.0000 0.48890  0.51692  0.24735  Biso   1.000  C
  C16      1.0000 0.48890  0.98308  0.74735  Biso   1.000  C
  C17      1.0000 0.57400  0.53015  0.75700  Biso   1.000  C
  C18      1.0000 0.57400  0.96985  0.25700  Biso   1.000  C
  C19      1.0000 0.42600  0.46985  0.24300  Biso   1.000  C
  C20      1.0000 0.42600  0.03015  0.74300  Biso   1.000  C
  C21      1.0000 0.54450  0.59009  0.75771  Biso   1.000  C
  C22      1.0000 0.54450  0.90991  0.25771  Biso   1.000  C
  C23      1.0000 0.45550  0.40991  0.24229  Biso   1.000  C
  C24      1.0000 0.45550  0.09009  0.74229  Biso   1.000  C
  H61      1.0000 0.58740  0.62190  0.76110  Biso   1.000  H
  H62      1.0000 0.58740  0.87810  0.26110  Biso   1.000  H
  H63      1.0000 0.41260  0.37810  0.23890  Biso   1.000  H
  H64      1.0000 0.41260  0.12190  0.73890  Biso   1.000  H
  C25      1.0000 0.45780  0.60337  0.75351  Biso   1.000  C
  C26      1.0000 0.45780  0.89663  0.25351  Biso   1.000  C
  C27      1.0000 0.54220  0.39663  0.24649  Biso   1.000  C
  C28      1.0000 0.54220  0.10337  0.74649  Biso   1.000  C
  H65      1.0000 0.44020  0.64440  0.75580  Biso   1.000  H
  H66      1.0000 0.44020  0.85560  0.25580  Biso   1.000  H
  H67      1.0000 0.55980  0.35560  0.24420  Biso   1.000  H
  H68      1.0000 0.55980  0.14440  0.74420  Biso   1.000  H
  C29      1.0000 0.39110  0.55772  0.74591  Biso   1.000  C
  C30      1.0000 0.39110  0.94228  0.24591  Biso   1.000  C
  C31      1.0000 0.60890  0.44228  0.25409  Biso   1.000  C
  C32      1.0000 0.60890  0.05772  0.75409  Biso   1.000  C
  C33      1.0000 0.41740  0.49721  0.74375  Biso   1.000  C
  C34      1.0000 0.41740  0.00279  0.24375  Biso   1.000  C
  C35      1.0000 0.58260  0.50279  0.25625  Biso   1.000  C
  C36      1.0000 0.58260  0.99721  0.75625  Biso   1.000  C
  C37      1.0000 0.34980  0.45439  0.73244  Biso   1.000  C
  C38      1.0000 0.34980  0.04561  0.23244  Biso   1.000  C
  C39      1.0000 0.65020  0.54561  0.26756  Biso   1.000  C
  C40      1.0000 0.65020  0.95439  0.76756  Biso   1.000  C
  H69      1.0000 0.36500  0.41300  0.72920  Biso   1.000  H
  H70      1.0000 0.36500  0.08700  0.22920  Biso   1.000  H
  H71      1.0000 0.63500  0.58700  0.27080  Biso   1.000  H
  H72      1.0000 0.63500  0.91300  0.77080  Biso   1.000  H
  C41      1.0000 0.26250  0.47157  0.72480  Biso   1.000  C
  C42      1.0000 0.26250  0.02843  0.22480  Biso   1.000  C
  C43      1.0000 0.73750  0.52843  0.27520  Biso   1.000  C
  C44      1.0000 0.73750  0.97157  0.77520  Biso   1.000  C
  H73      1.0000 0.21610  0.44200  0.71770  Biso   1.000  H
  H74      1.0000 0.21610  0.05800  0.21770  Biso   1.000  H
  H75      1.0000 0.78390  0.55800  0.28230  Biso   1.000  H
  H76      1.0000 0.78390  0.94200  0.78230  Biso   1.000  H
  C45      1.0000 0.24190  0.53114  0.72902  Biso   1.000  C
  C46      1.0000 0.24190  0.96886  0.22902  Biso   1.000  C
  C47      1.0000 0.75810  0.46886  0.27098  Biso   1.000  C
  C48      1.0000 0.75810  0.03114  0.77098  Biso   1.000  C
  H77      1.0000 0.18040  0.54270  0.72380  Biso   1.000  H
  H78      1.0000 0.18040  0.95730  0.22380  Biso   1.000  H
  H79      1.0000 0.81960  0.45730  0.27620  Biso   1.000  H
  H80      1.0000 0.81960  0.04270  0.77620  Biso   1.000  H
  C49      1.0000 0.74120  0.71289  0.72620  Biso   1.000  C
  C50      1.0000 0.74120  0.78711  0.22620  Biso   1.000  C
  C51      1.0000 0.25880  0.28711  0.27380  Biso   1.000  C
  C52      1.0000 0.25880  0.21289  0.77380  Biso   1.000  C
  H81      1.0000 0.67960  0.70140  0.72020  Biso   1.000  H
  H82      1.0000 0.67960  0.79860  0.22020  Biso   1.000  H
  H83      1.0000 0.32040  0.29860  0.27980  Biso   1.000  H
  H84      1.0000 0.32040  0.20140  0.77980  Biso   1.000  H
  C53      1.0000 0.76210  0.77261  0.72400  Biso   1.000  C
  C54      1.0000 0.76210  0.72739  0.22400  Biso   1.000  C
  C55      1.0000 0.23790  0.22739  0.27600  Biso   1.000  C
  C56      1.0000 0.23790  0.27261  0.77600  Biso   1.000  C
  H85      1.0000 0.71570  0.80210  0.71700  Biso   1.000  H
  H86      1.0000 0.71570  0.69790  0.21700  Biso   1.000  H
  H87      1.0000 0.28430  0.19790  0.28300  Biso   1.000  H
  H88      1.0000 0.28430  0.30210  0.78300  Biso   1.000  H
  C57      1.0000 0.84940  0.79017  0.73280  Biso   1.000  C
  C58      1.0000 0.84940  0.70983  0.23280  Biso   1.000  C
  C59      1.0000 0.15060  0.20983  0.26720  Biso   1.000  C
  C60      1.0000 0.15060  0.29017  0.76720  Biso   1.000  C
  H89      1.0000 0.86480  0.83180  0.73220  Biso   1.000  H
  H90      1.0000 0.86480  0.66820  0.23220  Biso   1.000  H
  H91      1.0000 0.13520  0.16820  0.26780  Biso   1.000  H
  H92      1.0000 0.13520  0.33180  0.76780  Biso   1.000  H
  C61      1.0000 0.91650  0.74687  0.74245  Biso   1.000  C
  C62      1.0000 0.91650  0.75313  0.24245  Biso   1.000  C
  C63      1.0000 0.08350  0.25313  0.25755  Biso   1.000  C
  C64      1.0000 0.08350  0.24687  0.75755  Biso   1.000  C
  C65      1.0000 0.89090  0.68600  0.74162  Biso   1.000  C
  C66      1.0000 0.89090  0.81400  0.24162  Biso   1.000  C
  C67      1.0000 0.10910  0.31400  0.25838  Biso   1.000  C
  C68      1.0000 0.10910  0.18600  0.75838  Biso   1.000  C
  C69      1.0000 0.95620  0.63997  0.74681  Biso   1.000  C
  C70      1.0000 0.95620  0.86003  0.24681  Biso   1.000  C
  C71      1.0000 0.04380  0.36003  0.25319  Biso   1.000  C
  C72      1.0000 0.04380  0.13997  0.75319  Biso   1.000  C
  H93      1.0000 0.93790  0.59890  0.74650  Biso   1.000  H
  H94      1.0000 0.93790  0.90110  0.24650  Biso   1.000  H
  H95      1.0000 0.06210  0.40110  0.25350  Biso   1.000  H
  H96      1.0000 0.06210  0.09890  0.75350  Biso   1.000  H
  C73      1.0000 0.04350  0.65319  0.75239  Biso   1.000  C
  C74      1.0000 0.04350  0.84681  0.25239  Biso   1.000  C
  C75      1.0000 0.95650  0.34681  0.24761  Biso   1.000  C
  C76      1.0000 0.95650  0.15319  0.74761  Biso   1.000  C
  H97      1.0000 0.08620  0.62150  0.75410  Biso   1.000  H
  H98      1.0000 0.08620  0.87850  0.25410  Biso   1.000  H
  H99      1.0000 0.91380  0.37850  0.24590  Biso   1.000  H
  H100     1.0000 0.91380  0.12150  0.74590  Biso   1.000  H
  C77      1.0000 0.07370  0.71381  0.75583  Biso   1.000  C
  C78      1.0000 0.07370  0.78619  0.25583  Biso   1.000  C
  C79      1.0000 0.92630  0.28619  0.24417  Biso   1.000  C
  C80      1.0000 0.92630  0.21381  0.74417  Biso   1.000  C
  C81      1.0000 0.01110  0.76057  0.75267  Biso   1.000  C
  C82      1.0000 0.01110  0.73943  0.25267  Biso   1.000  C
  C83      1.0000 0.98890  0.23943  0.24733  Biso   1.000  C
  C84      1.0000 0.98890  0.26057  0.74733  Biso   1.000  C
  C85      1.0000 0.04400  0.81900  0.76120  Biso   1.000  C
  C86      1.0000 0.04400  0.68100  0.26120  Biso   1.000  C
  C87      1.0000 0.95600  0.18100  0.23880  Biso   1.000  C
  C88      1.0000 0.95600  0.31900  0.73880  Biso   1.000  C
  H101     1.0000 0.00370  0.85230  0.75800  Biso   1.000  H
  H102     1.0000 0.00370  0.64770  0.25800  Biso   1.000  H
  H103     1.0000 0.99630  0.14770  0.24200  Biso   1.000  H
  H104     1.0000 0.99630  0.35230  0.74200  Biso   1.000  H
  C89      1.0000 0.13410  0.82822  0.77400  Biso   1.000  C
  C90      1.0000 0.13410  0.67178  0.27400  Biso   1.000  C
  C91      1.0000 0.86590  0.17178  0.22600  Biso   1.000  C
  C92      1.0000 0.86590  0.32822  0.72600  Biso   1.000  C
  H105     1.0000 0.15750  0.86770  0.78290  Biso   1.000  H
  H106     1.0000 0.15750  0.63230  0.28290  Biso   1.000  H
  H107     1.0000 0.84250  0.13230  0.21710  Biso   1.000  H
  H108     1.0000 0.84250  0.36770  0.71710  Biso   1.000  H
  C93      1.0000 0.19170  0.78028  0.77440  Biso   1.000  C
  C94      1.0000 0.19170  0.71972  0.27440  Biso   1.000  C
  C95      1.0000 0.80830  0.21972  0.22560  Biso   1.000  C
  C96      1.0000 0.80830  0.28028  0.72560  Biso   1.000  C
  H109     1.0000 0.25480  0.78760  0.78230  Biso   1.000  H
  H110     1.0000 0.25480  0.71240  0.28230  Biso   1.000  H
  H111     1.0000 0.74520  0.21240  0.21770  Biso   1.000  H
  H112     1.0000 0.74520  0.28760  0.71770  Biso   1.000  H
  C97      1.0000 0.61900  0.44790  0.58980  Biso   1.000  C
  C98      1.0000 0.61900  0.05210  0.08980  Biso   1.000  C
  C99      1.0000 0.38100  0.55210  0.41020  Biso   1.000  C
  C100     1.0000 0.38100  0.94790  0.91020  Biso   1.000  C
  H113     1.0000 0.68150  0.43900  0.59720  Biso   1.000  H
  H114     1.0000 0.68150  0.06100  0.09720  Biso   1.000  H
  H115     1.0000 0.31850  0.56100  0.40280  Biso   1.000  H
  H116     1.0000 0.31850  0.93900  0.90280  Biso   1.000  H
  C101     1.0000 0.55770  0.40200  0.57010  Biso   1.000  C
  C102     1.0000 0.55770  0.09800  0.07010  Biso   1.000  C
  C103     1.0000 0.44230  0.59800  0.42990  Biso   1.000  C
  C104     1.0000 0.44230  0.90200  0.92990  Biso   1.000  C
  H117     1.0000 0.57830  0.36230  0.56380  Biso   1.000  H
  H118     1.0000 0.57830  0.13770  0.06380  Biso   1.000  H
  H119     1.0000 0.42170  0.63770  0.43620  Biso   1.000  H
  H120     1.0000 0.42170  0.86230  0.93620  Biso   1.000  H
  C105     1.0000 0.46890  0.41422  0.56000  Biso   1.000  C
  C106     1.0000 0.46890  0.08578  0.06000  Biso   1.000  C
  C107     1.0000 0.53110  0.58578  0.44000  Biso   1.000  C
  C108     1.0000 0.53110  0.91422  0.94000  Biso   1.000  C
  H121     1.0000 0.42630  0.38330  0.54590  Biso   1.000  H
  H122     1.0000 0.42630  0.11670  0.04590  Biso   1.000  H
  H123     1.0000 0.57370  0.61670  0.45410  Biso   1.000  H
  H124     1.0000 0.57370  0.88330  0.95410  Biso   1.000  H
  C109     1.0000 0.43950  0.47248  0.56934  Biso   1.000  C
  C110     1.0000 0.43950  0.02752  0.06934  Biso   1.000  C
  C111     1.0000 0.56050  0.52752  0.43066  Biso   1.000  C
  C112     1.0000 0.56050  0.97248  0.93066  Biso   1.000  C
  C113     1.0000 0.50510  0.51652  0.58847  Biso   1.000  C
  C114     1.0000 0.50510  0.98348  0.08847  Biso   1.000  C
  C115     1.0000 0.49490  0.48348  0.41153  Biso   1.000  C
  C116     1.0000 0.49490  0.01652  0.91153  Biso   1.000  C
  C117     1.0000 0.47950  0.57596  0.59920  Biso   1.000  C
  C118     1.0000 0.47950  0.92404  0.09920  Biso   1.000  C
  C119     1.0000 0.52050  0.42404  0.40080  Biso   1.000  C
  C120     1.0000 0.52050  0.07596  0.90080  Biso   1.000  C
  H125     1.0000 0.52480  0.60590  0.61000  Biso   1.000  H
  H126     1.0000 0.52480  0.89410  0.11000  Biso   1.000  H
  H127     1.0000 0.47520  0.39410  0.39000  Biso   1.000  H
  H128     1.0000 0.47520  0.10590  0.89000  Biso   1.000  H
  C121     1.0000 0.39300  0.59115  0.59523  Biso   1.000  C
  C122     1.0000 0.39300  0.90885  0.09523  Biso   1.000  C
  C123     1.0000 0.60700  0.40885  0.40477  Biso   1.000  C
  C124     1.0000 0.60700  0.09115  0.90477  Biso   1.000  C
  H129     1.0000 0.37770  0.63150  0.60410  Biso   1.000  H
  H130     1.0000 0.37770  0.86850  0.10410  Biso   1.000  H
  H131     1.0000 0.62230  0.36850  0.39590  Biso   1.000  H
  H132     1.0000 0.62230  0.13150  0.89590  Biso   1.000  H
  C125     1.0000 0.32450  0.54791  0.57742  Biso   1.000  C
  C126     1.0000 0.32450  0.95209  0.07742  Biso   1.000  C
  C127     1.0000 0.67550  0.45209  0.42258  Biso   1.000  C
  C128     1.0000 0.67550  0.04791  0.92258  Biso   1.000  C
  C129     1.0000 0.34670  0.48885  0.56215  Biso   1.000  C
  C130     1.0000 0.34670  0.01115  0.06215  Biso   1.000  C
  C131     1.0000 0.65330  0.51115  0.43785  Biso   1.000  C
  C132     1.0000 0.65330  0.98885  0.93785  Biso   1.000  C
  C133     1.0000 0.27480  0.44990  0.54070  Biso   1.000  C
  C134     1.0000 0.27480  0.05010  0.04070  Biso   1.000  C
  C135     1.0000 0.72520  0.55010  0.45930  Biso   1.000  C
  C136     1.0000 0.72520  0.94990  0.95930  Biso   1.000  C
  H133     1.0000 0.28650  0.40990  0.52800  Biso   1.000  H
  H134     1.0000 0.28650  0.09010  0.02800  Biso   1.000  H
  H135     1.0000 0.71350  0.59010  0.47200  Biso   1.000  H
  H136     1.0000 0.71350  0.90990  0.97200  Biso   1.000  H
  C137     1.0000 0.18960  0.46960  0.53680  Biso   1.000  C
  C138     1.0000 0.18960  0.03040  0.03680  Biso   1.000  C
  C139     1.0000 0.81040  0.53040  0.46320  Biso   1.000  C
  C140     1.0000 0.81040  0.96960  0.96320  Biso   1.000  C
  H137     1.0000 0.14060  0.44370  0.52050  Biso   1.000  H
  H138     1.0000 0.14060  0.05630  0.02050  Biso   1.000  H
  H139     1.0000 0.85940  0.55630  0.47950  Biso   1.000  H
  H140     1.0000 0.85940  0.94370  0.97950  Biso   1.000  H
  C141     1.0000 0.17460  0.52690  0.55700  Biso   1.000  C
  C142     1.0000 0.17460  0.97310  0.05700  Biso   1.000  C
  C143     1.0000 0.82540  0.47310  0.44300  Biso   1.000  C
  C144     1.0000 0.82540  0.02690  0.94300  Biso   1.000  C
  H141     1.0000 0.11430  0.53900  0.55730  Biso   1.000  H
  H142     1.0000 0.11430  0.96100  0.05730  Biso   1.000  H
  H143     1.0000 0.88570  0.46100  0.44270  Biso   1.000  H
  H144     1.0000 0.88570  0.03900  0.94270  Biso   1.000  H
  C145     1.0000 0.77950  0.47500  0.94890  Biso   1.000  C
  C146     1.0000 0.77950  0.02500  0.44890  Biso   1.000  C
  C147     1.0000 0.22050  0.52500  0.05110  Biso   1.000  C
  C148     1.0000 0.22050  0.97500  0.55110  Biso   1.000  C
  H145     1.0000 0.84310  0.47250  0.95260  Biso   1.000  H
  H146     1.0000 0.84310  0.02750  0.45260  Biso   1.000  H
  H147     1.0000 0.15690  0.52750  0.04740  Biso   1.000  H
  H148     1.0000 0.15690  0.97250  0.54740  Biso   1.000  H
  C149     1.0000 0.73270  0.42350  0.95740  Biso   1.000  C
  C150     1.0000 0.73270  0.07650  0.45740  Biso   1.000  C
  C151     1.0000 0.26730  0.57650  0.04260  Biso   1.000  C
  C152     1.0000 0.26730  0.92350  0.54260  Biso   1.000  C
  H149     1.0000 0.76390  0.38700  0.97000  Biso   1.000  H
  H150     1.0000 0.76390  0.11300  0.47000  Biso   1.000  H
  H151     1.0000 0.23610  0.61300  0.03000  Biso   1.000  H
  H152     1.0000 0.23610  0.88700  0.53000  Biso   1.000  H
  C153     1.0000 0.64190  0.42556  0.94900  Biso   1.000  C
  C154     1.0000 0.64190  0.07444  0.44900  Biso   1.000  C
  C155     1.0000 0.35810  0.57444  0.05100  Biso   1.000  C
  C156     1.0000 0.35810  0.92556  0.55100  Biso   1.000  C
  H153     1.0000 0.60810  0.38990  0.95290  Biso   1.000  H
  H154     1.0000 0.60810  0.11010  0.45290  Biso   1.000  H
  H155     1.0000 0.39190  0.61010  0.04710  Biso   1.000  H
  H156     1.0000 0.39190  0.88990  0.54710  Biso   1.000  H
  C157     1.0000 0.59750  0.48023  0.93389  Biso   1.000  C
  C158     1.0000 0.59750  0.01977  0.43389  Biso   1.000  C
  C159     1.0000 0.40250  0.51977  0.06611  Biso   1.000  C
  C160     1.0000 0.40250  0.98023  0.56611  Biso   1.000  C
  C161     1.0000 0.65110  0.53111  0.92910  Biso   1.000  C
  C162     1.0000 0.65110  0.96889  0.42910  Biso   1.000  C
  C163     1.0000 0.34890  0.46889  0.07090  Biso   1.000  C
  C164     1.0000 0.34890  0.03111  0.57090  Biso   1.000  C
  C165     1.0000 0.61070  0.58842  0.91850  Biso   1.000  C
  C166     1.0000 0.61070  0.91158  0.41850  Biso   1.000  C
  C167     1.0000 0.38930  0.41158  0.08150  Biso   1.000  C
  C168     1.0000 0.38930  0.08842  0.58150  Biso   1.000  C
  H157     1.0000 0.64780  0.62290  0.91700  Biso   1.000  H
  H158     1.0000 0.64780  0.87710  0.41700  Biso   1.000  H
  H159     1.0000 0.35220  0.37710  0.08300  Biso   1.000  H
  H160     1.0000 0.35220  0.12290  0.58300  Biso   1.000  H
  C169     1.0000 0.52150  0.59536  0.91070  Biso   1.000  C
  C170     1.0000 0.52150  0.90464  0.41070  Biso   1.000  C
  C171     1.0000 0.47850  0.40464  0.08930  Biso   1.000  C
  C172     1.0000 0.47850  0.09536  0.58930  Biso   1.000  C
  H161     1.0000 0.49600  0.63470  0.90630  Biso   1.000  H
  H162     1.0000 0.49600  0.86530  0.40630  Biso   1.000  H
  H163     1.0000 0.50400  0.36530  0.09370  Biso   1.000  H
  H164     1.0000 0.50400  0.13470  0.59370  Biso   1.000  H
  C173     1.0000 0.46440  0.54466  0.90936  Biso   1.000  C
  C174     1.0000 0.46440  0.95534  0.40936  Biso   1.000  C
  C175     1.0000 0.53560  0.45534  0.09064  Biso   1.000  C
  C176     1.0000 0.53560  0.04466  0.59064  Biso   1.000  C
  C177     1.0000 0.50190  0.48698  0.92183  Biso   1.000  C
  C178     1.0000 0.50190  0.01302  0.42183  Biso   1.000  C
  C179     1.0000 0.49810  0.51302  0.07817  Biso   1.000  C
  C180     1.0000 0.49810  0.98698  0.57817  Biso   1.000  C
  C181     1.0000 0.44230  0.43915  0.92100  Biso   1.000  C
  C182     1.0000 0.44230  0.06085  0.42100  Biso   1.000  C
  C183     1.0000 0.55770  0.56085  0.07900  Biso   1.000  C
  C184     1.0000 0.55770  0.93915  0.57900  Biso   1.000  C
  H165     1.0000 0.46500  0.39950  0.93010  Biso   1.000  H
  H166     1.0000 0.46500  0.10050  0.43010  Biso   1.000  H
  H167     1.0000 0.53500  0.60050  0.06990  Biso   1.000  H
  H168     1.0000 0.53500  0.89950  0.56990  Biso   1.000  H
  C185     1.0000 0.35280  0.44860  0.90700  Biso   1.000  C
  C186     1.0000 0.35280  0.05140  0.40700  Biso   1.000  C
  C187     1.0000 0.64720  0.55140  0.09300  Biso   1.000  C
  C188     1.0000 0.64720  0.94860  0.59300  Biso   1.000  C
  H169     1.0000 0.31150  0.41600  0.90610  Biso   1.000  H
  H170     1.0000 0.31150  0.08400  0.40610  Biso   1.000  H
  H171     1.0000 0.68850  0.58400  0.09390  Biso   1.000  H
  H172     1.0000 0.68850  0.91600  0.59390  Biso   1.000  H
  C189     1.0000 0.32200  0.50720  0.89470  Biso   1.000  C
  C190     1.0000 0.32200  0.99280  0.39470  Biso   1.000  C
  C191     1.0000 0.67800  0.49280  0.10530  Biso   1.000  C
  C192     1.0000 0.67800  0.00720  0.60530  Biso   1.000  C
  H173     1.0000 0.25880  0.51390  0.88500  Biso   1.000  H
  H174     1.0000 0.25880  0.98610  0.38500  Biso   1.000  H
  H175     1.0000 0.74120  0.48610  0.11500  Biso   1.000  H
  H176     1.0000 0.74120  0.01390  0.61500  Biso   1.000  H
  C193     1.0000 0.27560  0.76710  0.95250  Biso   1.000  C
  C194     1.0000 0.27560  0.73290  0.45250  Biso   1.000  C
  C195     1.0000 0.72440  0.23290  0.04750  Biso   1.000  C
  C196     1.0000 0.72440  0.26710  0.54750  Biso   1.000  C
  H177     1.0000 0.33940  0.76890  0.95730  Biso   1.000  H
  H178     1.0000 0.33940  0.73110  0.45730  Biso   1.000  H
  H179     1.0000 0.66060  0.23110  0.04270  Biso   1.000  H
  H180     1.0000 0.66060  0.26890  0.54270  Biso   1.000  H
  C197     1.0000 0.23010  0.81860  0.96390  Biso   1.000  C
  C198     1.0000 0.23010  0.68140  0.46390  Biso   1.000  C
  C199     1.0000 0.76990  0.18140  0.03610  Biso   1.000  C
  C200     1.0000 0.76990  0.31860  0.53610  Biso   1.000  C
  H181     1.0000 0.26230  0.85410  0.97910  Biso   1.000  H
  H182     1.0000 0.26230  0.64590  0.47910  Biso   1.000  H
  H183     1.0000 0.73770  0.14590  0.02090  Biso   1.000  H
  H184     1.0000 0.73770  0.35410  0.52090  Biso   1.000  H
  C201     1.0000 0.13890  0.81774  0.95460  Biso   1.000  C
  C202     1.0000 0.13890  0.68226  0.45460  Biso   1.000  C
  C203     1.0000 0.86110  0.18226  0.04540  Biso   1.000  C
  C204     1.0000 0.86110  0.31774  0.54540  Biso   1.000  C
  H185     1.0000 0.10600  0.85320  0.96070  Biso   1.000  H
  H186     1.0000 0.10600  0.64680  0.46070  Biso   1.000  H
  H187     1.0000 0.89400  0.14680  0.03930  Biso   1.000  H
  H188     1.0000 0.89400  0.35320  0.53930  Biso   1.000  H
  C205     1.0000 0.09320  0.76450  0.93519  Biso   1.000  C
  C206     1.0000 0.09320  0.73550  0.43519  Biso   1.000  C
  C207     1.0000 0.90680  0.23550  0.06481  Biso   1.000  C
  C208     1.0000 0.90680  0.26450  0.56481  Biso   1.000  C
  C209     1.0000 0.14500  0.71370  0.92770  Biso   1.000  C
  C210     1.0000 0.14500  0.78630  0.42770  Biso   1.000  C
  C211     1.0000 0.85500  0.28630  0.07230  Biso   1.000  C
  C212     1.0000 0.85500  0.21370  0.57230  Biso   1.000  C
  C213     1.0000 0.10350  0.65701  0.91250  Biso   1.000  C
  C214     1.0000 0.10350  0.84299  0.41250  Biso   1.000  C
  C215     1.0000 0.89650  0.34299  0.08750  Biso   1.000  C
  C216     1.0000 0.89650  0.15701  0.58750  Biso   1.000  C
  H189     1.0000 0.13970  0.62260  0.90850  Biso   1.000  H
  H190     1.0000 0.13970  0.87740  0.40850  Biso   1.000  H
  H191     1.0000 0.86030  0.37740  0.09150  Biso   1.000  H
  H192     1.0000 0.86030  0.12260  0.59150  Biso   1.000  H
  C217     1.0000 0.01430  0.65142  0.90410  Biso   1.000  C
  C218     1.0000 0.01430  0.84858  0.40410  Biso   1.000  C
  C219     1.0000 0.98570  0.34858  0.09590  Biso   1.000  C
  C220     1.0000 0.98570  0.15142  0.59590  Biso   1.000  C
  H193     1.0000 0.98780  0.61260  0.89660  Biso   1.000  H
  H194     1.0000 0.98780  0.88740  0.39660  Biso   1.000  H
  H195     1.0000 0.01220  0.38740  0.10340  Biso   1.000  H
  H196     1.0000 0.01220  0.11260  0.60340  Biso   1.000  H
  C221     1.0000 0.95850  0.70284  0.90684  Biso   1.000  C
  C222     1.0000 0.95850  0.79716  0.40684  Biso   1.000  C
  C223     1.0000 0.04150  0.29716  0.09316  Biso   1.000  C
  C224     1.0000 0.04150  0.20284  0.59316  Biso   1.000  C
  C225     1.0000 0.99680  0.75955  0.92232  Biso   1.000  C
  C226     1.0000 0.99680  0.74045  0.42232  Biso   1.000  C
  C227     1.0000 0.00320  0.24045  0.07768  Biso   1.000  C
  C228     1.0000 0.00320  0.25955  0.57768  Biso   1.000  C
  C229     1.0000 0.93860  0.80775  0.92370  Biso   1.000  C
  C230     1.0000 0.93860  0.69225  0.42370  Biso   1.000  C
  C231     1.0000 0.06140  0.19225  0.07630  Biso   1.000  C
  C232     1.0000 0.06140  0.30775  0.57630  Biso   1.000  C
  H197     1.0000 0.96180  0.84700  0.93470  Biso   1.000  H
  H198     1.0000 0.96180  0.65300  0.43470  Biso   1.000  H
  H199     1.0000 0.03820  0.15300  0.06530  Biso   1.000  H
  H200     1.0000 0.03820  0.34700  0.56530  Biso   1.000  H
  C233     1.0000 0.84900  0.79850  0.90930  Biso   1.000  C
  C234     1.0000 0.84900  0.70150  0.40930  Biso   1.000  C
  C235     1.0000 0.15100  0.20150  0.09070  Biso   1.000  C
  C236     1.0000 0.15100  0.29850  0.59070  Biso   1.000  C
  H201     1.0000 0.80860  0.83120  0.91040  Biso   1.000  H
  H202     1.0000 0.80860  0.66880  0.41040  Biso   1.000  H
  H203     1.0000 0.19140  0.16880  0.08960  Biso   1.000  H
  H204     1.0000 0.19140  0.33120  0.58960  Biso   1.000  H
  C237     1.0000 0.81630  0.74130  0.89350  Biso   1.000  C
  C238     1.0000 0.81630  0.75870  0.39350  Biso   1.000  C
  C239     1.0000 0.18370  0.25870  0.10650  Biso   1.000  C
  C240     1.0000 0.18370  0.24130  0.60650  Biso   1.000  C
  H205     1.0000 0.75310  0.73570  0.88260  Biso   1.000  H
  H206     1.0000 0.75310  0.76430  0.38260  Biso   1.000  H
  H207     1.0000 0.24690  0.26430  0.11740  Biso   1.000  H
  H208     1.0000 0.24690  0.23570  0.61740  Biso   1.000  H
  C241     1.0000 0.11820  0.79320  0.59690  Biso   1.000  C
  C242     1.0000 0.11820  0.70680  0.09690  Biso   1.000  C
  C243     1.0000 0.88180  0.20680  0.40310  Biso   1.000  C
  C244     1.0000 0.88180  0.29320  0.90310  Biso   1.000  C
  H209     1.0000 0.18090  0.80160  0.60620  Biso   1.000  H
  H210     1.0000 0.18090  0.69840  0.10620  Biso   1.000  H
  H211     1.0000 0.81910  0.19840  0.39380  Biso   1.000  H
  H212     1.0000 0.81910  0.30160  0.89380  Biso   1.000  H
  C245     1.0000 0.05860  0.84040  0.57990  Biso   1.000  C
  C246     1.0000 0.05860  0.65960  0.07990  Biso   1.000  C
  C247     1.0000 0.94140  0.15960  0.42010  Biso   1.000  C
  C248     1.0000 0.94140  0.34040  0.92010  Biso   1.000  C
  H213     1.0000 0.08020  0.88030  0.57590  Biso   1.000  H
  H214     1.0000 0.08020  0.61970  0.07590  Biso   1.000  H
  H215     1.0000 0.91980  0.11970  0.42410  Biso   1.000  H
  H216     1.0000 0.91980  0.38030  0.92410  Biso   1.000  H
  C249     1.0000 0.96950  0.82921  0.56870  Biso   1.000  C
  C250     1.0000 0.96950  0.67079  0.06870  Biso   1.000  C
  C251     1.0000 0.03050  0.17079  0.43130  Biso   1.000  C
  C252     1.0000 0.03050  0.32921  0.93130  Biso   1.000  C
  H217     1.0000 0.92760  0.86120  0.55750  Biso   1.000  H
  H218     1.0000 0.92760  0.63880  0.05750  Biso   1.000  H
  H219     1.0000 0.07240  0.13880  0.44250  Biso   1.000  H
  H220     1.0000 0.07240  0.36120  0.94250  Biso   1.000  H
  C253     1.0000 0.93830  0.77065  0.57360  Biso   1.000  C
  C254     1.0000 0.93830  0.72935  0.07360  Biso   1.000  C
  C255     1.0000 0.06170  0.22935  0.42640  Biso   1.000  C
  C256     1.0000 0.06170  0.27065  0.92640  Biso   1.000  C
  C257     1.0000 0.00310  0.72526  0.58879  Biso   1.000  C
  C258     1.0000 0.00310  0.77474  0.08879  Biso   1.000  C
  C259     1.0000 0.99690  0.27474  0.41121  Biso   1.000  C
  C260     1.0000 0.99690  0.22526  0.91121  Biso   1.000  C
  C261     1.0000 0.97610  0.66473  0.59433  Biso   1.000  C
  C262     1.0000 0.97610  0.83527  0.09433  Biso   1.000  C
  C263     1.0000 0.02390  0.33527  0.40567  Biso   1.000  C
  C264     1.0000 0.02390  0.16473  0.90567  Biso   1.000  C
  H221     1.0000 0.02060  0.63410  0.60310  Biso   1.000  H
  H222     1.0000 0.02060  0.86590  0.10310  Biso   1.000  H
  H223     1.0000 0.97940  0.36590  0.39690  Biso   1.000  H
  H224     1.0000 0.97940  0.13410  0.89690  Biso   1.000  H
  C265     1.0000 0.88880  0.65009  0.58730  Biso   1.000  C
  C266     1.0000 0.88880  0.84991  0.08730  Biso   1.000  C
  C267     1.0000 0.11120  0.34991  0.41270  Biso   1.000  C
  C268     1.0000 0.11120  0.15009  0.91270  Biso   1.000  C
  H225     1.0000 0.87220  0.60910  0.59180  Biso   1.000  H
  H226     1.0000 0.87220  0.89090  0.09180  Biso   1.000  H
  H227     1.0000 0.12780  0.39090  0.40820  Biso   1.000  H
  H228     1.0000 0.12780  0.10910  0.90820  Biso   1.000  H
  C269     1.0000 0.82150  0.69451  0.57344  Biso   1.000  C
  C270     1.0000 0.82150  0.80549  0.07344  Biso   1.000  C
  C271     1.0000 0.17850  0.30549  0.42656  Biso   1.000  C
  C272     1.0000 0.17850  0.19451  0.92656  Biso   1.000  C
  C273     1.0000 0.84520  0.75477  0.56403  Biso   1.000  C
  C274     1.0000 0.84520  0.74523  0.06403  Biso   1.000  C
  C275     1.0000 0.15480  0.24523  0.43597  Biso   1.000  C
  C276     1.0000 0.15480  0.25477  0.93597  Biso   1.000  C
  C277     1.0000 0.77480  0.79599  0.54740  Biso   1.000  C
  C278     1.0000 0.77480  0.70401  0.04740  Biso   1.000  C
  C279     1.0000 0.22520  0.20401  0.45260  Biso   1.000  C
  C280     1.0000 0.22520  0.29599  0.95260  Biso   1.000  C
  H229     1.0000 0.78770  0.83720  0.54040  Biso   1.000  H
  H230     1.0000 0.78770  0.66280  0.04040  Biso   1.000  H
  H231     1.0000 0.21230  0.16280  0.45960  Biso   1.000  H
  H232     1.0000 0.21230  0.33720  0.95960  Biso   1.000  H
  C281     1.0000 0.68910  0.77690  0.54040  Biso   1.000  C
  C282     1.0000 0.68910  0.72310  0.04040  Biso   1.000  C
  C283     1.0000 0.31090  0.22310  0.45960  Biso   1.000  C
  C284     1.0000 0.31090  0.27690  0.95960  Biso   1.000  C
  H233     1.0000 0.64110  0.80450  0.52740  Biso   1.000  H
  H234     1.0000 0.64110  0.69550  0.02740  Biso   1.000  H
  H235     1.0000 0.35890  0.19550  0.47260  Biso   1.000  H
  H236     1.0000 0.35890  0.30450  0.97260  Biso   1.000  H
  C285     1.0000 0.67250  0.71760  0.55290  Biso   1.000  C
  C286     1.0000 0.67250  0.78240  0.05290  Biso   1.000  C
  C287     1.0000 0.32750  0.28240  0.44710  Biso   1.000  C
  C288     1.0000 0.32750  0.21760  0.94710  Biso   1.000  C
  H237     1.0000 0.61150  0.70540  0.54930  Biso   1.000  H
  H238     1.0000 0.61150  0.79460  0.04930  Biso   1.000  H
  H239     1.0000 0.38850  0.29460  0.45070  Biso   1.000  H
  H240     1.0000 0.38850  0.20540  0.95070  Biso   1.000  H
  Cl1      1.0000 0.46789  0.77175  0.61360  Biso   1.000  Cl
  Cl2      1.0000 0.46789  0.72825  0.11360  Biso   1.000  Cl
  Cl3      1.0000 0.53211  0.22825  0.38640  Biso   1.000  Cl
  Cl4      1.0000 0.53211  0.27175  0.88640  Biso   1.000  Cl
  O25      1.0000 0.47360  0.78470  0.54988  Biso   1.000  O
  O26      1.0000 0.47360  0.71530  0.04988  Biso   1.000  O
  O27      1.0000 0.52640  0.21530  0.45012  Biso   1.000  O
  O28      1.0000 0.52640  0.28470  0.95012  Biso   1.000  O
  O29      1.0000 0.50320  0.71673  0.63690  Biso   1.000  O
  O30      1.0000 0.50320  0.78327  0.13690  Biso   1.000  O
  O31      1.0000 0.49680  0.28327  0.36310  Biso   1.000  O
  O32      1.0000 0.49680  0.21673  0.86310  Biso   1.000  O
  O33      1.0000 0.51820  0.81500  0.65110  Biso   1.000  O
  O34      1.0000 0.51820  0.68500  0.15110  Biso   1.000  O
  O35      1.0000 0.48180  0.18500  0.34890  Biso   1.000  O
  O36      1.0000 0.48180  0.31500  0.84890  Biso   1.000  O
  O37      1.0000 0.37810  0.77530  0.62030  Biso   1.000  O
  O38      1.0000 0.37810  0.72470  0.12030  Biso   1.000  O
  O39      1.0000 0.62190  0.22470  0.37970  Biso   1.000  O
  O40      1.0000 0.62190  0.27530  0.87970  Biso   1.000  O
  Cl5      1.0000 0.98063  0.46732  0.62524  Biso   1.000  Cl
  Cl6      1.0000 0.98063  0.03268  0.12524  Biso   1.000  Cl
  Cl7      1.0000 0.01937  0.53268  0.37476  Biso   1.000  Cl
  Cl8      1.0000 0.01937  0.96732  0.87476  Biso   1.000  Cl
  O41      1.0000 0.04130  0.42829  0.66388  Biso   1.000  O
  O42      1.0000 0.04130  0.07171  0.16388  Biso   1.000  O
  O43      1.0000 0.95870  0.57171  0.33612  Biso   1.000  O
  O44      1.0000 0.95870  0.92829  0.83612  Biso   1.000  O
  O45      1.0000 0.00520  0.52665  0.64280  Biso   1.000  O
  O46      1.0000 0.00520  0.97335  0.14280  Biso   1.000  O
  O47      1.0000 0.99480  0.47335  0.35720  Biso   1.000  O
  O48      1.0000 0.99480  0.02665  0.85720  Biso   1.000  O
  O49      1.0000 0.89390  0.45530  0.63610  Biso   1.000  O
  O50      1.0000 0.89390  0.04470  0.13610  Biso   1.000  O
  O51      1.0000 0.10610  0.54470  0.36390  Biso   1.000  O
  O52      1.0000 0.10610  0.95530  0.86390  Biso   1.000  O
  O53      1.0000 0.98540  0.45464  0.56037  Biso   1.000  O
  O54      1.0000 0.98540  0.04536  0.06037  Biso   1.000  O
  O55      1.0000 0.01460  0.54536  0.43963  Biso   1.000  O
  O56      1.0000 0.01460  0.95464  0.93963  Biso   1.000  O
  Cl9      1.0000 0.55955  0.77348  0.84662  Biso   1.000  Cl
  Cl10     1.0000 0.55955  0.72652  0.34662  Biso   1.000  Cl
  Cl11     1.0000 0.44045  0.22652  0.15338  Biso   1.000  Cl
  Cl12     1.0000 0.44045  0.27348  0.65338  Biso   1.000  Cl
  O57      1.0000 0.56470  0.76630  0.91030  Biso   1.000  O
  O58      1.0000 0.56470  0.73370  0.41030  Biso   1.000  O
  O59      1.0000 0.43530  0.23370  0.08970  Biso   1.000  O
  O60      1.0000 0.43530  0.26630  0.58970  Biso   1.000  O
  O61      1.0000 0.61300  0.82027  0.83600  Biso   1.000  O
  O62      1.0000 0.61300  0.67973  0.33600  Biso   1.000  O
  O63      1.0000 0.38700  0.17973  0.16400  Biso   1.000  O
  O64      1.0000 0.38700  0.32027  0.66400  Biso   1.000  O
  O65      1.0000 0.58270  0.72012  0.82010  Biso   1.000  O
  O66      1.0000 0.58270  0.77988  0.32010  Biso   1.000  O
  O67      1.0000 0.41730  0.27988  0.17990  Biso   1.000  O
  O68      1.0000 0.41730  0.22012  0.67990  Biso   1.000  O
  O69      1.0000 0.47000  0.79076  0.82330  Biso   1.000  O
  O70      1.0000 0.47000  0.70924  0.32330  Biso   1.000  O
  O71      1.0000 0.53000  0.20924  0.17670  Biso   1.000  O
  O72      1.0000 0.53000  0.29076  0.67670  Biso   1.000  O
  Cl13     1.0000 0.06593  0.47416  0.85318  Biso   1.000  Cl
  Cl14     1.0000 0.06593  0.02584  0.35318  Biso   1.000  Cl
  Cl15     1.0000 0.93407  0.52584  0.14682  Biso   1.000  Cl
  Cl16     1.0000 0.93407  0.97416  0.64682  Biso   1.000  Cl
  O73      1.0000 0.11260  0.42575  0.83430  Biso   1.000  O
  O74      1.0000 0.11260  0.07425  0.33430  Biso   1.000  O
  O75      1.0000 0.88740  0.57425  0.16570  Biso   1.000  O
  O76      1.0000 0.88740  0.92575  0.66570  Biso   1.000  O
  O77      1.0000 0.97560  0.46150  0.83660  Biso   1.000  O
  O78      1.0000 0.97560  0.03850  0.33660  Biso   1.000  O
  O79      1.0000 0.02440  0.53850  0.16340  Biso   1.000  O
  O80      1.0000 0.02440  0.96150  0.66340  Biso   1.000  O
  O81      1.0000 0.08710  0.47820  0.91790  Biso   1.000  O
  O82      1.0000 0.08710  0.02180  0.41790  Biso   1.000  O
  O83      1.0000 0.91290  0.52180  0.08210  Biso   1.000  O
  O84      1.0000 0.91290  0.97820  0.58210  Biso   1.000  O
  O85      1.0000 0.08900  0.52705  0.82370  Biso   1.000  O
  O86      1.0000 0.08900  0.97295  0.32370  Biso   1.000  O
  O87      1.0000 0.91100  0.47295  0.17630  Biso   1.000  O
  O88      1.0000 0.91100  0.02705  0.67630  Biso   1.000  O
