data_image0
_cell_length_a       45.3447
_cell_length_b       45.3447
_cell_length_c       11.2994
_cell_angle_alpha    90
_cell_angle_beta     90
_cell_angle_gamma    90

_symmetry_space_group_name_H-M    "P 1"
_symmetry_int_tables_number       1

loop_
  _symmetry_equiv_pos_as_xyz
  'x, y, z'

loop_
  _atom_site_label
  _atom_site_occupancy
  _atom_site_fract_x
  _atom_site_fract_y
  _atom_site_fract_z
  _atom_site_thermal_displace_type
  _atom_site_B_iso_or_equiv
  _atom_site_type_symbol
  Nd1      1.0000 0.81877  0.85052  0.14084  Biso   1.000  Nd
  Nd2      1.0000 0.89948  0.06877  0.39084  Biso   1.000  Nd
  Nd3      1.0000 0.18123  0.64948  0.14084  Biso   1.000  Nd
  Nd4      1.0000 0.10052  0.43123  0.39084  Biso   1.000  Nd
  Nd5      1.0000 0.31877  0.35052  0.64084  Biso   1.000  Nd
  Nd6      1.0000 0.39948  0.56877  0.89084  Biso   1.000  Nd
  Nd7      1.0000 0.68123  0.14948  0.64084  Biso   1.000  Nd
  Nd8      1.0000 0.60052  0.93123  0.89084  Biso   1.000  Nd
  Nd9      1.0000 0.18123  0.14948  0.85916  Biso   1.000  Nd
  Nd10     1.0000 0.60052  0.43123  0.10916  Biso   1.000  Nd
  Nd11     1.0000 0.81877  0.35052  0.85916  Biso   1.000  Nd
  Nd12     1.0000 0.39948  0.06877  0.10916  Biso   1.000  Nd
  Nd13     1.0000 0.68123  0.64948  0.35916  Biso   1.000  Nd
  Nd14     1.0000 0.10052  0.93123  0.60916  Biso   1.000  Nd
  Nd15     1.0000 0.31877  0.85052  0.35916  Biso   1.000  Nd
  Nd16     1.0000 0.89948  0.56877  0.60916  Biso   1.000  Nd
  O1       1.0000 0.78097  0.87147  0.28100  Biso   1.000  O
  O2       1.0000 0.87853  0.03097  0.53100  Biso   1.000  O
  O3       1.0000 0.21903  0.62853  0.28100  Biso   1.000  O
  O4       1.0000 0.12147  0.46903  0.53100  Biso   1.000  O
  O5       1.0000 0.28097  0.37147  0.78100  Biso   1.000  O
  O6       1.0000 0.37853  0.53097  0.03100  Biso   1.000  O
  O7       1.0000 0.71903  0.12853  0.78100  Biso   1.000  O
  O8       1.0000 0.62147  0.96903  0.03100  Biso   1.000  O
  O9       1.0000 0.21903  0.12853  0.71900  Biso   1.000  O
  O10      1.0000 0.62147  0.46903  0.96900  Biso   1.000  O
  O11      1.0000 0.78097  0.37147  0.71900  Biso   1.000  O
  O12      1.0000 0.37853  0.03097  0.96900  Biso   1.000  O
  O13      1.0000 0.71903  0.62853  0.21900  Biso   1.000  O
  O14      1.0000 0.12147  0.96903  0.46900  Biso   1.000  O
  O15      1.0000 0.28097  0.87147  0.21900  Biso   1.000  O
  O16      1.0000 0.87853  0.53097  0.46900  Biso   1.000  O
  O17      1.0000 0.81338  0.90494  0.22650  Biso   1.000  O
  O18      1.0000 0.84506  0.06338  0.47650  Biso   1.000  O
  O19      1.0000 0.18662  0.59506  0.22650  Biso   1.000  O
  O20      1.0000 0.15494  0.43662  0.47650  Biso   1.000  O
  O21      1.0000 0.31338  0.40494  0.72650  Biso   1.000  O
  O22      1.0000 0.34506  0.56338  0.97650  Biso   1.000  O
  O23      1.0000 0.68662  0.09506  0.72650  Biso   1.000  O
  O24      1.0000 0.65494  0.93662  0.97650  Biso   1.000  O
  O25      1.0000 0.18662  0.09506  0.77350  Biso   1.000  O
  O26      1.0000 0.65494  0.43662  0.02350  Biso   1.000  O
  O27      1.0000 0.81338  0.40494  0.77350  Biso   1.000  O
  O28      1.0000 0.34506  0.06338  0.02350  Biso   1.000  O
  O29      1.0000 0.68662  0.59506  0.27350  Biso   1.000  O
  O30      1.0000 0.15494  0.93662  0.52350  Biso   1.000  O
  O31      1.0000 0.31338  0.90494  0.27350  Biso   1.000  O
  O32      1.0000 0.84506  0.56338  0.52350  Biso   1.000  O
  O33      1.0000 0.85786  0.86700  0.01110  Biso   1.000  O
  O34      1.0000 0.88300  0.10786  0.26110  Biso   1.000  O
  O35      1.0000 0.14214  0.63300  0.01110  Biso   1.000  O
  O36      1.0000 0.11700  0.39214  0.26110  Biso   1.000  O
  O37      1.0000 0.35786  0.36700  0.51110  Biso   1.000  O
  O38      1.0000 0.38300  0.60786  0.76110  Biso   1.000  O
  O39      1.0000 0.64214  0.13300  0.51110  Biso   1.000  O
  O40      1.0000 0.61700  0.89214  0.76110  Biso   1.000  O
  O41      1.0000 0.14214  0.13300  0.98890  Biso   1.000  O
  O42      1.0000 0.61700  0.39214  0.23890  Biso   1.000  O
  O43      1.0000 0.85786  0.36700  0.98890  Biso   1.000  O
  O44      1.0000 0.38300  0.10786  0.23890  Biso   1.000  O
  O45      1.0000 0.64214  0.63300  0.48890  Biso   1.000  O
  O46      1.0000 0.11700  0.89214  0.73890  Biso   1.000  O
  O47      1.0000 0.35786  0.86700  0.48890  Biso   1.000  O
  O48      1.0000 0.88300  0.60786  0.73890  Biso   1.000  O
  O49      1.0000 0.79676  0.88575  0.99810  Biso   1.000  O
  O50      1.0000 0.86425  0.04676  0.24810  Biso   1.000  O
  O51      1.0000 0.20324  0.61425  0.99810  Biso   1.000  O
  O52      1.0000 0.13575  0.45324  0.24810  Biso   1.000  O
  O53      1.0000 0.29676  0.38575  0.49810  Biso   1.000  O
  O54      1.0000 0.36425  0.54676  0.74810  Biso   1.000  O
  O55      1.0000 0.70324  0.11425  0.49810  Biso   1.000  O
  O56      1.0000 0.63575  0.95324  0.74810  Biso   1.000  O
  O57      1.0000 0.20324  0.11425  0.00190  Biso   1.000  O
  O58      1.0000 0.63575  0.45324  0.25190  Biso   1.000  O
  O59      1.0000 0.79676  0.38575  0.00190  Biso   1.000  O
  O60      1.0000 0.36425  0.04676  0.25190  Biso   1.000  O
  O61      1.0000 0.70324  0.61425  0.50190  Biso   1.000  O
  O62      1.0000 0.13575  0.95324  0.75190  Biso   1.000  O
  O63      1.0000 0.29676  0.88575  0.50190  Biso   1.000  O
  O64      1.0000 0.86425  0.54676  0.75190  Biso   1.000  O
  O65      1.0000 0.85117  0.80727  0.11640  Biso   1.000  O
  O66      1.0000 0.94273  0.10117  0.36640  Biso   1.000  O
  O67      1.0000 0.14883  0.69273  0.11640  Biso   1.000  O
  O68      1.0000 0.05727  0.39883  0.36640  Biso   1.000  O
  O69      1.0000 0.35117  0.30727  0.61640  Biso   1.000  O
  O70      1.0000 0.44273  0.60117  0.86640  Biso   1.000  O
  O71      1.0000 0.64883  0.19273  0.61640  Biso   1.000  O
  O72      1.0000 0.55727  0.89883  0.86640  Biso   1.000  O
  O73      1.0000 0.14883  0.19273  0.88360  Biso   1.000  O
  O74      1.0000 0.55727  0.39883  0.13360  Biso   1.000  O
  O75      1.0000 0.85117  0.30727  0.88360  Biso   1.000  O
  O76      1.0000 0.44273  0.10117  0.13360  Biso   1.000  O
  O77      1.0000 0.64883  0.69273  0.38360  Biso   1.000  O
  O78      1.0000 0.05727  0.89883  0.63360  Biso   1.000  O
  O79      1.0000 0.35117  0.80727  0.38360  Biso   1.000  O
  O80      1.0000 0.94273  0.60117  0.63360  Biso   1.000  O
  O81      1.0000 0.86186  0.86308  0.26640  Biso   1.000  O
  O82      1.0000 0.88692  0.11186  0.51640  Biso   1.000  O
  O83      1.0000 0.13814  0.63692  0.26640  Biso   1.000  O
  O84      1.0000 0.11308  0.38814  0.51640  Biso   1.000  O
  O85      1.0000 0.36186  0.36308  0.76640  Biso   1.000  O
  O86      1.0000 0.38692  0.61186  0.01640  Biso   1.000  O
  O87      1.0000 0.63814  0.13692  0.76640  Biso   1.000  O
  O88      1.0000 0.61308  0.88814  0.01640  Biso   1.000  O
  O89      1.0000 0.13814  0.13692  0.73360  Biso   1.000  O
  O90      1.0000 0.61308  0.38814  0.98360  Biso   1.000  O
  O91      1.0000 0.86186  0.36308  0.73360  Biso   1.000  O
  O92      1.0000 0.38692  0.11186  0.98360  Biso   1.000  O
  O93      1.0000 0.63814  0.63692  0.23360  Biso   1.000  O
  O94      1.0000 0.11308  0.88814  0.48360  Biso   1.000  O
  O95      1.0000 0.36186  0.86308  0.23360  Biso   1.000  O
  O96      1.0000 0.88692  0.61186  0.48360  Biso   1.000  O
  O97      1.0000 0.81254  0.81987  0.31270  Biso   1.000  O
  O98      1.0000 0.93013  0.06254  0.56270  Biso   1.000  O
  O99      1.0000 0.18746  0.68013  0.31270  Biso   1.000  O
  O100     1.0000 0.06987  0.43746  0.56270  Biso   1.000  O
  O101     1.0000 0.31254  0.31987  0.81270  Biso   1.000  O
  O102     1.0000 0.43013  0.56254  0.06270  Biso   1.000  O
  O103     1.0000 0.68746  0.18013  0.81270  Biso   1.000  O
  O104     1.0000 0.56987  0.93746  0.06270  Biso   1.000  O
  O105     1.0000 0.18746  0.18013  0.68730  Biso   1.000  O
  O106     1.0000 0.56987  0.43746  0.93730  Biso   1.000  O
  O107     1.0000 0.81254  0.31987  0.68730  Biso   1.000  O
  O108     1.0000 0.43013  0.06254  0.93730  Biso   1.000  O
  O109     1.0000 0.68746  0.68013  0.18730  Biso   1.000  O
  O110     1.0000 0.06987  0.93746  0.43730  Biso   1.000  O
  O111     1.0000 0.31254  0.81987  0.18730  Biso   1.000  O
  O112     1.0000 0.93013  0.56254  0.43730  Biso   1.000  O
  O113     1.0000 0.76689  0.82530  0.09750  Biso   1.000  O
  O114     1.0000 0.92470  0.01689  0.34750  Biso   1.000  O
  O115     1.0000 0.23311  0.67470  0.09750  Biso   1.000  O
  O116     1.0000 0.07530  0.48311  0.34750  Biso   1.000  O
  O117     1.0000 0.26689  0.32530  0.59750  Biso   1.000  O
  O118     1.0000 0.42470  0.51689  0.84750  Biso   1.000  O
  O119     1.0000 0.73311  0.17470  0.59750  Biso   1.000  O
  O120     1.0000 0.57530  0.98311  0.84750  Biso   1.000  O
  O121     1.0000 0.23311  0.17470  0.90250  Biso   1.000  O
  O122     1.0000 0.57530  0.48311  0.15250  Biso   1.000  O
  O123     1.0000 0.76689  0.32530  0.90250  Biso   1.000  O
  O124     1.0000 0.42470  0.01689  0.15250  Biso   1.000  O
  O125     1.0000 0.73311  0.67470  0.40250  Biso   1.000  O
  O126     1.0000 0.07530  0.98311  0.65250  Biso   1.000  O
  O127     1.0000 0.26689  0.82530  0.40250  Biso   1.000  O
  O128     1.0000 0.92470  0.51689  0.65250  Biso   1.000  O
  O129     1.0000 0.80157  0.81735  0.96630  Biso   1.000  O
  O130     1.0000 0.93265  0.05157  0.21630  Biso   1.000  O
  O131     1.0000 0.19843  0.68265  0.96630  Biso   1.000  O
  O132     1.0000 0.06735  0.44843  0.21630  Biso   1.000  O
  O133     1.0000 0.30157  0.31735  0.46630  Biso   1.000  O
  O134     1.0000 0.43265  0.55157  0.71630  Biso   1.000  O
  O135     1.0000 0.69843  0.18265  0.46630  Biso   1.000  O
  O136     1.0000 0.56735  0.94843  0.71630  Biso   1.000  O
  O137     1.0000 0.19843  0.18265  0.03370  Biso   1.000  O
  O138     1.0000 0.56735  0.44843  0.28370  Biso   1.000  O
  O139     1.0000 0.80157  0.31735  0.03370  Biso   1.000  O
  O140     1.0000 0.43265  0.05157  0.28370  Biso   1.000  O
  O141     1.0000 0.69843  0.68265  0.53370  Biso   1.000  O
  O142     1.0000 0.06735  0.94843  0.78370  Biso   1.000  O
  O143     1.0000 0.30157  0.81735  0.53370  Biso   1.000  O
  O144     1.0000 0.93265  0.55157  0.78370  Biso   1.000  O
  C1       1.0000 0.79159  0.89738  0.28610  Biso   1.000  C
  C2       1.0000 0.85262  0.04159  0.53610  Biso   1.000  C
  C3       1.0000 0.20841  0.60262  0.28610  Biso   1.000  C
  C4       1.0000 0.14738  0.45841  0.53610  Biso   1.000  C
  C5       1.0000 0.29159  0.39738  0.78610  Biso   1.000  C
  C6       1.0000 0.35262  0.54159  0.03610  Biso   1.000  C
  C7       1.0000 0.70841  0.10262  0.78610  Biso   1.000  C
  C8       1.0000 0.64738  0.95841  0.03610  Biso   1.000  C
  C9       1.0000 0.20841  0.10262  0.71390  Biso   1.000  C
  C10      1.0000 0.64738  0.45841  0.96390  Biso   1.000  C
  C11      1.0000 0.79159  0.39738  0.71390  Biso   1.000  C
  C12      1.0000 0.35262  0.04159  0.96390  Biso   1.000  C
  C13      1.0000 0.70841  0.60262  0.21390  Biso   1.000  C
  C14      1.0000 0.14738  0.95841  0.46390  Biso   1.000  C
  C15      1.0000 0.29159  0.89738  0.21390  Biso   1.000  C
  C16      1.0000 0.85262  0.54159  0.46390  Biso   1.000  C
  C17      1.0000 0.86140  0.87411  0.90390  Biso   1.000  C
  C18      1.0000 0.87589  0.11140  0.15390  Biso   1.000  C
  C19      1.0000 0.13860  0.62589  0.90390  Biso   1.000  C
  C20      1.0000 0.12411  0.38860  0.15390  Biso   1.000  C
  C21      1.0000 0.36140  0.37411  0.40390  Biso   1.000  C
  C22      1.0000 0.37589  0.61140  0.65390  Biso   1.000  C
  C23      1.0000 0.63860  0.12589  0.40390  Biso   1.000  C
  C24      1.0000 0.62411  0.88860  0.65390  Biso   1.000  C
  C25      1.0000 0.13860  0.12589  0.09610  Biso   1.000  C
  C26      1.0000 0.62411  0.38860  0.34610  Biso   1.000  C
  C27      1.0000 0.86140  0.37411  0.09610  Biso   1.000  C
  C28      1.0000 0.37589  0.11140  0.34610  Biso   1.000  C
  C29      1.0000 0.63860  0.62589  0.59610  Biso   1.000  C
  C30      1.0000 0.12411  0.88860  0.84610  Biso   1.000  C
  C31      1.0000 0.36140  0.87411  0.59610  Biso   1.000  C
  C32      1.0000 0.87589  0.61140  0.84610  Biso   1.000  C
  H1       1.0000 0.80100  0.88070  0.92570  Biso   1.000  H
  H2       1.0000 0.86930  0.05100  0.17570  Biso   1.000  H
  H3       1.0000 0.19900  0.61930  0.92570  Biso   1.000  H
  H4       1.0000 0.13070  0.44900  0.17570  Biso   1.000  H
  H5       1.0000 0.30100  0.38070  0.42570  Biso   1.000  H
  H6       1.0000 0.36930  0.55100  0.67570  Biso   1.000  H
  H7       1.0000 0.69900  0.11930  0.42570  Biso   1.000  H
  H8       1.0000 0.63070  0.94900  0.67570  Biso   1.000  H
  H9       1.0000 0.19900  0.11930  0.07430  Biso   1.000  H
  H10      1.0000 0.63070  0.44900  0.32430  Biso   1.000  H
  H11      1.0000 0.80100  0.38070  0.07430  Biso   1.000  H
  H12      1.0000 0.36930  0.05100  0.32430  Biso   1.000  H
  H13      1.0000 0.69900  0.61930  0.57430  Biso   1.000  H
  H14      1.0000 0.13070  0.94900  0.82430  Biso   1.000  H
  H15      1.0000 0.30100  0.88070  0.57430  Biso   1.000  H
  H16      1.0000 0.86930  0.55100  0.82430  Biso   1.000  H
  H17      1.0000 0.80360  0.90340  0.01070  Biso   1.000  H
  H18      1.0000 0.84660  0.05360  0.26070  Biso   1.000  H
  H19      1.0000 0.19640  0.59660  0.01070  Biso   1.000  H
  H20      1.0000 0.15340  0.44640  0.26070  Biso   1.000  H
  H21      1.0000 0.30360  0.40340  0.51070  Biso   1.000  H
  H22      1.0000 0.34660  0.55360  0.76070  Biso   1.000  H
  H23      1.0000 0.69640  0.09660  0.51070  Biso   1.000  H
  H24      1.0000 0.65340  0.94640  0.76070  Biso   1.000  H
  H25      1.0000 0.19640  0.09660  0.98930  Biso   1.000  H
  H26      1.0000 0.65340  0.44640  0.23930  Biso   1.000  H
  H27      1.0000 0.80360  0.40340  0.98930  Biso   1.000  H
  H28      1.0000 0.34660  0.05360  0.23930  Biso   1.000  H
  H29      1.0000 0.69640  0.59660  0.48930  Biso   1.000  H
  H30      1.0000 0.15340  0.94640  0.73930  Biso   1.000  H
  H31      1.0000 0.30360  0.90340  0.48930  Biso   1.000  H
  H32      1.0000 0.84660  0.55360  0.73930  Biso   1.000  H
  H33      1.0000 0.86000  0.80300  0.18310  Biso   1.000  H
  H34      1.0000 0.94700  0.11000  0.43310  Biso   1.000  H
  H35      1.0000 0.14000  0.69700  0.18310  Biso   1.000  H
  H36      1.0000 0.05300  0.39000  0.43310  Biso   1.000  H
  H37      1.0000 0.36000  0.30300  0.68310  Biso   1.000  H
  H38      1.0000 0.44700  0.61000  0.93310  Biso   1.000  H
  H39      1.0000 0.64000  0.19700  0.68310  Biso   1.000  H
  H40      1.0000 0.55300  0.89000  0.93310  Biso   1.000  H
  H41      1.0000 0.14000  0.19700  0.81690  Biso   1.000  H
  H42      1.0000 0.55300  0.39000  0.06690  Biso   1.000  H
  H43      1.0000 0.86000  0.30300  0.81690  Biso   1.000  H
  H44      1.0000 0.44700  0.11000  0.06690  Biso   1.000  H
  H45      1.0000 0.64000  0.69700  0.31690  Biso   1.000  H
  H46      1.0000 0.05300  0.89000  0.56690  Biso   1.000  H
  H47      1.0000 0.36000  0.80300  0.31690  Biso   1.000  H
  H48      1.0000 0.94700  0.61000  0.56690  Biso   1.000  H
  H49      1.0000 0.86470  0.81080  0.06300  Biso   1.000  H
  H50      1.0000 0.93920  0.11470  0.31300  Biso   1.000  H
  H51      1.0000 0.13530  0.68920  0.06300  Biso   1.000  H
  H52      1.0000 0.06080  0.38530  0.31300  Biso   1.000  H
  H53      1.0000 0.36470  0.31080  0.56300  Biso   1.000  H
  H54      1.0000 0.43920  0.61470  0.81300  Biso   1.000  H
  H55      1.0000 0.63530  0.18920  0.56300  Biso   1.000  H
  H56      1.0000 0.56080  0.88530  0.81300  Biso   1.000  H
  H57      1.0000 0.13530  0.18920  0.93700  Biso   1.000  H
  H58      1.0000 0.56080  0.38530  0.18700  Biso   1.000  H
  H59      1.0000 0.86470  0.31080  0.93700  Biso   1.000  H
  H60      1.0000 0.43920  0.11470  0.18700  Biso   1.000  H
  H61      1.0000 0.63530  0.68920  0.43700  Biso   1.000  H
  H62      1.0000 0.06080  0.88530  0.68700  Biso   1.000  H
  H63      1.0000 0.36470  0.81080  0.43700  Biso   1.000  H
  H64      1.0000 0.93920  0.61470  0.68700  Biso   1.000  H
  H65      1.0000 0.87320  0.84690  0.28630  Biso   1.000  H
  H66      1.0000 0.90310  0.12320  0.53630  Biso   1.000  H
  H67      1.0000 0.12680  0.65310  0.28630  Biso   1.000  H
  H68      1.0000 0.09690  0.37680  0.53630  Biso   1.000  H
  H69      1.0000 0.37320  0.34690  0.78630  Biso   1.000  H
  H70      1.0000 0.40310  0.62320  0.03630  Biso   1.000  H
  H71      1.0000 0.62680  0.15310  0.78630  Biso   1.000  H
  H72      1.0000 0.59690  0.87680  0.03630  Biso   1.000  H
  H73      1.0000 0.12680  0.15310  0.71370  Biso   1.000  H
  H74      1.0000 0.59690  0.37680  0.96370  Biso   1.000  H
  H75      1.0000 0.87320  0.34690  0.71370  Biso   1.000  H
  H76      1.0000 0.40310  0.12320  0.96370  Biso   1.000  H
  H77      1.0000 0.62680  0.65310  0.21370  Biso   1.000  H
  H78      1.0000 0.09690  0.87680  0.46370  Biso   1.000  H
  H79      1.0000 0.37320  0.84690  0.21370  Biso   1.000  H
  H80      1.0000 0.90310  0.62320  0.46370  Biso   1.000  H
  H81      1.0000 0.85650  0.87170  0.33710  Biso   1.000  H
  H82      1.0000 0.87830  0.10650  0.58710  Biso   1.000  H
  H83      1.0000 0.14350  0.62830  0.33710  Biso   1.000  H
  H84      1.0000 0.12170  0.39350  0.58710  Biso   1.000  H
  H85      1.0000 0.35650  0.37170  0.83710  Biso   1.000  H
  H86      1.0000 0.37830  0.60650  0.08710  Biso   1.000  H
  H87      1.0000 0.64350  0.12830  0.83710  Biso   1.000  H
  H88      1.0000 0.62170  0.89350  0.08710  Biso   1.000  H
  H89      1.0000 0.14350  0.12830  0.66290  Biso   1.000  H
  H90      1.0000 0.62170  0.39350  0.91290  Biso   1.000  H
  H91      1.0000 0.85650  0.37170  0.66290  Biso   1.000  H
  H92      1.0000 0.37830  0.10650  0.91290  Biso   1.000  H
  H93      1.0000 0.64350  0.62830  0.16290  Biso   1.000  H
  H94      1.0000 0.12170  0.89350  0.41290  Biso   1.000  H
  H95      1.0000 0.35650  0.87170  0.16290  Biso   1.000  H
  H96      1.0000 0.87830  0.60650  0.41290  Biso   1.000  H
  C33      1.0000 0.77542  0.91910  0.36360  Biso   1.000  C
  C34      1.0000 0.83090  0.02542  0.61360  Biso   1.000  C
  C35      1.0000 0.22458  0.58090  0.36360  Biso   1.000  C
  C36      1.0000 0.16910  0.47458  0.61360  Biso   1.000  C
  C37      1.0000 0.27542  0.41910  0.86360  Biso   1.000  C
  C38      1.0000 0.33090  0.52542  0.11360  Biso   1.000  C
  C39      1.0000 0.72458  0.08090  0.86360  Biso   1.000  C
  C40      1.0000 0.66910  0.97458  0.11360  Biso   1.000  C
  C41      1.0000 0.22458  0.08090  0.63640  Biso   1.000  C
  C42      1.0000 0.66910  0.47458  0.88640  Biso   1.000  C
  C43      1.0000 0.77542  0.41910  0.63640  Biso   1.000  C
  C44      1.0000 0.33090  0.02542  0.88640  Biso   1.000  C
  C45      1.0000 0.72458  0.58090  0.13640  Biso   1.000  C
  C46      1.0000 0.16910  0.97458  0.38640  Biso   1.000  C
  C47      1.0000 0.27542  0.91910  0.13640  Biso   1.000  C
  C48      1.0000 0.83090  0.52542  0.38640  Biso   1.000  C
  C49      1.0000 0.88836  0.89242  0.87770  Biso   1.000  C
  C50      1.0000 0.85758  0.13836  0.12770  Biso   1.000  C
  C51      1.0000 0.11164  0.60758  0.87770  Biso   1.000  C
  C52      1.0000 0.14242  0.36164  0.12770  Biso   1.000  C
  C53      1.0000 0.38836  0.39242  0.37770  Biso   1.000  C
  C54      1.0000 0.35758  0.63836  0.62770  Biso   1.000  C
  C55      1.0000 0.61164  0.10758  0.37770  Biso   1.000  C
  C56      1.0000 0.64242  0.86164  0.62770  Biso   1.000  C
  C57      1.0000 0.11164  0.10758  0.12230  Biso   1.000  C
  C58      1.0000 0.64242  0.36164  0.37230  Biso   1.000  C
  C59      1.0000 0.88836  0.39242  0.12230  Biso   1.000  C
  C60      1.0000 0.35758  0.13836  0.37230  Biso   1.000  C
  C61      1.0000 0.61164  0.60758  0.62230  Biso   1.000  C
  C62      1.0000 0.14242  0.86164  0.87230  Biso   1.000  C
  C63      1.0000 0.38836  0.89242  0.62230  Biso   1.000  C
  C64      1.0000 0.85758  0.63836  0.87230  Biso   1.000  C
  O145     1.0000 0.84417  0.86837  0.82080  Biso   1.000  O
  O146     1.0000 0.88163  0.09417  0.07080  Biso   1.000  O
  O147     1.0000 0.15583  0.63163  0.82080  Biso   1.000  O
  O148     1.0000 0.11837  0.40583  0.07080  Biso   1.000  O
  O149     1.0000 0.34417  0.36837  0.32080  Biso   1.000  O
  O150     1.0000 0.38163  0.59417  0.57080  Biso   1.000  O
  O151     1.0000 0.65583  0.13163  0.32080  Biso   1.000  O
  O152     1.0000 0.61837  0.90583  0.57080  Biso   1.000  O
  O153     1.0000 0.15583  0.13163  0.17920  Biso   1.000  O
  O154     1.0000 0.61837  0.40583  0.42920  Biso   1.000  O
  O155     1.0000 0.84417  0.36837  0.17920  Biso   1.000  O
  O156     1.0000 0.38163  0.09417  0.42920  Biso   1.000  O
  O157     1.0000 0.65583  0.63163  0.67920  Biso   1.000  O
  O158     1.0000 0.11837  0.90583  0.92920  Biso   1.000  O
  O159     1.0000 0.34417  0.86837  0.67920  Biso   1.000  O
  O160     1.0000 0.88163  0.59417  0.92920  Biso   1.000  O
  C65      1.0000 0.74551  0.91442  0.38670  Biso   1.000  C
  C66      1.0000 0.83558  0.99551  0.63670  Biso   1.000  C
  C67      1.0000 0.25449  0.58558  0.38670  Biso   1.000  C
  C68      1.0000 0.16442  0.50449  0.63670  Biso   1.000  C
  C69      1.0000 0.24551  0.41442  0.88670  Biso   1.000  C
  C70      1.0000 0.33558  0.49551  0.13670  Biso   1.000  C
  C71      1.0000 0.75449  0.08558  0.88670  Biso   1.000  C
  C72      1.0000 0.66442  0.00449  0.13670  Biso   1.000  C
  C73      1.0000 0.25449  0.08558  0.61330  Biso   1.000  C
  C74      1.0000 0.66442  0.50449  0.86330  Biso   1.000  C
  C75      1.0000 0.74551  0.41442  0.61330  Biso   1.000  C
  C76      1.0000 0.33558  0.99551  0.86330  Biso   1.000  C
  C77      1.0000 0.75449  0.58558  0.11330  Biso   1.000  C
  C78      1.0000 0.16442  0.00449  0.36330  Biso   1.000  C
  C79      1.0000 0.24551  0.91442  0.11330  Biso   1.000  C
  C80      1.0000 0.83558  0.49551  0.36330  Biso   1.000  C
  C81      1.0000 0.78836  0.94480  0.40890  Biso   1.000  C
  C82      1.0000 0.80520  0.03836  0.65890  Biso   1.000  C
  C83      1.0000 0.21164  0.55520  0.40890  Biso   1.000  C
  C84      1.0000 0.19480  0.46164  0.65890  Biso   1.000  C
  C85      1.0000 0.28836  0.44480  0.90890  Biso   1.000  C
  C86      1.0000 0.30520  0.53836  0.15890  Biso   1.000  C
  C87      1.0000 0.71164  0.05520  0.90890  Biso   1.000  C
  C88      1.0000 0.69480  0.96164  0.15890  Biso   1.000  C
  C89      1.0000 0.21164  0.05520  0.59110  Biso   1.000  C
  C90      1.0000 0.69480  0.46164  0.84110  Biso   1.000  C
  C91      1.0000 0.78836  0.44480  0.59110  Biso   1.000  C
  C92      1.0000 0.30520  0.03836  0.84110  Biso   1.000  C
  C93      1.0000 0.71164  0.55520  0.09110  Biso   1.000  C
  C94      1.0000 0.19480  0.96164  0.34110  Biso   1.000  C
  C95      1.0000 0.28836  0.94480  0.09110  Biso   1.000  C
  C96      1.0000 0.80520  0.53836  0.34110  Biso   1.000  C
  C97      1.0000 0.88655  0.91463  0.79240  Biso   1.000  C
  C98      1.0000 0.83537  0.13655  0.04240  Biso   1.000  C
  C99      1.0000 0.11345  0.58537  0.79240  Biso   1.000  C
  C100     1.0000 0.16463  0.36345  0.04240  Biso   1.000  C
  C101     1.0000 0.38655  0.41463  0.29240  Biso   1.000  C
  C102     1.0000 0.33537  0.63655  0.54240  Biso   1.000  C
  C103     1.0000 0.61345  0.08537  0.29240  Biso   1.000  C
  C104     1.0000 0.66463  0.86345  0.54240  Biso   1.000  C
  C105     1.0000 0.11345  0.08537  0.20760  Biso   1.000  C
  C106     1.0000 0.66463  0.36345  0.45760  Biso   1.000  C
  C107     1.0000 0.88655  0.41463  0.20760  Biso   1.000  C
  C108     1.0000 0.33537  0.13655  0.45760  Biso   1.000  C
  C109     1.0000 0.61345  0.58537  0.70760  Biso   1.000  C
  C110     1.0000 0.16463  0.86345  0.95760  Biso   1.000  C
  C111     1.0000 0.38655  0.91463  0.70760  Biso   1.000  C
  C112     1.0000 0.83537  0.63655  0.95760  Biso   1.000  C
  C113     1.0000 0.91485  0.88987  0.94150  Biso   1.000  C
  C114     1.0000 0.86013  0.16485  0.19150  Biso   1.000  C
  C115     1.0000 0.08515  0.61013  0.94150  Biso   1.000  C
  C116     1.0000 0.13987  0.33515  0.19150  Biso   1.000  C
  C117     1.0000 0.41485  0.38987  0.44150  Biso   1.000  C
  C118     1.0000 0.36013  0.66485  0.69150  Biso   1.000  C
  C119     1.0000 0.58515  0.11013  0.44150  Biso   1.000  C
  C120     1.0000 0.63987  0.83515  0.69150  Biso   1.000  C
  C121     1.0000 0.08515  0.11013  0.05850  Biso   1.000  C
  C122     1.0000 0.63987  0.33515  0.30850  Biso   1.000  C
  C123     1.0000 0.91485  0.38987  0.05850  Biso   1.000  C
  C124     1.0000 0.36013  0.16485  0.30850  Biso   1.000  C
  C125     1.0000 0.58515  0.61013  0.55850  Biso   1.000  C
  C126     1.0000 0.13987  0.83515  0.80850  Biso   1.000  C
  C127     1.0000 0.41485  0.88987  0.55850  Biso   1.000  C
  C128     1.0000 0.86013  0.66485  0.80850  Biso   1.000  C
  Nd17     1.0000 0.82129  0.84892  0.64720  Biso   1.000  Nd
  Nd18     1.0000 0.90108  0.07129  0.89720  Biso   1.000  Nd
  Nd19     1.0000 0.17871  0.65108  0.64720  Biso   1.000  Nd
  Nd20     1.0000 0.09892  0.42871  0.89720  Biso   1.000  Nd
  Nd21     1.0000 0.32129  0.34892  0.14720  Biso   1.000  Nd
  Nd22     1.0000 0.40108  0.57129  0.39720  Biso   1.000  Nd
  Nd23     1.0000 0.67871  0.15108  0.14720  Biso   1.000  Nd
  Nd24     1.0000 0.59892  0.92871  0.39720  Biso   1.000  Nd
  Nd25     1.0000 0.17871  0.15108  0.35280  Biso   1.000  Nd
  Nd26     1.0000 0.59892  0.42871  0.60280  Biso   1.000  Nd
  Nd27     1.0000 0.82129  0.34892  0.35280  Biso   1.000  Nd
  Nd28     1.0000 0.40108  0.07129  0.60280  Biso   1.000  Nd
  Nd29     1.0000 0.67871  0.65108  0.85280  Biso   1.000  Nd
  Nd30     1.0000 0.09892  0.92871  0.10280  Biso   1.000  Nd
  Nd31     1.0000 0.32129  0.84892  0.85280  Biso   1.000  Nd
  Nd32     1.0000 0.90108  0.57129  0.10280  Biso   1.000  Nd
  H97      1.0000 0.73640  0.89720  0.36140  Biso   1.000  H
  H98      1.0000 0.85280  0.98640  0.61140  Biso   1.000  H
  H99      1.0000 0.26360  0.60280  0.36140  Biso   1.000  H
  H100     1.0000 0.14720  0.51360  0.61140  Biso   1.000  H
  H101     1.0000 0.23640  0.39720  0.86140  Biso   1.000  H
  H102     1.0000 0.35280  0.48640  0.11140  Biso   1.000  H
  H103     1.0000 0.76360  0.10280  0.86140  Biso   1.000  H
  H104     1.0000 0.64720  0.01360  0.11140  Biso   1.000  H
  H105     1.0000 0.26360  0.10280  0.63860  Biso   1.000  H
  H106     1.0000 0.64720  0.51360  0.88860  Biso   1.000  H
  H107     1.0000 0.73640  0.39720  0.63860  Biso   1.000  H
  H108     1.0000 0.35280  0.98640  0.88860  Biso   1.000  H
  H109     1.0000 0.76360  0.60280  0.13860  Biso   1.000  H
  H110     1.0000 0.14720  0.01360  0.38860  Biso   1.000  H
  H111     1.0000 0.23640  0.89720  0.13860  Biso   1.000  H
  H112     1.0000 0.85280  0.48640  0.38860  Biso   1.000  H
  C129     1.0000 0.72956  0.93557  0.44750  Biso   1.000  C
  C130     1.0000 0.81443  0.97956  0.69750  Biso   1.000  C
  C131     1.0000 0.27044  0.56443  0.44750  Biso   1.000  C
  C132     1.0000 0.18557  0.52044  0.69750  Biso   1.000  C
  C133     1.0000 0.22956  0.43557  0.94750  Biso   1.000  C
  C134     1.0000 0.31443  0.47956  0.19750  Biso   1.000  C
  C135     1.0000 0.77044  0.06443  0.94750  Biso   1.000  C
  C136     1.0000 0.68557  0.02044  0.19750  Biso   1.000  C
  C137     1.0000 0.27044  0.06443  0.55250  Biso   1.000  C
  C138     1.0000 0.68557  0.52044  0.80250  Biso   1.000  C
  C139     1.0000 0.72956  0.43557  0.55250  Biso   1.000  C
  C140     1.0000 0.31443  0.97956  0.80250  Biso   1.000  C
  C141     1.0000 0.77044  0.56443  0.05250  Biso   1.000  C
  C142     1.0000 0.18557  0.02044  0.30250  Biso   1.000  C
  C143     1.0000 0.22956  0.93557  0.05250  Biso   1.000  C
  C144     1.0000 0.81443  0.47956  0.30250  Biso   1.000  C
  C145     1.0000 0.82060  0.95015  0.40460  Biso   1.000  C
  C146     1.0000 0.79985  0.07060  0.65460  Biso   1.000  C
  C147     1.0000 0.17940  0.54985  0.40460  Biso   1.000  C
  C148     1.0000 0.20015  0.42940  0.65460  Biso   1.000  C
  C149     1.0000 0.32060  0.45015  0.90460  Biso   1.000  C
  C150     1.0000 0.29985  0.57060  0.15460  Biso   1.000  C
  C151     1.0000 0.67940  0.04985  0.90460  Biso   1.000  C
  C152     1.0000 0.70015  0.92940  0.15460  Biso   1.000  C
  C153     1.0000 0.17940  0.04985  0.59540  Biso   1.000  C
  C154     1.0000 0.70015  0.42940  0.84540  Biso   1.000  C
  C155     1.0000 0.82060  0.45015  0.59540  Biso   1.000  C
  C156     1.0000 0.29985  0.07060  0.84540  Biso   1.000  C
  C157     1.0000 0.67940  0.54985  0.09540  Biso   1.000  C
  C158     1.0000 0.20015  0.92940  0.34540  Biso   1.000  C
  C159     1.0000 0.32060  0.95015  0.09540  Biso   1.000  C
  C160     1.0000 0.79985  0.57060  0.34540  Biso   1.000  C
  N1       1.0000 0.77227  0.96607  0.46250  Biso   1.000  N
  N2       1.0000 0.78393  0.02227  0.71250  Biso   1.000  N
  N3       1.0000 0.22773  0.53393  0.46250  Biso   1.000  N
  N4       1.0000 0.21607  0.47773  0.71250  Biso   1.000  N
  N5       1.0000 0.27227  0.46607  0.96250  Biso   1.000  N
  N6       1.0000 0.28393  0.52227  0.21250  Biso   1.000  N
  N7       1.0000 0.72773  0.03393  0.96250  Biso   1.000  N
  N8       1.0000 0.71607  0.97773  0.21250  Biso   1.000  N
  N9       1.0000 0.22773  0.03393  0.53750  Biso   1.000  N
  N10      1.0000 0.71607  0.47773  0.78750  Biso   1.000  N
  N11      1.0000 0.77227  0.46607  0.53750  Biso   1.000  N
  N12      1.0000 0.28393  0.02227  0.78750  Biso   1.000  N
  N13      1.0000 0.72773  0.53393  0.03750  Biso   1.000  N
  N14      1.0000 0.21607  0.97773  0.28750  Biso   1.000  N
  N15      1.0000 0.27227  0.96607  0.03750  Biso   1.000  N
  N16      1.0000 0.78393  0.52227  0.28750  Biso   1.000  N
  H113     1.0000 0.86980  0.91640  0.74560  Biso   1.000  H
  H114     1.0000 0.83360  0.11980  0.99560  Biso   1.000  H
  H115     1.0000 0.13020  0.58360  0.74560  Biso   1.000  H
  H116     1.0000 0.16640  0.38020  0.99560  Biso   1.000  H
  H117     1.0000 0.36980  0.41640  0.24560  Biso   1.000  H
  H118     1.0000 0.33360  0.61980  0.49560  Biso   1.000  H
  H119     1.0000 0.63020  0.08360  0.24560  Biso   1.000  H
  H120     1.0000 0.66640  0.88020  0.49560  Biso   1.000  H
  H121     1.0000 0.13020  0.08360  0.25440  Biso   1.000  H
  H122     1.0000 0.66640  0.38020  0.50440  Biso   1.000  H
  H123     1.0000 0.86980  0.41640  0.25440  Biso   1.000  H
  H124     1.0000 0.33360  0.11980  0.50440  Biso   1.000  H
  H125     1.0000 0.63020  0.58360  0.75440  Biso   1.000  H
  H126     1.0000 0.16640  0.88020  0.00440  Biso   1.000  H
  H127     1.0000 0.36980  0.91640  0.75440  Biso   1.000  H
  H128     1.0000 0.83360  0.61980  0.00440  Biso   1.000  H
  C161     1.0000 0.90970  0.93382  0.77820  Biso   1.000  C
  C162     1.0000 0.81618  0.15970  0.02820  Biso   1.000  C
  C163     1.0000 0.09030  0.56618  0.77820  Biso   1.000  C
  C164     1.0000 0.18382  0.34030  0.02820  Biso   1.000  C
  C165     1.0000 0.40970  0.43382  0.27820  Biso   1.000  C
  C166     1.0000 0.31618  0.65970  0.52820  Biso   1.000  C
  C167     1.0000 0.59030  0.06618  0.27820  Biso   1.000  C
  C168     1.0000 0.68382  0.84030  0.52820  Biso   1.000  C
  C169     1.0000 0.09030  0.06618  0.22180  Biso   1.000  C
  C170     1.0000 0.68382  0.34030  0.47180  Biso   1.000  C
  C171     1.0000 0.90970  0.43382  0.22180  Biso   1.000  C
  C172     1.0000 0.31618  0.15970  0.47180  Biso   1.000  C
  C173     1.0000 0.59030  0.56618  0.72180  Biso   1.000  C
  C174     1.0000 0.18382  0.84030  0.97180  Biso   1.000  C
  C175     1.0000 0.40970  0.93382  0.72180  Biso   1.000  C
  C176     1.0000 0.81618  0.65970  0.97180  Biso   1.000  C
  C177     1.0000 0.92121  0.86603  0.02890  Biso   1.000  C
  C178     1.0000 0.88397  0.17121  0.27890  Biso   1.000  C
  C179     1.0000 0.07879  0.63397  0.02890  Biso   1.000  C
  C180     1.0000 0.11603  0.32879  0.27890  Biso   1.000  C
  C181     1.0000 0.42121  0.36603  0.52890  Biso   1.000  C
  C182     1.0000 0.38397  0.67121  0.77890  Biso   1.000  C
  C183     1.0000 0.57879  0.13397  0.52890  Biso   1.000  C
  C184     1.0000 0.61603  0.82879  0.77890  Biso   1.000  C
  C185     1.0000 0.07879  0.13397  0.97110  Biso   1.000  C
  C186     1.0000 0.61603  0.32879  0.22110  Biso   1.000  C
  C187     1.0000 0.92121  0.36603  0.97110  Biso   1.000  C
  C188     1.0000 0.38397  0.17121  0.22110  Biso   1.000  C
  C189     1.0000 0.57879  0.63397  0.47110  Biso   1.000  C
  C190     1.0000 0.11603  0.82879  0.72110  Biso   1.000  C
  C191     1.0000 0.42121  0.86603  0.47110  Biso   1.000  C
  C192     1.0000 0.88397  0.67121  0.72110  Biso   1.000  C
  N17      1.0000 0.93691  0.90933  0.93030  Biso   1.000  N
  N18      1.0000 0.84067  0.18691  0.18030  Biso   1.000  N
  N19      1.0000 0.06309  0.59067  0.93030  Biso   1.000  N
  N20      1.0000 0.15933  0.31309  0.18030  Biso   1.000  N
  N21      1.0000 0.43691  0.40933  0.43030  Biso   1.000  N
  N22      1.0000 0.34067  0.68691  0.68030  Biso   1.000  N
  N23      1.0000 0.56309  0.09067  0.43030  Biso   1.000  N
  N24      1.0000 0.65933  0.81309  0.68030  Biso   1.000  N
  N25      1.0000 0.06309  0.09067  0.06970  Biso   1.000  N
  N26      1.0000 0.65933  0.31309  0.31970  Biso   1.000  N
  N27      1.0000 0.93691  0.40933  0.06970  Biso   1.000  N
  N28      1.0000 0.34067  0.18691  0.31970  Biso   1.000  N
  N29      1.0000 0.56309  0.59067  0.56970  Biso   1.000  N
  N30      1.0000 0.15933  0.81309  0.81970  Biso   1.000  N
  N31      1.0000 0.43691  0.90933  0.56970  Biso   1.000  N
  N32      1.0000 0.84067  0.68691  0.81970  Biso   1.000  N
  O161     1.0000 0.83332  0.80454  0.76920  Biso   1.000  O
  O162     1.0000 0.94546  0.08332  0.01920  Biso   1.000  O
  O163     1.0000 0.16668  0.69546  0.76920  Biso   1.000  O
  O164     1.0000 0.05454  0.41668  0.01920  Biso   1.000  O
  O165     1.0000 0.33332  0.30454  0.26920  Biso   1.000  O
  O166     1.0000 0.44546  0.58332  0.51920  Biso   1.000  O
  O167     1.0000 0.66668  0.19546  0.26920  Biso   1.000  O
  O168     1.0000 0.55454  0.91668  0.51920  Biso   1.000  O
  O169     1.0000 0.16668  0.19546  0.23080  Biso   1.000  O
  O170     1.0000 0.55454  0.41668  0.48080  Biso   1.000  O
  O171     1.0000 0.83332  0.30454  0.23080  Biso   1.000  O
  O172     1.0000 0.44546  0.08332  0.48080  Biso   1.000  O
  O173     1.0000 0.66668  0.69546  0.73080  Biso   1.000  O
  O174     1.0000 0.05454  0.91668  0.98080  Biso   1.000  O
  O175     1.0000 0.33332  0.80454  0.73080  Biso   1.000  O
  O176     1.0000 0.94546  0.58332  0.98080  Biso   1.000  O
  O177     1.0000 0.87477  0.84520  0.61990  Biso   1.000  O
  O178     1.0000 0.90480  0.12477  0.86990  Biso   1.000  O
  O179     1.0000 0.12523  0.65480  0.61990  Biso   1.000  O
  O180     1.0000 0.09520  0.37523  0.86990  Biso   1.000  O
  O181     1.0000 0.37477  0.34520  0.11990  Biso   1.000  O
  O182     1.0000 0.40480  0.62477  0.36990  Biso   1.000  O
  O183     1.0000 0.62523  0.15480  0.11990  Biso   1.000  O
  O184     1.0000 0.59520  0.87523  0.36990  Biso   1.000  O
  O185     1.0000 0.12523  0.15480  0.38010  Biso   1.000  O
  O186     1.0000 0.59520  0.37523  0.63010  Biso   1.000  O
  O187     1.0000 0.87477  0.34520  0.38010  Biso   1.000  O
  O188     1.0000 0.40480  0.12477  0.63010  Biso   1.000  O
  O189     1.0000 0.62523  0.65480  0.88010  Biso   1.000  O
  O190     1.0000 0.09520  0.87523  0.13010  Biso   1.000  O
  O191     1.0000 0.37477  0.84520  0.88010  Biso   1.000  O
  O192     1.0000 0.90480  0.62477  0.13010  Biso   1.000  O
  O193     1.0000 0.77625  0.85774  0.51510  Biso   1.000  O
  O194     1.0000 0.89226  0.02625  0.76510  Biso   1.000  O
  O195     1.0000 0.22375  0.64226  0.51510  Biso   1.000  O
  O196     1.0000 0.10774  0.47375  0.76510  Biso   1.000  O
  O197     1.0000 0.27625  0.35774  0.01510  Biso   1.000  O
  O198     1.0000 0.39226  0.52625  0.26510  Biso   1.000  O
  O199     1.0000 0.72375  0.14226  0.01510  Biso   1.000  O
  O200     1.0000 0.60774  0.97375  0.26510  Biso   1.000  O
  O201     1.0000 0.22375  0.14226  0.48490  Biso   1.000  O
  O202     1.0000 0.60774  0.47375  0.73490  Biso   1.000  O
  O203     1.0000 0.77625  0.35774  0.48490  Biso   1.000  O
  O204     1.0000 0.39226  0.02625  0.73490  Biso   1.000  O
  O205     1.0000 0.72375  0.64226  0.98490  Biso   1.000  O
  O206     1.0000 0.10774  0.97375  0.23490  Biso   1.000  O
  O207     1.0000 0.27625  0.85774  0.98490  Biso   1.000  O
  O208     1.0000 0.89226  0.52625  0.23490  Biso   1.000  O
  O209     1.0000 0.83737  0.87898  0.47100  Biso   1.000  O
  O210     1.0000 0.87102  0.08737  0.72100  Biso   1.000  O
  O211     1.0000 0.16263  0.62102  0.47100  Biso   1.000  O
  O212     1.0000 0.12898  0.41263  0.72100  Biso   1.000  O
  O213     1.0000 0.33737  0.37898  0.97100  Biso   1.000  O
  O214     1.0000 0.37102  0.58737  0.22100  Biso   1.000  O
  O215     1.0000 0.66263  0.12102  0.97100  Biso   1.000  O
  O216     1.0000 0.62898  0.91263  0.22100  Biso   1.000  O
  O217     1.0000 0.16263  0.12102  0.52900  Biso   1.000  O
  O218     1.0000 0.62898  0.41263  0.77900  Biso   1.000  O
  O219     1.0000 0.83737  0.37898  0.52900  Biso   1.000  O
  O220     1.0000 0.37102  0.08737  0.77900  Biso   1.000  O
  O221     1.0000 0.66263  0.62102  0.02900  Biso   1.000  O
  O222     1.0000 0.12898  0.91263  0.27900  Biso   1.000  O
  O223     1.0000 0.33737  0.87898  0.02900  Biso   1.000  O
  O224     1.0000 0.87102  0.58737  0.27900  Biso   1.000  O
  O225     1.0000 0.81977  0.90524  0.61870  Biso   1.000  O
  O226     1.0000 0.84476  0.06977  0.86870  Biso   1.000  O
  O227     1.0000 0.18023  0.59476  0.61870  Biso   1.000  O
  O228     1.0000 0.15524  0.43023  0.86870  Biso   1.000  O
  O229     1.0000 0.31977  0.40524  0.11870  Biso   1.000  O
  O230     1.0000 0.34476  0.56977  0.36870  Biso   1.000  O
  O231     1.0000 0.68023  0.09476  0.11870  Biso   1.000  O
  O232     1.0000 0.65524  0.93023  0.36870  Biso   1.000  O
  O233     1.0000 0.18023  0.09476  0.38130  Biso   1.000  O
  O234     1.0000 0.65524  0.43023  0.63130  Biso   1.000  O
  O235     1.0000 0.81977  0.40524  0.38130  Biso   1.000  O
  O236     1.0000 0.34476  0.06977  0.63130  Biso   1.000  O
  O237     1.0000 0.68023  0.59476  0.88130  Biso   1.000  O
  O238     1.0000 0.15524  0.93023  0.13130  Biso   1.000  O
  O239     1.0000 0.31977  0.90524  0.88130  Biso   1.000  O
  O240     1.0000 0.84476  0.56977  0.13130  Biso   1.000  O
  O241     1.0000 0.82226  0.81000  0.50270  Biso   1.000  O
  O242     1.0000 0.94000  0.07226  0.75270  Biso   1.000  O
  O243     1.0000 0.17774  0.69000  0.50270  Biso   1.000  O
  O244     1.0000 0.06000  0.42774  0.75270  Biso   1.000  O
  O245     1.0000 0.32226  0.31000  0.00270  Biso   1.000  O
  O246     1.0000 0.44000  0.57226  0.25270  Biso   1.000  O
  O247     1.0000 0.67774  0.19000  0.00270  Biso   1.000  O
  O248     1.0000 0.56000  0.92774  0.25270  Biso   1.000  O
  O249     1.0000 0.17774  0.19000  0.49730  Biso   1.000  O
  O250     1.0000 0.56000  0.42774  0.74730  Biso   1.000  O
  O251     1.0000 0.82226  0.31000  0.49730  Biso   1.000  O
  O252     1.0000 0.44000  0.07226  0.74730  Biso   1.000  O
  O253     1.0000 0.67774  0.69000  0.99730  Biso   1.000  O
  O254     1.0000 0.06000  0.92774  0.24730  Biso   1.000  O
  O255     1.0000 0.32226  0.81000  0.99730  Biso   1.000  O
  O256     1.0000 0.94000  0.57226  0.24730  Biso   1.000  O
  O257     1.0000 0.77168  0.82428  0.72850  Biso   1.000  O
  O258     1.0000 0.92572  0.02168  0.97850  Biso   1.000  O
  O259     1.0000 0.22832  0.67572  0.72850  Biso   1.000  O
  O260     1.0000 0.07428  0.47832  0.97850  Biso   1.000  O
  O261     1.0000 0.27168  0.32428  0.22850  Biso   1.000  O
  O262     1.0000 0.42572  0.52168  0.47850  Biso   1.000  O
  O263     1.0000 0.72832  0.17572  0.22850  Biso   1.000  O
  O264     1.0000 0.57428  0.97832  0.47850  Biso   1.000  O
  O265     1.0000 0.22832  0.17572  0.27150  Biso   1.000  O
  O266     1.0000 0.57428  0.47832  0.52150  Biso   1.000  O
  O267     1.0000 0.77168  0.32428  0.27150  Biso   1.000  O
  O268     1.0000 0.42572  0.02168  0.52150  Biso   1.000  O
  O269     1.0000 0.72832  0.67572  0.77150  Biso   1.000  O
  O270     1.0000 0.07428  0.97832  0.02150  Biso   1.000  O
  O271     1.0000 0.27168  0.82428  0.77150  Biso   1.000  O
  O272     1.0000 0.92572  0.52168  0.02150  Biso   1.000  O
  O273     1.0000 0.78153  0.87090  0.76850  Biso   1.000  O
  O274     1.0000 0.87910  0.03153  0.01850  Biso   1.000  O
  O275     1.0000 0.21847  0.62910  0.76850  Biso   1.000  O
  O276     1.0000 0.12090  0.46847  0.01850  Biso   1.000  O
  O277     1.0000 0.28153  0.37090  0.26850  Biso   1.000  O
  O278     1.0000 0.37910  0.53153  0.51850  Biso   1.000  O
  O279     1.0000 0.71847  0.12910  0.26850  Biso   1.000  O
  O280     1.0000 0.62090  0.96847  0.51850  Biso   1.000  O
  O281     1.0000 0.21847  0.12910  0.23150  Biso   1.000  O
  O282     1.0000 0.62090  0.46847  0.48150  Biso   1.000  O
  O283     1.0000 0.78153  0.37090  0.23150  Biso   1.000  O
  O284     1.0000 0.37910  0.03153  0.48150  Biso   1.000  O
  O285     1.0000 0.71847  0.62910  0.73150  Biso   1.000  O
  O286     1.0000 0.12090  0.96847  0.98150  Biso   1.000  O
  O287     1.0000 0.28153  0.87090  0.73150  Biso   1.000  O
  O288     1.0000 0.87910  0.53153  0.98150  Biso   1.000  O
  H129     1.0000 0.70980  0.93250  0.46650  Biso   1.000  H
  H130     1.0000 0.81750  0.95980  0.71650  Biso   1.000  H
  H131     1.0000 0.29020  0.56750  0.46650  Biso   1.000  H
  H132     1.0000 0.18250  0.54020  0.71650  Biso   1.000  H
  H133     1.0000 0.20980  0.43250  0.96650  Biso   1.000  H
  H134     1.0000 0.31750  0.45980  0.21650  Biso   1.000  H
  H135     1.0000 0.79020  0.06750  0.96650  Biso   1.000  H
  H136     1.0000 0.68250  0.04020  0.21650  Biso   1.000  H
  H137     1.0000 0.29020  0.06750  0.53350  Biso   1.000  H
  H138     1.0000 0.68250  0.54020  0.78350  Biso   1.000  H
  H139     1.0000 0.70980  0.43250  0.53350  Biso   1.000  H
  H140     1.0000 0.31750  0.95980  0.78350  Biso   1.000  H
  H141     1.0000 0.79020  0.56750  0.03350  Biso   1.000  H
  H142     1.0000 0.18250  0.04020  0.28350  Biso   1.000  H
  H143     1.0000 0.20980  0.93250  0.03350  Biso   1.000  H
  H144     1.0000 0.81750  0.45980  0.28350  Biso   1.000  H
  C193     1.0000 0.74364  0.96131  0.47900  Biso   1.000  C
  C194     1.0000 0.78869  0.99364  0.72900  Biso   1.000  C
  C195     1.0000 0.25636  0.53869  0.47900  Biso   1.000  C
  C196     1.0000 0.21131  0.50636  0.72900  Biso   1.000  C
  C197     1.0000 0.24364  0.46131  0.97900  Biso   1.000  C
  C198     1.0000 0.28869  0.49364  0.22900  Biso   1.000  C
  C199     1.0000 0.75636  0.03869  0.97900  Biso   1.000  C
  C200     1.0000 0.71131  0.00636  0.22900  Biso   1.000  C
  C201     1.0000 0.25636  0.03869  0.52100  Biso   1.000  C
  C202     1.0000 0.71131  0.50636  0.77100  Biso   1.000  C
  C203     1.0000 0.74364  0.46131  0.52100  Biso   1.000  C
  C204     1.0000 0.28869  0.99364  0.77100  Biso   1.000  C
  C205     1.0000 0.75636  0.53869  0.02100  Biso   1.000  C
  C206     1.0000 0.21131  0.00636  0.27100  Biso   1.000  C
  C207     1.0000 0.24364  0.96131  0.02100  Biso   1.000  C
  C208     1.0000 0.78869  0.49364  0.27100  Biso   1.000  C
  C209     1.0000 0.84089  0.93111  0.45670  Biso   1.000  C
  C210     1.0000 0.81889  0.09089  0.70670  Biso   1.000  C
  C211     1.0000 0.15911  0.56889  0.45670  Biso   1.000  C
  C212     1.0000 0.18111  0.40911  0.70670  Biso   1.000  C
  C213     1.0000 0.34089  0.43111  0.95670  Biso   1.000  C
  C214     1.0000 0.31889  0.59089  0.20670  Biso   1.000  C
  C215     1.0000 0.65911  0.06889  0.95670  Biso   1.000  C
  C216     1.0000 0.68111  0.90911  0.20670  Biso   1.000  C
  C217     1.0000 0.15911  0.06889  0.54330  Biso   1.000  C
  C218     1.0000 0.68111  0.40911  0.79330  Biso   1.000  C
  C219     1.0000 0.84089  0.43111  0.54330  Biso   1.000  C
  C220     1.0000 0.31889  0.09089  0.79330  Biso   1.000  C
  C221     1.0000 0.65911  0.56889  0.04330  Biso   1.000  C
  C222     1.0000 0.18111  0.90911  0.29330  Biso   1.000  C
  C223     1.0000 0.34089  0.93111  0.04330  Biso   1.000  C
  C224     1.0000 0.81889  0.59089  0.29330  Biso   1.000  C
  N33      1.0000 0.82887  0.97540  0.35010  Biso   1.000  N
  N34      1.0000 0.77460  0.07887  0.60010  Biso   1.000  N
  N35      1.0000 0.17113  0.52460  0.35010  Biso   1.000  N
  N36      1.0000 0.22540  0.42113  0.60010  Biso   1.000  N
  N37      1.0000 0.32887  0.47540  0.85010  Biso   1.000  N
  N38      1.0000 0.27460  0.57887  0.10010  Biso   1.000  N
  N39      1.0000 0.67113  0.02460  0.85010  Biso   1.000  N
  N40      1.0000 0.72540  0.92113  0.10010  Biso   1.000  N
  N41      1.0000 0.17113  0.02460  0.64990  Biso   1.000  N
  N42      1.0000 0.72540  0.42113  0.89990  Biso   1.000  N
  N43      1.0000 0.82887  0.47540  0.64990  Biso   1.000  N
  N44      1.0000 0.27460  0.07887  0.89990  Biso   1.000  N
  N45      1.0000 0.67113  0.52460  0.14990  Biso   1.000  N
  N46      1.0000 0.22540  0.92113  0.39990  Biso   1.000  N
  N47      1.0000 0.32887  0.97540  0.14990  Biso   1.000  N
  N48      1.0000 0.77460  0.57887  0.39990  Biso   1.000  N
  H145     1.0000 0.90900  0.94840  0.72050  Biso   1.000  H
  H146     1.0000 0.80160  0.15900  0.97050  Biso   1.000  H
  H147     1.0000 0.09100  0.55160  0.72050  Biso   1.000  H
  H148     1.0000 0.19840  0.34100  0.97050  Biso   1.000  H
  H149     1.0000 0.40900  0.44840  0.22050  Biso   1.000  H
  H150     1.0000 0.30160  0.65900  0.47050  Biso   1.000  H
  H151     1.0000 0.59100  0.05160  0.22050  Biso   1.000  H
  H152     1.0000 0.69840  0.84100  0.47050  Biso   1.000  H
  H153     1.0000 0.09100  0.05160  0.27950  Biso   1.000  H
  H154     1.0000 0.69840  0.34100  0.52950  Biso   1.000  H
  H155     1.0000 0.90900  0.44840  0.27950  Biso   1.000  H
  H156     1.0000 0.30160  0.15900  0.52950  Biso   1.000  H
  H157     1.0000 0.59100  0.55160  0.77950  Biso   1.000  H
  H158     1.0000 0.19840  0.84100  0.02950  Biso   1.000  H
  H159     1.0000 0.40900  0.94840  0.77950  Biso   1.000  H
  H160     1.0000 0.80160  0.65900  0.02950  Biso   1.000  H
  C225     1.0000 0.93384  0.93104  0.85050  Biso   1.000  C
  C226     1.0000 0.81896  0.18384  0.10050  Biso   1.000  C
  C227     1.0000 0.06616  0.56896  0.85050  Biso   1.000  C
  C228     1.0000 0.18104  0.31616  0.10050  Biso   1.000  C
  C229     1.0000 0.43384  0.43104  0.35050  Biso   1.000  C
  C230     1.0000 0.31896  0.68384  0.60050  Biso   1.000  C
  C231     1.0000 0.56616  0.06896  0.35050  Biso   1.000  C
  C232     1.0000 0.68104  0.81616  0.60050  Biso   1.000  C
  C233     1.0000 0.06616  0.06896  0.14950  Biso   1.000  C
  C234     1.0000 0.68104  0.31616  0.39950  Biso   1.000  C
  C235     1.0000 0.93384  0.43104  0.14950  Biso   1.000  C
  C236     1.0000 0.31896  0.18384  0.39950  Biso   1.000  C
  C237     1.0000 0.56616  0.56896  0.64950  Biso   1.000  C
  C238     1.0000 0.18104  0.81616  0.89950  Biso   1.000  C
  C239     1.0000 0.43384  0.93104  0.64950  Biso   1.000  C
  C240     1.0000 0.81896  0.68384  0.89950  Biso   1.000  C
  C241     1.0000 0.91619  0.83626  0.01150  Biso   1.000  C
  C242     1.0000 0.91374  0.16619  0.26150  Biso   1.000  C
  C243     1.0000 0.08381  0.66374  0.01150  Biso   1.000  C
  C244     1.0000 0.08626  0.33381  0.26150  Biso   1.000  C
  C245     1.0000 0.41619  0.33626  0.51150  Biso   1.000  C
  C246     1.0000 0.41374  0.66619  0.76150  Biso   1.000  C
  C247     1.0000 0.58381  0.16374  0.51150  Biso   1.000  C
  C248     1.0000 0.58626  0.83381  0.76150  Biso   1.000  C
  C249     1.0000 0.08381  0.16374  0.98850  Biso   1.000  C
  C250     1.0000 0.58626  0.33381  0.23850  Biso   1.000  C
  C251     1.0000 0.91619  0.33626  0.98850  Biso   1.000  C
  C252     1.0000 0.41374  0.16619  0.23850  Biso   1.000  C
  C253     1.0000 0.58381  0.66374  0.48850  Biso   1.000  C
  C254     1.0000 0.08626  0.83381  0.73850  Biso   1.000  C
  C255     1.0000 0.41619  0.83626  0.48850  Biso   1.000  C
  C256     1.0000 0.91374  0.66619  0.73850  Biso   1.000  C
  N49      1.0000 0.93390  0.87581  0.13080  Biso   1.000  N
  N50      1.0000 0.87419  0.18390  0.38080  Biso   1.000  N
  N51      1.0000 0.06610  0.62419  0.13080  Biso   1.000  N
  N52      1.0000 0.12581  0.31610  0.38080  Biso   1.000  N
  N53      1.0000 0.43390  0.37581  0.63080  Biso   1.000  N
  N54      1.0000 0.37419  0.68390  0.88080  Biso   1.000  N
  N55      1.0000 0.56610  0.12419  0.63080  Biso   1.000  N
  N56      1.0000 0.62581  0.81610  0.88080  Biso   1.000  N
  N57      1.0000 0.06610  0.12419  0.86920  Biso   1.000  N
  N58      1.0000 0.62581  0.31610  0.11920  Biso   1.000  N
  N59      1.0000 0.93390  0.37581  0.86920  Biso   1.000  N
  N60      1.0000 0.37419  0.18390  0.11920  Biso   1.000  N
  N61      1.0000 0.56610  0.62419  0.36920  Biso   1.000  N
  N62      1.0000 0.12581  0.81610  0.61920  Biso   1.000  N
  N63      1.0000 0.43390  0.87581  0.36920  Biso   1.000  N
  N64      1.0000 0.87419  0.68390  0.61920  Biso   1.000  N
  Cu1      1.0000 0.95344  0.91617  0.13078  Biso   1.000  Cu
  Cu2      1.0000 0.83383  0.20344  0.38078  Biso   1.000  Cu
  Cu3      1.0000 0.04656  0.58383  0.13078  Biso   1.000  Cu
  Cu4      1.0000 0.16617  0.29656  0.38078  Biso   1.000  Cu
  Cu5      1.0000 0.45344  0.41617  0.63078  Biso   1.000  Cu
  Cu6      1.0000 0.33383  0.70344  0.88078  Biso   1.000  Cu
  Cu7      1.0000 0.54656  0.08383  0.63078  Biso   1.000  Cu
  Cu8      1.0000 0.66617  0.79656  0.88078  Biso   1.000  Cu
  Cu9      1.0000 0.04656  0.08383  0.86922  Biso   1.000  Cu
  Cu10     1.0000 0.66617  0.29656  0.11922  Biso   1.000  Cu
  Cu11     1.0000 0.95344  0.41617  0.86922  Biso   1.000  Cu
  Cu12     1.0000 0.33383  0.20344  0.11922  Biso   1.000  Cu
  Cu13     1.0000 0.54656  0.58383  0.36922  Biso   1.000  Cu
  Cu14     1.0000 0.16617  0.79656  0.61922  Biso   1.000  Cu
  Cu15     1.0000 0.45344  0.91617  0.36922  Biso   1.000  Cu
  Cu16     1.0000 0.83383  0.70344  0.61922  Biso   1.000  Cu
  H161     1.0000 0.82950  0.78880  0.72980  Biso   1.000  H
  H162     1.0000 0.96120  0.07950  0.97980  Biso   1.000  H
  H163     1.0000 0.17050  0.71120  0.72980  Biso   1.000  H
  H164     1.0000 0.03880  0.42050  0.97980  Biso   1.000  H
  H165     1.0000 0.32950  0.28880  0.22980  Biso   1.000  H
  H166     1.0000 0.46120  0.57950  0.47980  Biso   1.000  H
  H167     1.0000 0.67050  0.21120  0.22980  Biso   1.000  H
  H168     1.0000 0.53880  0.92050  0.47980  Biso   1.000  H
  H169     1.0000 0.17050  0.21120  0.27020  Biso   1.000  H
  H170     1.0000 0.53880  0.42050  0.52020  Biso   1.000  H
  H171     1.0000 0.82950  0.28880  0.27020  Biso   1.000  H
  H172     1.0000 0.46120  0.07950  0.52020  Biso   1.000  H
  H173     1.0000 0.67050  0.71120  0.77020  Biso   1.000  H
  H174     1.0000 0.03880  0.92050  0.02020  Biso   1.000  H
  H175     1.0000 0.32950  0.78880  0.77020  Biso   1.000  H
  H176     1.0000 0.96120  0.57950  0.02020  Biso   1.000  H
  H177     1.0000 0.82300  0.80460  0.83290  Biso   1.000  H
  H178     1.0000 0.94540  0.07300  0.08290  Biso   1.000  H
  H179     1.0000 0.17700  0.69540  0.83290  Biso   1.000  H
  H180     1.0000 0.05460  0.42700  0.08290  Biso   1.000  H
  H181     1.0000 0.32300  0.30460  0.33290  Biso   1.000  H
  H182     1.0000 0.44540  0.57300  0.58290  Biso   1.000  H
  H183     1.0000 0.67700  0.19540  0.33290  Biso   1.000  H
  H184     1.0000 0.55460  0.92700  0.58290  Biso   1.000  H
  H185     1.0000 0.17700  0.19540  0.16710  Biso   1.000  H
  H186     1.0000 0.55460  0.42700  0.41710  Biso   1.000  H
  H187     1.0000 0.82300  0.30460  0.16710  Biso   1.000  H
  H188     1.0000 0.44540  0.07300  0.41710  Biso   1.000  H
  H189     1.0000 0.67700  0.69540  0.66710  Biso   1.000  H
  H190     1.0000 0.05460  0.92700  0.91710  Biso   1.000  H
  H191     1.0000 0.32300  0.80460  0.66710  Biso   1.000  H
  H192     1.0000 0.94540  0.57300  0.91710  Biso   1.000  H
  H193     1.0000 0.87880  0.83430  0.55900  Biso   1.000  H
  H194     1.0000 0.91570  0.12880  0.80900  Biso   1.000  H
  H195     1.0000 0.12120  0.66570  0.55900  Biso   1.000  H
  H196     1.0000 0.08430  0.37120  0.80900  Biso   1.000  H
  H197     1.0000 0.37880  0.33430  0.05900  Biso   1.000  H
  H198     1.0000 0.41570  0.62880  0.30900  Biso   1.000  H
  H199     1.0000 0.62120  0.16570  0.05900  Biso   1.000  H
  H200     1.0000 0.58430  0.87120  0.30900  Biso   1.000  H
  H201     1.0000 0.12120  0.16570  0.44100  Biso   1.000  H
  H202     1.0000 0.58430  0.37120  0.69100  Biso   1.000  H
  H203     1.0000 0.87880  0.33430  0.44100  Biso   1.000  H
  H204     1.0000 0.41570  0.12880  0.69100  Biso   1.000  H
  H205     1.0000 0.62120  0.66570  0.94100  Biso   1.000  H
  H206     1.0000 0.08430  0.87120  0.19100  Biso   1.000  H
  H207     1.0000 0.37880  0.83430  0.94100  Biso   1.000  H
  H208     1.0000 0.91570  0.62880  0.19100  Biso   1.000  H
  H209     1.0000 0.88290  0.83740  0.68190  Biso   1.000  H
  H210     1.0000 0.91260  0.13290  0.93190  Biso   1.000  H
  H211     1.0000 0.11710  0.66260  0.68190  Biso   1.000  H
  H212     1.0000 0.08740  0.36710  0.93190  Biso   1.000  H
  H213     1.0000 0.38290  0.33740  0.18190  Biso   1.000  H
  H214     1.0000 0.41260  0.63290  0.43190  Biso   1.000  H
  H215     1.0000 0.61710  0.16260  0.18190  Biso   1.000  H
  H216     1.0000 0.58740  0.86710  0.43190  Biso   1.000  H
  H217     1.0000 0.11710  0.16260  0.31810  Biso   1.000  H
  H218     1.0000 0.58740  0.36710  0.56810  Biso   1.000  H
  H219     1.0000 0.88290  0.33740  0.31810  Biso   1.000  H
  H220     1.0000 0.41260  0.13290  0.56810  Biso   1.000  H
  H221     1.0000 0.61710  0.66260  0.81810  Biso   1.000  H
  H222     1.0000 0.08740  0.86710  0.06810  Biso   1.000  H
  H223     1.0000 0.38290  0.83740  0.81810  Biso   1.000  H
  H224     1.0000 0.91260  0.63290  0.06810  Biso   1.000  H
  H225     1.0000 0.76680  0.84120  0.50350  Biso   1.000  H
  H226     1.0000 0.90880  0.01680  0.75350  Biso   1.000  H
  H227     1.0000 0.23320  0.65880  0.50350  Biso   1.000  H
  H228     1.0000 0.09120  0.48320  0.75350  Biso   1.000  H
  H229     1.0000 0.26680  0.34120  0.00350  Biso   1.000  H
  H230     1.0000 0.40880  0.51680  0.25350  Biso   1.000  H
  H231     1.0000 0.73320  0.15880  0.00350  Biso   1.000  H
  H232     1.0000 0.59120  0.98320  0.25350  Biso   1.000  H
  H233     1.0000 0.23320  0.15880  0.49650  Biso   1.000  H
  H234     1.0000 0.59120  0.48320  0.74650  Biso   1.000  H
  H235     1.0000 0.76680  0.34120  0.49650  Biso   1.000  H
  H236     1.0000 0.40880  0.01680  0.74650  Biso   1.000  H
  H237     1.0000 0.73320  0.65880  0.99650  Biso   1.000  H
  H238     1.0000 0.09120  0.98320  0.24650  Biso   1.000  H
  H239     1.0000 0.26680  0.84120  0.99650  Biso   1.000  H
  H240     1.0000 0.90880  0.51680  0.24650  Biso   1.000  H
  H241     1.0000 0.78160  0.86470  0.44670  Biso   1.000  H
  H242     1.0000 0.88530  0.03160  0.69670  Biso   1.000  H
  H243     1.0000 0.21840  0.63530  0.44670  Biso   1.000  H
  H244     1.0000 0.11470  0.46840  0.69670  Biso   1.000  H
  H245     1.0000 0.28160  0.36470  0.94670  Biso   1.000  H
  H246     1.0000 0.38530  0.53160  0.19670  Biso   1.000  H
  H247     1.0000 0.71840  0.13530  0.94670  Biso   1.000  H
  H248     1.0000 0.61470  0.96840  0.19670  Biso   1.000  H
  H249     1.0000 0.21840  0.13530  0.55330  Biso   1.000  H
  H250     1.0000 0.61470  0.46840  0.80330  Biso   1.000  H
  H251     1.0000 0.78160  0.36470  0.55330  Biso   1.000  H
  H252     1.0000 0.38530  0.03160  0.80330  Biso   1.000  H
  H253     1.0000 0.71840  0.63530  0.05330  Biso   1.000  H
  H254     1.0000 0.11470  0.96840  0.30330  Biso   1.000  H
  H255     1.0000 0.28160  0.86470  0.05330  Biso   1.000  H
  H256     1.0000 0.88530  0.53160  0.30330  Biso   1.000  H
  C257     1.0000 0.83173  0.90345  0.51910  Biso   1.000  C
  C258     1.0000 0.84655  0.08173  0.76910  Biso   1.000  C
  C259     1.0000 0.16827  0.59655  0.51910  Biso   1.000  C
  C260     1.0000 0.15345  0.41827  0.76910  Biso   1.000  C
  C261     1.0000 0.33173  0.40345  0.01910  Biso   1.000  C
  C262     1.0000 0.34655  0.58173  0.26910  Biso   1.000  C
  C263     1.0000 0.66827  0.09655  0.01910  Biso   1.000  C
  C264     1.0000 0.65345  0.91827  0.26910  Biso   1.000  C
  C265     1.0000 0.16827  0.09655  0.48090  Biso   1.000  C
  C266     1.0000 0.65345  0.41827  0.73090  Biso   1.000  C
  C267     1.0000 0.83173  0.40345  0.48090  Biso   1.000  C
  C268     1.0000 0.34655  0.08173  0.73090  Biso   1.000  C
  C269     1.0000 0.66827  0.59655  0.98090  Biso   1.000  C
  C270     1.0000 0.15345  0.91827  0.23090  Biso   1.000  C
  C271     1.0000 0.33173  0.90345  0.98090  Biso   1.000  C
  C272     1.0000 0.84655  0.58173  0.23090  Biso   1.000  C
  H257     1.0000 0.73250  0.97620  0.51380  Biso   1.000  H
  H258     1.0000 0.77380  0.98250  0.76380  Biso   1.000  H
  H259     1.0000 0.26750  0.52380  0.51380  Biso   1.000  H
  H260     1.0000 0.22620  0.51750  0.76380  Biso   1.000  H
  H261     1.0000 0.23250  0.47620  0.01380  Biso   1.000  H
  H262     1.0000 0.27380  0.48250  0.26380  Biso   1.000  H
  H263     1.0000 0.76750  0.02380  0.01380  Biso   1.000  H
  H264     1.0000 0.72620  0.01750  0.26380  Biso   1.000  H
  H265     1.0000 0.26750  0.02380  0.48620  Biso   1.000  H
  H266     1.0000 0.72620  0.51750  0.73620  Biso   1.000  H
  H267     1.0000 0.73250  0.47620  0.48620  Biso   1.000  H
  H268     1.0000 0.27380  0.98250  0.73620  Biso   1.000  H
  H269     1.0000 0.76750  0.52380  0.98620  Biso   1.000  H
  H270     1.0000 0.22620  0.01750  0.23620  Biso   1.000  H
  H271     1.0000 0.23250  0.97620  0.98620  Biso   1.000  H
  H272     1.0000 0.77380  0.48250  0.23620  Biso   1.000  H
  C273     1.0000 0.87069  0.93817  0.45260  Biso   1.000  C
  C274     1.0000 0.81183  0.12069  0.70260  Biso   1.000  C
  C275     1.0000 0.12931  0.56183  0.45260  Biso   1.000  C
  C276     1.0000 0.18817  0.37931  0.70260  Biso   1.000  C
  C277     1.0000 0.37069  0.43817  0.95260  Biso   1.000  C
  C278     1.0000 0.31183  0.62069  0.20260  Biso   1.000  C
  C279     1.0000 0.62931  0.06183  0.95260  Biso   1.000  C
  C280     1.0000 0.68817  0.87931  0.20260  Biso   1.000  C
  C281     1.0000 0.12931  0.06183  0.54740  Biso   1.000  C
  C282     1.0000 0.68817  0.37931  0.79740  Biso   1.000  C
  C283     1.0000 0.87069  0.43817  0.54740  Biso   1.000  C
  C284     1.0000 0.31183  0.12069  0.79740  Biso   1.000  C
  C285     1.0000 0.62931  0.56183  0.04740  Biso   1.000  C
  C286     1.0000 0.18817  0.87931  0.29740  Biso   1.000  C
  C287     1.0000 0.37069  0.93817  0.04740  Biso   1.000  C
  C288     1.0000 0.81183  0.62069  0.29740  Biso   1.000  C
  C289     1.0000 0.85758  0.98191  0.35100  Biso   1.000  C
  C290     1.0000 0.76809  0.10758  0.60100  Biso   1.000  C
  C291     1.0000 0.14242  0.51809  0.35100  Biso   1.000  C
  C292     1.0000 0.23191  0.39242  0.60100  Biso   1.000  C
  C293     1.0000 0.35758  0.48191  0.85100  Biso   1.000  C
  C294     1.0000 0.26809  0.60758  0.10100  Biso   1.000  C
  C295     1.0000 0.64242  0.01809  0.85100  Biso   1.000  C
  C296     1.0000 0.73191  0.89242  0.10100  Biso   1.000  C
  C297     1.0000 0.14242  0.01809  0.64900  Biso   1.000  C
  C298     1.0000 0.73191  0.39242  0.89900  Biso   1.000  C
  C299     1.0000 0.85758  0.48191  0.64900  Biso   1.000  C
  C300     1.0000 0.26809  0.10758  0.89900  Biso   1.000  C
  C301     1.0000 0.64242  0.51809  0.14900  Biso   1.000  C
  C302     1.0000 0.23191  0.89242  0.39900  Biso   1.000  C
  C303     1.0000 0.35758  0.98191  0.14900  Biso   1.000  C
  C304     1.0000 0.76809  0.60758  0.39900  Biso   1.000  C
  H273     1.0000 0.94890  0.94490  0.84390  Biso   1.000  H
  H274     1.0000 0.80510  0.19890  0.09390  Biso   1.000  H
  H275     1.0000 0.05110  0.55510  0.84390  Biso   1.000  H
  H276     1.0000 0.19490  0.30110  0.09390  Biso   1.000  H
  H277     1.0000 0.44890  0.44490  0.34390  Biso   1.000  H
  H278     1.0000 0.30510  0.69890  0.59390  Biso   1.000  H
  H279     1.0000 0.55110  0.05510  0.34390  Biso   1.000  H
  H280     1.0000 0.69490  0.80110  0.59390  Biso   1.000  H
  H281     1.0000 0.05110  0.05510  0.15610  Biso   1.000  H
  H282     1.0000 0.69490  0.30110  0.40610  Biso   1.000  H
  H283     1.0000 0.94890  0.44490  0.15610  Biso   1.000  H
  H284     1.0000 0.30510  0.19890  0.40610  Biso   1.000  H
  H285     1.0000 0.55110  0.55510  0.65610  Biso   1.000  H
  H286     1.0000 0.19490  0.80110  0.90610  Biso   1.000  H
  H287     1.0000 0.44890  0.94490  0.65610  Biso   1.000  H
  H288     1.0000 0.80510  0.69890  0.90610  Biso   1.000  H
  C305     1.0000 0.92379  0.81641  0.09940  Biso   1.000  C
  C306     1.0000 0.93359  0.17379  0.34940  Biso   1.000  C
  C307     1.0000 0.07621  0.68359  0.09940  Biso   1.000  C
  C308     1.0000 0.06641  0.32621  0.34940  Biso   1.000  C
  C309     1.0000 0.42379  0.31641  0.59940  Biso   1.000  C
  C310     1.0000 0.43359  0.67379  0.84940  Biso   1.000  C
  C311     1.0000 0.57621  0.18359  0.59940  Biso   1.000  C
  C312     1.0000 0.56641  0.82621  0.84940  Biso   1.000  C
  C313     1.0000 0.07621  0.18359  0.90060  Biso   1.000  C
  C314     1.0000 0.56641  0.32621  0.15060  Biso   1.000  C
  C315     1.0000 0.92379  0.31641  0.90060  Biso   1.000  C
  C316     1.0000 0.43359  0.17379  0.15060  Biso   1.000  C
  C317     1.0000 0.57621  0.68359  0.40060  Biso   1.000  C
  C318     1.0000 0.06641  0.82621  0.65060  Biso   1.000  C
  C319     1.0000 0.42379  0.81641  0.40060  Biso   1.000  C
  C320     1.0000 0.93359  0.67379  0.65060  Biso   1.000  C
  C321     1.0000 0.90268  0.82424  0.89730  Biso   1.000  C
  C322     1.0000 0.92576  0.15268  0.14730  Biso   1.000  C
  C323     1.0000 0.09732  0.67576  0.89730  Biso   1.000  C
  C324     1.0000 0.07424  0.34732  0.14730  Biso   1.000  C
  C325     1.0000 0.40268  0.32424  0.39730  Biso   1.000  C
  C326     1.0000 0.42576  0.65268  0.64730  Biso   1.000  C
  C327     1.0000 0.59732  0.17576  0.39730  Biso   1.000  C
  C328     1.0000 0.57424  0.84732  0.64730  Biso   1.000  C
  C329     1.0000 0.09732  0.17576  0.10270  Biso   1.000  C
  C330     1.0000 0.57424  0.34732  0.35270  Biso   1.000  C
  C331     1.0000 0.90268  0.32424  0.10270  Biso   1.000  C
  C332     1.0000 0.42576  0.15268  0.35270  Biso   1.000  C
  C333     1.0000 0.59732  0.67576  0.60270  Biso   1.000  C
  C334     1.0000 0.07424  0.84732  0.85270  Biso   1.000  C
  C335     1.0000 0.40268  0.82424  0.60270  Biso   1.000  C
  C336     1.0000 0.92576  0.65268  0.85270  Biso   1.000  C
  C337     1.0000 0.94084  0.85632  0.21730  Biso   1.000  C
  C338     1.0000 0.89368  0.19084  0.46730  Biso   1.000  C
  C339     1.0000 0.05916  0.64368  0.21730  Biso   1.000  C
  C340     1.0000 0.10632  0.30916  0.46730  Biso   1.000  C
  C341     1.0000 0.44084  0.35632  0.71730  Biso   1.000  C
  C342     1.0000 0.39368  0.69084  0.96730  Biso   1.000  C
  C343     1.0000 0.55916  0.14368  0.71730  Biso   1.000  C
  C344     1.0000 0.60632  0.80916  0.96730  Biso   1.000  C
  C345     1.0000 0.05916  0.14368  0.78270  Biso   1.000  C
  C346     1.0000 0.60632  0.30916  0.03270  Biso   1.000  C
  C347     1.0000 0.94084  0.35632  0.78270  Biso   1.000  C
  C348     1.0000 0.39368  0.19084  0.03270  Biso   1.000  C
  C349     1.0000 0.55916  0.64368  0.28270  Biso   1.000  C
  C350     1.0000 0.10632  0.80916  0.53270  Biso   1.000  C
  C351     1.0000 0.44084  0.85632  0.28270  Biso   1.000  C
  C352     1.0000 0.89368  0.69084  0.53270  Biso   1.000  C
  N65      1.0000 0.99174  0.89406  0.12450  Biso   1.000  N
  N66      1.0000 0.85594  0.24174  0.37450  Biso   1.000  N
  N67      1.0000 0.00826  0.60594  0.12450  Biso   1.000  N
  N68      1.0000 0.14406  0.25826  0.37450  Biso   1.000  N
  N69      1.0000 0.49174  0.39406  0.62450  Biso   1.000  N
  N70      1.0000 0.35594  0.74174  0.87450  Biso   1.000  N
  N71      1.0000 0.50826  0.10594  0.62450  Biso   1.000  N
  N72      1.0000 0.64406  0.75826  0.87450  Biso   1.000  N
  N73      1.0000 0.00826  0.10594  0.87550  Biso   1.000  N
  N74      1.0000 0.64406  0.25826  0.12550  Biso   1.000  N
  N75      1.0000 0.99174  0.39406  0.87550  Biso   1.000  N
  N76      1.0000 0.35594  0.24174  0.12550  Biso   1.000  N
  N77      1.0000 0.50826  0.60594  0.37550  Biso   1.000  N
  N78      1.0000 0.14406  0.75826  0.62550  Biso   1.000  N
  N79      1.0000 0.49174  0.89406  0.37550  Biso   1.000  N
  N80      1.0000 0.85594  0.74174  0.62550  Biso   1.000  N
  N81      1.0000 0.97076  0.91754  0.32970  Biso   1.000  N
  N82      1.0000 0.83246  0.22076  0.57970  Biso   1.000  N
  N83      1.0000 0.02924  0.58246  0.32970  Biso   1.000  N
  N84      1.0000 0.16754  0.27924  0.57970  Biso   1.000  N
  N85      1.0000 0.47076  0.41754  0.82970  Biso   1.000  N
  N86      1.0000 0.33246  0.72076  0.07970  Biso   1.000  N
  N87      1.0000 0.52924  0.08246  0.82970  Biso   1.000  N
  N88      1.0000 0.66754  0.77924  0.07970  Biso   1.000  N
  N89      1.0000 0.02924  0.08246  0.67030  Biso   1.000  N
  N90      1.0000 0.66754  0.27924  0.92030  Biso   1.000  N
  N91      1.0000 0.97076  0.41754  0.67030  Biso   1.000  N
  N92      1.0000 0.33246  0.22076  0.92030  Biso   1.000  N
  N93      1.0000 0.52924  0.58246  0.17030  Biso   1.000  N
  N94      1.0000 0.16754  0.77924  0.42030  Biso   1.000  N
  N95      1.0000 0.47076  0.91754  0.17030  Biso   1.000  N
  N96      1.0000 0.83246  0.72076  0.42030  Biso   1.000  N
  N97      1.0000 0.97094  0.95798  0.11670  Biso   1.000  N
  N98      1.0000 0.79202  0.22094  0.36670  Biso   1.000  N
  N99      1.0000 0.02906  0.54202  0.11670  Biso   1.000  N
  N100     1.0000 0.20798  0.27906  0.36670  Biso   1.000  N
  N101     1.0000 0.47094  0.45798  0.61670  Biso   1.000  N
  N102     1.0000 0.29202  0.72094  0.86670  Biso   1.000  N
  N103     1.0000 0.52906  0.04202  0.61670  Biso   1.000  N
  N104     1.0000 0.70798  0.77906  0.86670  Biso   1.000  N
  N105     1.0000 0.02906  0.04202  0.88330  Biso   1.000  N
  N106     1.0000 0.70798  0.27906  0.13330  Biso   1.000  N
  N107     1.0000 0.97094  0.45798  0.88330  Biso   1.000  N
  N108     1.0000 0.29202  0.22094  0.13330  Biso   1.000  N
  N109     1.0000 0.52906  0.54202  0.38330  Biso   1.000  N
  N110     1.0000 0.20798  0.77906  0.63330  Biso   1.000  N
  N111     1.0000 0.47094  0.95798  0.38330  Biso   1.000  N
  N112     1.0000 0.79202  0.72094  0.63330  Biso   1.000  N
  N113     1.0000 0.91588  0.93933  0.15370  Biso   1.000  N
  N114     1.0000 0.81067  0.16588  0.40370  Biso   1.000  N
  N115     1.0000 0.08412  0.56067  0.15370  Biso   1.000  N
  N116     1.0000 0.18933  0.33412  0.40370  Biso   1.000  N
  N117     1.0000 0.41588  0.43933  0.65370  Biso   1.000  N
  N118     1.0000 0.31067  0.66588  0.90370  Biso   1.000  N
  N119     1.0000 0.58412  0.06067  0.65370  Biso   1.000  N
  N120     1.0000 0.68933  0.83412  0.90370  Biso   1.000  N
  N121     1.0000 0.08412  0.06067  0.84630  Biso   1.000  N
  N122     1.0000 0.68933  0.33412  0.09630  Biso   1.000  N
  N123     1.0000 0.91588  0.43933  0.84630  Biso   1.000  N
  N124     1.0000 0.31067  0.16588  0.09630  Biso   1.000  N
  N125     1.0000 0.58412  0.56067  0.34630  Biso   1.000  N
  N126     1.0000 0.18933  0.83412  0.59630  Biso   1.000  N
  N127     1.0000 0.41588  0.93933  0.34630  Biso   1.000  N
  N128     1.0000 0.81067  0.66588  0.59630  Biso   1.000  N
  C353     1.0000 0.87935  0.96434  0.40170  Biso   1.000  C
  C354     1.0000 0.78566  0.12935  0.65170  Biso   1.000  C
  C355     1.0000 0.12065  0.53566  0.40170  Biso   1.000  C
  C356     1.0000 0.21434  0.37065  0.65170  Biso   1.000  C
  C357     1.0000 0.37935  0.46434  0.90170  Biso   1.000  C
  C358     1.0000 0.28566  0.62935  0.15170  Biso   1.000  C
  C359     1.0000 0.62065  0.03566  0.90170  Biso   1.000  C
  C360     1.0000 0.71434  0.87065  0.15170  Biso   1.000  C
  C361     1.0000 0.12065  0.03566  0.59830  Biso   1.000  C
  C362     1.0000 0.71434  0.37065  0.84830  Biso   1.000  C
  C363     1.0000 0.87935  0.46434  0.59830  Biso   1.000  C
  C364     1.0000 0.28566  0.12935  0.84830  Biso   1.000  C
  C365     1.0000 0.62065  0.53566  0.09830  Biso   1.000  C
  C366     1.0000 0.21434  0.87065  0.34830  Biso   1.000  C
  C367     1.0000 0.37935  0.96434  0.09830  Biso   1.000  C
  C368     1.0000 0.78566  0.62935  0.34830  Biso   1.000  C
  H289     1.0000 0.88460  0.92530  0.48390  Biso   1.000  H
  H290     1.0000 0.82470  0.13460  0.73390  Biso   1.000  H
  H291     1.0000 0.11540  0.57470  0.48390  Biso   1.000  H
  H292     1.0000 0.17530  0.36540  0.73390  Biso   1.000  H
  H293     1.0000 0.38460  0.42530  0.98390  Biso   1.000  H
  H294     1.0000 0.32470  0.63460  0.23390  Biso   1.000  H
  H295     1.0000 0.61540  0.07470  0.98390  Biso   1.000  H
  H296     1.0000 0.67530  0.86540  0.23390  Biso   1.000  H
  H297     1.0000 0.11540  0.07470  0.51610  Biso   1.000  H
  H298     1.0000 0.67530  0.36540  0.76610  Biso   1.000  H
  H299     1.0000 0.88460  0.42530  0.51610  Biso   1.000  H
  H300     1.0000 0.32470  0.13460  0.76610  Biso   1.000  H
  H301     1.0000 0.61540  0.57470  0.01610  Biso   1.000  H
  H302     1.0000 0.17530  0.86540  0.26610  Biso   1.000  H
  H303     1.0000 0.38460  0.92530  0.01610  Biso   1.000  H
  H304     1.0000 0.82470  0.63460  0.26610  Biso   1.000  H
  H305     1.0000 0.86350  0.99940  0.31520  Biso   1.000  H
  H306     1.0000 0.75060  0.11350  0.56520  Biso   1.000  H
  H307     1.0000 0.13650  0.50060  0.31520  Biso   1.000  H
  H308     1.0000 0.24940  0.38650  0.56520  Biso   1.000  H
  H309     1.0000 0.36350  0.49940  0.81520  Biso   1.000  H
  H310     1.0000 0.25060  0.61350  0.06520  Biso   1.000  H
  H311     1.0000 0.63650  0.00060  0.81520  Biso   1.000  H
  H312     1.0000 0.74940  0.88650  0.06520  Biso   1.000  H
  H313     1.0000 0.13650  0.00060  0.68480  Biso   1.000  H
  H314     1.0000 0.74940  0.38650  0.93480  Biso   1.000  H
  H315     1.0000 0.86350  0.49940  0.68480  Biso   1.000  H
  H316     1.0000 0.25060  0.11350  0.93480  Biso   1.000  H
  H317     1.0000 0.63650  0.50060  0.18480  Biso   1.000  H
  H318     1.0000 0.24940  0.88650  0.43480  Biso   1.000  H
  H319     1.0000 0.36350  0.99940  0.18480  Biso   1.000  H
  H320     1.0000 0.75060  0.61350  0.43480  Biso   1.000  H
  C369     1.0000 0.93616  0.82676  0.20310  Biso   1.000  C
  C370     1.0000 0.92324  0.18616  0.45310  Biso   1.000  C
  C371     1.0000 0.06384  0.67324  0.20310  Biso   1.000  C
  C372     1.0000 0.07676  0.31384  0.45310  Biso   1.000  C
  C373     1.0000 0.43616  0.32676  0.70310  Biso   1.000  C
  C374     1.0000 0.42324  0.68616  0.95310  Biso   1.000  C
  C375     1.0000 0.56384  0.17324  0.70310  Biso   1.000  C
  C376     1.0000 0.57676  0.81384  0.95310  Biso   1.000  C
  C377     1.0000 0.06384  0.17324  0.79690  Biso   1.000  C
  C378     1.0000 0.57676  0.31384  0.04690  Biso   1.000  C
  C379     1.0000 0.93616  0.32676  0.79690  Biso   1.000  C
  C380     1.0000 0.42324  0.18616  0.04690  Biso   1.000  C
  C381     1.0000 0.56384  0.67324  0.29690  Biso   1.000  C
  C382     1.0000 0.07676  0.81384  0.54690  Biso   1.000  C
  C383     1.0000 0.43616  0.82676  0.29690  Biso   1.000  C
  C384     1.0000 0.92324  0.68616  0.54690  Biso   1.000  C
  H321     1.0000 0.92060  0.79630  0.08870  Biso   1.000  H
  H322     1.0000 0.95370  0.17060  0.33870  Biso   1.000  H
  H323     1.0000 0.07940  0.70370  0.08870  Biso   1.000  H
  H324     1.0000 0.04630  0.32940  0.33870  Biso   1.000  H
  H325     1.0000 0.42060  0.29630  0.58870  Biso   1.000  H
  H326     1.0000 0.45370  0.67060  0.83870  Biso   1.000  H
  H327     1.0000 0.57940  0.20370  0.58870  Biso   1.000  H
  H328     1.0000 0.54630  0.82940  0.83870  Biso   1.000  H
  H329     1.0000 0.07940  0.20370  0.91130  Biso   1.000  H
  H330     1.0000 0.54630  0.32940  0.16130  Biso   1.000  H
  H331     1.0000 0.92060  0.29630  0.91130  Biso   1.000  H
  H332     1.0000 0.45370  0.17060  0.16130  Biso   1.000  H
  H333     1.0000 0.57940  0.70370  0.41130  Biso   1.000  H
  H334     1.0000 0.04630  0.82940  0.66130  Biso   1.000  H
  H335     1.0000 0.42060  0.79630  0.41130  Biso   1.000  H
  H336     1.0000 0.95370  0.67060  0.66130  Biso   1.000  H
  O289     1.0000 0.88196  0.80608  0.90980  Biso   1.000  O
  O290     1.0000 0.94392  0.13196  0.15980  Biso   1.000  O
  O291     1.0000 0.11804  0.69392  0.90980  Biso   1.000  O
  O292     1.0000 0.05608  0.36804  0.15980  Biso   1.000  O
  O293     1.0000 0.38196  0.30608  0.40980  Biso   1.000  O
  O294     1.0000 0.44392  0.63196  0.65980  Biso   1.000  O
  O295     1.0000 0.61804  0.19392  0.40980  Biso   1.000  O
  O296     1.0000 0.55608  0.86804  0.65980  Biso   1.000  O
  O297     1.0000 0.11804  0.19392  0.09020  Biso   1.000  O
  O298     1.0000 0.55608  0.36804  0.34020  Biso   1.000  O
  O299     1.0000 0.88196  0.30608  0.09020  Biso   1.000  O
  O300     1.0000 0.44392  0.13196  0.34020  Biso   1.000  O
  O301     1.0000 0.61804  0.69392  0.59020  Biso   1.000  O
  O302     1.0000 0.05608  0.86804  0.84020  Biso   1.000  O
  O303     1.0000 0.38196  0.80608  0.59020  Biso   1.000  O
  O304     1.0000 0.94392  0.63196  0.84020  Biso   1.000  O
  O305     1.0000 0.91277  0.83376  0.80130  Biso   1.000  O
  O306     1.0000 0.91624  0.16277  0.05130  Biso   1.000  O
  O307     1.0000 0.08723  0.66624  0.80130  Biso   1.000  O
  O308     1.0000 0.08376  0.33723  0.05130  Biso   1.000  O
  O309     1.0000 0.41277  0.33376  0.30130  Biso   1.000  O
  O310     1.0000 0.41624  0.66277  0.55130  Biso   1.000  O
  O311     1.0000 0.58723  0.16624  0.30130  Biso   1.000  O
  O312     1.0000 0.58376  0.83723  0.55130  Biso   1.000  O
  O313     1.0000 0.08723  0.16624  0.19870  Biso   1.000  O
  O314     1.0000 0.58376  0.33723  0.44870  Biso   1.000  O
  O315     1.0000 0.91277  0.33376  0.19870  Biso   1.000  O
  O316     1.0000 0.41624  0.16277  0.44870  Biso   1.000  O
  O317     1.0000 0.58723  0.66624  0.69870  Biso   1.000  O
  O318     1.0000 0.08376  0.83723  0.94870  Biso   1.000  O
  O319     1.0000 0.41277  0.83376  0.69870  Biso   1.000  O
  O320     1.0000 0.91624  0.66277  0.94870  Biso   1.000  O
  H337     1.0000 0.94890  0.86320  0.28770  Biso   1.000  H
  H338     1.0000 0.88680  0.19890  0.53770  Biso   1.000  H
  H339     1.0000 0.05110  0.63680  0.28770  Biso   1.000  H
  H340     1.0000 0.11320  0.30110  0.53770  Biso   1.000  H
  H341     1.0000 0.44890  0.36320  0.78770  Biso   1.000  H
  H342     1.0000 0.38680  0.69890  0.03770  Biso   1.000  H
  H343     1.0000 0.55110  0.13680  0.78770  Biso   1.000  H
  H344     1.0000 0.61320  0.80110  0.03770  Biso   1.000  H
  H345     1.0000 0.05110  0.13680  0.71230  Biso   1.000  H
  H346     1.0000 0.61320  0.30110  0.96230  Biso   1.000  H
  H347     1.0000 0.94890  0.36320  0.71230  Biso   1.000  H
  H348     1.0000 0.38680  0.19890  0.96230  Biso   1.000  H
  H349     1.0000 0.55110  0.63680  0.21230  Biso   1.000  H
  H350     1.0000 0.11320  0.80110  0.46230  Biso   1.000  H
  H351     1.0000 0.44890  0.86320  0.21230  Biso   1.000  H
  H352     1.0000 0.88680  0.69890  0.46230  Biso   1.000  H
  C385     1.0000 0.99619  0.87412  0.03730  Biso   1.000  C
  C386     1.0000 0.87588  0.24619  0.28730  Biso   1.000  C
  C387     1.0000 0.00381  0.62588  0.03730  Biso   1.000  C
  C388     1.0000 0.12412  0.25381  0.28730  Biso   1.000  C
  C389     1.0000 0.49619  0.37412  0.53730  Biso   1.000  C
  C390     1.0000 0.37588  0.74619  0.78730  Biso   1.000  C
  C391     1.0000 0.50381  0.12588  0.53730  Biso   1.000  C
  C392     1.0000 0.62412  0.75381  0.78730  Biso   1.000  C
  C393     1.0000 0.00381  0.12588  0.96270  Biso   1.000  C
  C394     1.0000 0.62412  0.25381  0.21270  Biso   1.000  C
  C395     1.0000 0.99619  0.37412  0.96270  Biso   1.000  C
  C396     1.0000 0.37588  0.24619  0.21270  Biso   1.000  C
  C397     1.0000 0.50381  0.62588  0.46270  Biso   1.000  C
  C398     1.0000 0.12412  0.75381  0.71270  Biso   1.000  C
  C399     1.0000 0.49619  0.87412  0.46270  Biso   1.000  C
  C400     1.0000 0.87588  0.74619  0.71270  Biso   1.000  C
  C401     1.0000 0.00765  0.89190  0.22580  Biso   1.000  C
  C402     1.0000 0.85810  0.25765  0.47580  Biso   1.000  C
  C403     1.0000 0.99235  0.60810  0.22580  Biso   1.000  C
  C404     1.0000 0.14190  0.24235  0.47580  Biso   1.000  C
  C405     1.0000 0.50765  0.39190  0.72580  Biso   1.000  C
  C406     1.0000 0.35810  0.75765  0.97580  Biso   1.000  C
  C407     1.0000 0.49235  0.10810  0.72580  Biso   1.000  C
  C408     1.0000 0.64190  0.74235  0.97580  Biso   1.000  C
  C409     1.0000 0.99235  0.10810  0.77420  Biso   1.000  C
  C410     1.0000 0.64190  0.24235  0.02420  Biso   1.000  C
  C411     1.0000 0.00765  0.39190  0.77420  Biso   1.000  C
  C412     1.0000 0.35810  0.25765  0.02420  Biso   1.000  C
  C413     1.0000 0.49235  0.60810  0.27420  Biso   1.000  C
  C414     1.0000 0.14190  0.74235  0.52420  Biso   1.000  C
  C415     1.0000 0.50765  0.89190  0.27420  Biso   1.000  C
  C416     1.0000 0.85810  0.75765  0.52420  Biso   1.000  C
  C417     1.0000 0.99975  0.91436  0.31670  Biso   1.000  C
  C418     1.0000 0.83564  0.24975  0.56670  Biso   1.000  C
  C419     1.0000 0.00025  0.58564  0.31670  Biso   1.000  C
  C420     1.0000 0.16436  0.25025  0.56670  Biso   1.000  C
  C421     1.0000 0.49975  0.41436  0.81670  Biso   1.000  C
  C422     1.0000 0.33564  0.74975  0.06670  Biso   1.000  C
  C423     1.0000 0.50025  0.08564  0.81670  Biso   1.000  C
  C424     1.0000 0.66436  0.75025  0.06670  Biso   1.000  C
  C425     1.0000 0.00025  0.08564  0.68330  Biso   1.000  C
  C426     1.0000 0.66436  0.25025  0.93330  Biso   1.000  C
  C427     1.0000 0.99975  0.41436  0.68330  Biso   1.000  C
  C428     1.0000 0.33564  0.24975  0.93330  Biso   1.000  C
  C429     1.0000 0.50025  0.58564  0.18330  Biso   1.000  C
  C430     1.0000 0.16436  0.75025  0.43330  Biso   1.000  C
  C431     1.0000 0.49975  0.91436  0.18330  Biso   1.000  C
  C432     1.0000 0.83564  0.74975  0.43330  Biso   1.000  C
  C433     1.0000 0.96096  0.93651  0.41170  Biso   1.000  C
  C434     1.0000 0.81349  0.21096  0.66170  Biso   1.000  C
  C435     1.0000 0.03904  0.56349  0.41170  Biso   1.000  C
  C436     1.0000 0.18651  0.28904  0.66170  Biso   1.000  C
  C437     1.0000 0.46096  0.43651  0.91170  Biso   1.000  C
  C438     1.0000 0.31349  0.71096  0.16170  Biso   1.000  C
  C439     1.0000 0.53904  0.06349  0.91170  Biso   1.000  C
  C440     1.0000 0.68651  0.78904  0.16170  Biso   1.000  C
  C441     1.0000 0.03904  0.06349  0.58830  Biso   1.000  C
  C442     1.0000 0.68651  0.28904  0.83830  Biso   1.000  C
  C443     1.0000 0.96096  0.43651  0.58830  Biso   1.000  C
  C444     1.0000 0.31349  0.21096  0.83830  Biso   1.000  C
  C445     1.0000 0.53904  0.56349  0.08830  Biso   1.000  C
  C446     1.0000 0.18651  0.78904  0.33830  Biso   1.000  C
  C447     1.0000 0.46096  0.93651  0.08830  Biso   1.000  C
  C448     1.0000 0.81349  0.71096  0.33830  Biso   1.000  C
  C449     1.0000 0.99958  0.96506  0.11760  Biso   1.000  C
  C450     1.0000 0.78494  0.24958  0.36760  Biso   1.000  C
  C451     1.0000 0.00042  0.53494  0.11760  Biso   1.000  C
  C452     1.0000 0.21506  0.25042  0.36760  Biso   1.000  C
  C453     1.0000 0.49958  0.46506  0.61760  Biso   1.000  C
  C454     1.0000 0.28494  0.74958  0.86760  Biso   1.000  C
  C455     1.0000 0.50042  0.03494  0.61760  Biso   1.000  C
  C456     1.0000 0.71506  0.75042  0.86760  Biso   1.000  C
  C457     1.0000 0.00042  0.03494  0.88240  Biso   1.000  C
  C458     1.0000 0.71506  0.25042  0.13240  Biso   1.000  C
  C459     1.0000 0.99958  0.46506  0.88240  Biso   1.000  C
  C460     1.0000 0.28494  0.24958  0.13240  Biso   1.000  C
  C461     1.0000 0.50042  0.53494  0.38240  Biso   1.000  C
  C462     1.0000 0.21506  0.75042  0.63240  Biso   1.000  C
  C463     1.0000 0.49958  0.96506  0.38240  Biso   1.000  C
  C464     1.0000 0.78494  0.74958  0.63240  Biso   1.000  C
  C465     1.0000 0.95022  0.97850  0.14670  Biso   1.000  C
  C466     1.0000 0.77150  0.20022  0.39670  Biso   1.000  C
  C467     1.0000 0.04978  0.52150  0.14670  Biso   1.000  C
  C468     1.0000 0.22850  0.29978  0.39670  Biso   1.000  C
  C469     1.0000 0.45022  0.47850  0.64670  Biso   1.000  C
  C470     1.0000 0.27150  0.70022  0.89670  Biso   1.000  C
  C471     1.0000 0.54978  0.02150  0.64670  Biso   1.000  C
  C472     1.0000 0.72850  0.79978  0.89670  Biso   1.000  C
  C473     1.0000 0.04978  0.02150  0.85330  Biso   1.000  C
  C474     1.0000 0.72850  0.29978  0.10330  Biso   1.000  C
  C475     1.0000 0.95022  0.47850  0.85330  Biso   1.000  C
  C476     1.0000 0.27150  0.20022  0.10330  Biso   1.000  C
  C477     1.0000 0.54978  0.52150  0.35330  Biso   1.000  C
  C478     1.0000 0.22850  0.79978  0.60330  Biso   1.000  C
  C479     1.0000 0.45022  0.97850  0.35330  Biso   1.000  C
  C480     1.0000 0.77150  0.70022  0.60330  Biso   1.000  C
  C481     1.0000 0.91968  0.96827  0.12680  Biso   1.000  C
  C482     1.0000 0.78173  0.16968  0.37680  Biso   1.000  C
  C483     1.0000 0.08032  0.53173  0.12680  Biso   1.000  C
  C484     1.0000 0.21827  0.33032  0.37680  Biso   1.000  C
  C485     1.0000 0.41968  0.46827  0.62680  Biso   1.000  C
  C486     1.0000 0.28173  0.66968  0.87680  Biso   1.000  C
  C487     1.0000 0.58032  0.03173  0.62680  Biso   1.000  C
  C488     1.0000 0.71827  0.83032  0.87680  Biso   1.000  C
  C489     1.0000 0.08032  0.03173  0.87320  Biso   1.000  C
  C490     1.0000 0.71827  0.33032  0.12320  Biso   1.000  C
  C491     1.0000 0.91968  0.46827  0.87320  Biso   1.000  C
  C492     1.0000 0.28173  0.16968  0.12320  Biso   1.000  C
  C493     1.0000 0.58032  0.53173  0.37320  Biso   1.000  C
  C494     1.0000 0.21827  0.83032  0.62320  Biso   1.000  C
  C495     1.0000 0.41968  0.96827  0.37320  Biso   1.000  C
  C496     1.0000 0.78173  0.66968  0.62320  Biso   1.000  C
  C497     1.0000 0.88867  0.92754  0.14600  Biso   1.000  C
  C498     1.0000 0.82246  0.13867  0.39600  Biso   1.000  C
  C499     1.0000 0.11133  0.57246  0.14600  Biso   1.000  C
  C500     1.0000 0.17754  0.36133  0.39600  Biso   1.000  C
  C501     1.0000 0.38867  0.42754  0.64600  Biso   1.000  C
  C502     1.0000 0.32246  0.63867  0.89600  Biso   1.000  C
  C503     1.0000 0.61133  0.07246  0.64600  Biso   1.000  C
  C504     1.0000 0.67754  0.86133  0.89600  Biso   1.000  C
  C505     1.0000 0.11133  0.07246  0.85400  Biso   1.000  C
  C506     1.0000 0.67754  0.36133  0.10400  Biso   1.000  C
  C507     1.0000 0.88867  0.42754  0.85400  Biso   1.000  C
  C508     1.0000 0.32246  0.13867  0.10400  Biso   1.000  C
  C509     1.0000 0.61133  0.57246  0.35400  Biso   1.000  C
  C510     1.0000 0.17754  0.86133  0.60400  Biso   1.000  C
  C511     1.0000 0.38867  0.92754  0.35400  Biso   1.000  C
  C512     1.0000 0.82246  0.63867  0.60400  Biso   1.000  C
  H353     1.0000 0.89900  0.97010  0.40120  Biso   1.000  H
  H354     1.0000 0.77990  0.14900  0.65120  Biso   1.000  H
  H355     1.0000 0.10100  0.52990  0.40120  Biso   1.000  H
  H356     1.0000 0.22010  0.35100  0.65120  Biso   1.000  H
  H357     1.0000 0.39900  0.47010  0.90120  Biso   1.000  H
  H358     1.0000 0.27990  0.64900  0.15120  Biso   1.000  H
  H359     1.0000 0.60100  0.02990  0.90120  Biso   1.000  H
  H360     1.0000 0.72010  0.85100  0.15120  Biso   1.000  H
  H361     1.0000 0.10100  0.02990  0.59880  Biso   1.000  H
  H362     1.0000 0.72010  0.35100  0.84880  Biso   1.000  H
  H363     1.0000 0.89900  0.47010  0.59880  Biso   1.000  H
  H364     1.0000 0.27990  0.14900  0.84880  Biso   1.000  H
  H365     1.0000 0.60100  0.52990  0.09880  Biso   1.000  H
  H366     1.0000 0.22010  0.85100  0.34880  Biso   1.000  H
  H367     1.0000 0.39900  0.97010  0.09880  Biso   1.000  H
  H368     1.0000 0.77990  0.64900  0.34880  Biso   1.000  H
  H369     1.0000 0.94130  0.81370  0.26300  Biso   1.000  H
  H370     1.0000 0.93630  0.19130  0.51300  Biso   1.000  H
  H371     1.0000 0.05870  0.68630  0.26300  Biso   1.000  H
  H372     1.0000 0.06370  0.30870  0.51300  Biso   1.000  H
  H373     1.0000 0.44130  0.31370  0.76300  Biso   1.000  H
  H374     1.0000 0.43630  0.69130  0.01300  Biso   1.000  H
  H375     1.0000 0.55870  0.18630  0.76300  Biso   1.000  H
  H376     1.0000 0.56370  0.80870  0.01300  Biso   1.000  H
  H377     1.0000 0.05870  0.18630  0.73700  Biso   1.000  H
  H378     1.0000 0.56370  0.30870  0.98700  Biso   1.000  H
  H379     1.0000 0.94130  0.31370  0.73700  Biso   1.000  H
  H380     1.0000 0.43630  0.19130  0.98700  Biso   1.000  H
  H381     1.0000 0.55870  0.68630  0.23700  Biso   1.000  H
  H382     1.0000 0.06370  0.80870  0.48700  Biso   1.000  H
  H383     1.0000 0.44130  0.81370  0.23700  Biso   1.000  H
  H384     1.0000 0.93630  0.69130  0.48700  Biso   1.000  H
  C513     1.0000 0.01538  0.85118  0.04920  Biso   1.000  C
  C514     1.0000 0.89882  0.26538  0.29920  Biso   1.000  C
  C515     1.0000 0.98462  0.64882  0.04920  Biso   1.000  C
  C516     1.0000 0.10118  0.23462  0.29920  Biso   1.000  C
  C517     1.0000 0.51538  0.35118  0.54920  Biso   1.000  C
  C518     1.0000 0.39882  0.76538  0.79920  Biso   1.000  C
  C519     1.0000 0.48462  0.14882  0.54920  Biso   1.000  C
  C520     1.0000 0.60118  0.73462  0.79920  Biso   1.000  C
  C521     1.0000 0.98462  0.14882  0.95080  Biso   1.000  C
  C522     1.0000 0.60118  0.23462  0.20080  Biso   1.000  C
  C523     1.0000 0.01538  0.35118  0.95080  Biso   1.000  C
  C524     1.0000 0.39882  0.26538  0.20080  Biso   1.000  C
  C525     1.0000 0.48462  0.64882  0.45080  Biso   1.000  C
  C526     1.0000 0.10118  0.73462  0.70080  Biso   1.000  C
  C527     1.0000 0.51538  0.85118  0.45080  Biso   1.000  C
  C528     1.0000 0.89882  0.76538  0.70080  Biso   1.000  C
  H385     1.0000 0.98580  0.87610  0.96670  Biso   1.000  H
  H386     1.0000 0.87390  0.23580  0.21670  Biso   1.000  H
  H387     1.0000 0.01420  0.62390  0.96670  Biso   1.000  H
  H388     1.0000 0.12610  0.26420  0.21670  Biso   1.000  H
  H389     1.0000 0.48580  0.37610  0.46670  Biso   1.000  H
  H390     1.0000 0.37390  0.73580  0.71670  Biso   1.000  H
  H391     1.0000 0.51420  0.12390  0.46670  Biso   1.000  H
  H392     1.0000 0.62610  0.76420  0.71670  Biso   1.000  H
  H393     1.0000 0.01420  0.12390  0.03330  Biso   1.000  H
  H394     1.0000 0.62610  0.26420  0.28330  Biso   1.000  H
  H395     1.0000 0.98580  0.37610  0.03330  Biso   1.000  H
  H396     1.0000 0.37390  0.23580  0.28330  Biso   1.000  H
  H397     1.0000 0.51420  0.62390  0.53330  Biso   1.000  H
  H398     1.0000 0.12610  0.76420  0.78330  Biso   1.000  H
  H399     1.0000 0.48580  0.87610  0.53330  Biso   1.000  H
  H400     1.0000 0.87390  0.73580  0.78330  Biso   1.000  H
  C529     1.0000 0.02757  0.86879  0.24250  Biso   1.000  C
  C530     1.0000 0.88121  0.27757  0.49250  Biso   1.000  C
  C531     1.0000 0.97243  0.63121  0.24250  Biso   1.000  C
  C532     1.0000 0.11879  0.22243  0.49250  Biso   1.000  C
  C533     1.0000 0.52757  0.36879  0.74250  Biso   1.000  C
  C534     1.0000 0.38121  0.77757  0.99250  Biso   1.000  C
  C535     1.0000 0.47243  0.13121  0.74250  Biso   1.000  C
  C536     1.0000 0.61879  0.72243  0.99250  Biso   1.000  C
  C537     1.0000 0.97243  0.13121  0.75750  Biso   1.000  C
  C538     1.0000 0.61879  0.22243  0.00750  Biso   1.000  C
  C539     1.0000 0.02757  0.36879  0.75750  Biso   1.000  C
  C540     1.0000 0.38121  0.27757  0.00750  Biso   1.000  C
  C541     1.0000 0.47243  0.63121  0.25750  Biso   1.000  C
  C542     1.0000 0.11879  0.72243  0.50750  Biso   1.000  C
  C543     1.0000 0.52757  0.86879  0.25750  Biso   1.000  C
  C544     1.0000 0.88121  0.77757  0.50750  Biso   1.000  C
  C545     1.0000 0.02010  0.93151  0.38010  Biso   1.000  C
  C546     1.0000 0.81849  0.27010  0.63010  Biso   1.000  C
  C547     1.0000 0.97990  0.56849  0.38010  Biso   1.000  C
  C548     1.0000 0.18151  0.22990  0.63010  Biso   1.000  C
  C549     1.0000 0.52010  0.43151  0.88010  Biso   1.000  C
  C550     1.0000 0.31849  0.77010  0.13010  Biso   1.000  C
  C551     1.0000 0.47990  0.06849  0.88010  Biso   1.000  C
  C552     1.0000 0.68151  0.72990  0.13010  Biso   1.000  C
  C553     1.0000 0.97990  0.06849  0.61990  Biso   1.000  C
  C554     1.0000 0.68151  0.22990  0.86990  Biso   1.000  C
  C555     1.0000 0.02010  0.43151  0.61990  Biso   1.000  C
  C556     1.0000 0.31849  0.27010  0.86990  Biso   1.000  C
  C557     1.0000 0.47990  0.56849  0.11990  Biso   1.000  C
  C558     1.0000 0.18151  0.72990  0.36990  Biso   1.000  C
  C559     1.0000 0.52010  0.93151  0.11990  Biso   1.000  C
  C560     1.0000 0.81849  0.77010  0.36990  Biso   1.000  C
  H401     1.0000 0.94070  0.93890  0.42040  Biso   1.000  H
  H402     1.0000 0.81110  0.19070  0.67040  Biso   1.000  H
  H403     1.0000 0.05930  0.56110  0.42040  Biso   1.000  H
  H404     1.0000 0.18890  0.30930  0.67040  Biso   1.000  H
  H405     1.0000 0.44070  0.43890  0.92040  Biso   1.000  H
  H406     1.0000 0.31110  0.69070  0.17040  Biso   1.000  H
  H407     1.0000 0.55930  0.06110  0.92040  Biso   1.000  H
  H408     1.0000 0.68890  0.80930  0.17040  Biso   1.000  H
  H409     1.0000 0.05930  0.06110  0.57960  Biso   1.000  H
  H410     1.0000 0.68890  0.30930  0.82960  Biso   1.000  H
  H411     1.0000 0.94070  0.43890  0.57960  Biso   1.000  H
  H412     1.0000 0.31110  0.19070  0.82960  Biso   1.000  H
  H413     1.0000 0.55930  0.56110  0.07960  Biso   1.000  H
  H414     1.0000 0.18890  0.80930  0.32960  Biso   1.000  H
  H415     1.0000 0.44070  0.93890  0.07960  Biso   1.000  H
  H416     1.0000 0.81110  0.69070  0.32960  Biso   1.000  H
  C561     1.0000 0.97926  0.95261  0.48340  Biso   1.000  C
  C562     1.0000 0.79739  0.22926  0.73340  Biso   1.000  C
  C563     1.0000 0.02074  0.54739  0.48340  Biso   1.000  C
  C564     1.0000 0.20261  0.27074  0.73340  Biso   1.000  C
  C565     1.0000 0.47926  0.45261  0.98340  Biso   1.000  C
  C566     1.0000 0.29739  0.72926  0.23340  Biso   1.000  C
  C567     1.0000 0.52074  0.04739  0.98340  Biso   1.000  C
  C568     1.0000 0.70261  0.77074  0.23340  Biso   1.000  C
  C569     1.0000 0.02074  0.04739  0.51660  Biso   1.000  C
  C570     1.0000 0.70261  0.27074  0.76660  Biso   1.000  C
  C571     1.0000 0.97926  0.45261  0.51660  Biso   1.000  C
  C572     1.0000 0.29739  0.22926  0.76660  Biso   1.000  C
  C573     1.0000 0.52074  0.54739  0.01660  Biso   1.000  C
  C574     1.0000 0.20261  0.77074  0.26660  Biso   1.000  C
  C575     1.0000 0.47926  0.95261  0.01660  Biso   1.000  C
  C576     1.0000 0.79739  0.72926  0.26660  Biso   1.000  C
  C577     1.0000 0.00892  0.99277  0.15200  Biso   1.000  C
  C578     1.0000 0.75723  0.25892  0.40200  Biso   1.000  C
  C579     1.0000 0.99108  0.50723  0.15200  Biso   1.000  C
  C580     1.0000 0.24277  0.24108  0.40200  Biso   1.000  C
  C581     1.0000 0.50892  0.49277  0.65200  Biso   1.000  C
  C582     1.0000 0.25723  0.75892  0.90200  Biso   1.000  C
  C583     1.0000 0.49108  0.00723  0.65200  Biso   1.000  C
  C584     1.0000 0.74277  0.74108  0.90200  Biso   1.000  C
  C585     1.0000 0.99108  0.00723  0.84800  Biso   1.000  C
  C586     1.0000 0.74277  0.24108  0.09800  Biso   1.000  C
  C587     1.0000 0.00892  0.49277  0.84800  Biso   1.000  C
  C588     1.0000 0.25723  0.25892  0.09800  Biso   1.000  C
  C589     1.0000 0.49108  0.50723  0.34800  Biso   1.000  C
  C590     1.0000 0.24277  0.74108  0.59800  Biso   1.000  C
  C591     1.0000 0.50892  0.99277  0.34800  Biso   1.000  C
  C592     1.0000 0.75723  0.75892  0.59800  Biso   1.000  C
  H417     1.0000 0.01340  0.95110  0.09460  Biso   1.000  H
  H418     1.0000 0.79890  0.26340  0.34460  Biso   1.000  H
  H419     1.0000 0.98660  0.54890  0.09460  Biso   1.000  H
  H420     1.0000 0.20110  0.23660  0.34460  Biso   1.000  H
  H421     1.0000 0.51340  0.45110  0.59460  Biso   1.000  H
  H422     1.0000 0.29890  0.76340  0.84460  Biso   1.000  H
  H423     1.0000 0.48660  0.04890  0.59460  Biso   1.000  H
  H424     1.0000 0.70110  0.73660  0.84460  Biso   1.000  H
  H425     1.0000 0.98660  0.04890  0.90540  Biso   1.000  H
  H426     1.0000 0.70110  0.23660  0.15540  Biso   1.000  H
  H427     1.0000 0.01340  0.45110  0.90540  Biso   1.000  H
  H428     1.0000 0.29890  0.26340  0.15540  Biso   1.000  H
  H429     1.0000 0.48660  0.54890  0.40540  Biso   1.000  H
  H430     1.0000 0.20110  0.73660  0.65540  Biso   1.000  H
  H431     1.0000 0.51340  0.95110  0.40540  Biso   1.000  H
  H432     1.0000 0.79890  0.76340  0.65540  Biso   1.000  H
  C593     1.0000 0.95837  0.00591  0.19360  Biso   1.000  C
  C594     1.0000 0.74409  0.20837  0.44360  Biso   1.000  C
  C595     1.0000 0.04163  0.49409  0.19360  Biso   1.000  C
  C596     1.0000 0.25591  0.29163  0.44360  Biso   1.000  C
  C597     1.0000 0.45837  0.50591  0.69360  Biso   1.000  C
  C598     1.0000 0.24409  0.70837  0.94360  Biso   1.000  C
  C599     1.0000 0.54163  0.99409  0.69360  Biso   1.000  C
  C600     1.0000 0.75591  0.79163  0.94360  Biso   1.000  C
  C601     1.0000 0.04163  0.99409  0.80640  Biso   1.000  C
  C602     1.0000 0.75591  0.29163  0.05640  Biso   1.000  C
  C603     1.0000 0.95837  0.50591  0.80640  Biso   1.000  C
  C604     1.0000 0.24409  0.20837  0.05640  Biso   1.000  C
  C605     1.0000 0.54163  0.49409  0.30640  Biso   1.000  C
  C606     1.0000 0.25591  0.79163  0.55640  Biso   1.000  C
  C607     1.0000 0.45837  0.00591  0.30640  Biso   1.000  C
  C608     1.0000 0.74409  0.70837  0.55640  Biso   1.000  C
  C609     1.0000 0.89701  0.98517  0.08010  Biso   1.000  C
  C610     1.0000 0.76483  0.14701  0.33010  Biso   1.000  C
  C611     1.0000 0.10299  0.51483  0.08010  Biso   1.000  C
  C612     1.0000 0.23517  0.35299  0.33010  Biso   1.000  C
  C613     1.0000 0.39701  0.48517  0.58010  Biso   1.000  C
  C614     1.0000 0.26483  0.64701  0.83010  Biso   1.000  C
  C615     1.0000 0.60299  0.01483  0.58010  Biso   1.000  C
  C616     1.0000 0.73517  0.85299  0.83010  Biso   1.000  C
  C617     1.0000 0.10299  0.01483  0.91990  Biso   1.000  C
  C618     1.0000 0.73517  0.35299  0.16990  Biso   1.000  C
  C619     1.0000 0.89701  0.48517  0.91990  Biso   1.000  C
  C620     1.0000 0.26483  0.14701  0.16990  Biso   1.000  C
  C621     1.0000 0.60299  0.51483  0.41990  Biso   1.000  C
  C622     1.0000 0.23517  0.85299  0.66990  Biso   1.000  C
  C623     1.0000 0.39701  0.98517  0.41990  Biso   1.000  C
  C624     1.0000 0.76483  0.64701  0.66990  Biso   1.000  C
  H433     1.0000 0.88600  0.90790  0.16720  Biso   1.000  H
  H434     1.0000 0.84210  0.13600  0.41720  Biso   1.000  H
  H435     1.0000 0.11400  0.59210  0.16720  Biso   1.000  H
  H436     1.0000 0.15790  0.36400  0.41720  Biso   1.000  H
  H437     1.0000 0.38600  0.40790  0.66720  Biso   1.000  H
  H438     1.0000 0.34210  0.63600  0.91720  Biso   1.000  H
  H439     1.0000 0.61400  0.09210  0.66720  Biso   1.000  H
  H440     1.0000 0.65790  0.86400  0.91720  Biso   1.000  H
  H441     1.0000 0.11400  0.09210  0.83280  Biso   1.000  H
  H442     1.0000 0.65790  0.36400  0.08280  Biso   1.000  H
  H443     1.0000 0.88600  0.40790  0.83280  Biso   1.000  H
  H444     1.0000 0.34210  0.13600  0.08280  Biso   1.000  H
  H445     1.0000 0.61400  0.59210  0.33280  Biso   1.000  H
  H446     1.0000 0.15790  0.86400  0.58280  Biso   1.000  H
  H447     1.0000 0.38600  0.90790  0.33280  Biso   1.000  H
  H448     1.0000 0.84210  0.63600  0.58280  Biso   1.000  H
  C625     1.0000 0.86443  0.94372  0.10760  Biso   1.000  C
  C626     1.0000 0.80628  0.11443  0.35760  Biso   1.000  C
  C627     1.0000 0.13557  0.55628  0.10760  Biso   1.000  C
  C628     1.0000 0.19372  0.38557  0.35760  Biso   1.000  C
  C629     1.0000 0.36443  0.44372  0.60760  Biso   1.000  C
  C630     1.0000 0.30628  0.61443  0.85760  Biso   1.000  C
  C631     1.0000 0.63557  0.05628  0.60760  Biso   1.000  C
  C632     1.0000 0.69372  0.88557  0.85760  Biso   1.000  C
  C633     1.0000 0.13557  0.05628  0.89240  Biso   1.000  C
  C634     1.0000 0.69372  0.38557  0.14240  Biso   1.000  C
  C635     1.0000 0.86443  0.44372  0.89240  Biso   1.000  C
  C636     1.0000 0.30628  0.11443  0.14240  Biso   1.000  C
  C637     1.0000 0.63557  0.55628  0.39240  Biso   1.000  C
  C638     1.0000 0.19372  0.88557  0.64240  Biso   1.000  C
  C639     1.0000 0.36443  0.94372  0.39240  Biso   1.000  C
  C640     1.0000 0.80628  0.61443  0.64240  Biso   1.000  C
  C641     1.0000 0.03110  0.84837  0.15280  Biso   1.000  C
  C642     1.0000 0.90163  0.28110  0.40280  Biso   1.000  C
  C643     1.0000 0.96890  0.65163  0.15280  Biso   1.000  C
  C644     1.0000 0.09837  0.21890  0.40280  Biso   1.000  C
  C645     1.0000 0.53110  0.34837  0.65280  Biso   1.000  C
  C646     1.0000 0.40163  0.78110  0.90280  Biso   1.000  C
  C647     1.0000 0.46890  0.15163  0.65280  Biso   1.000  C
  C648     1.0000 0.59837  0.71890  0.90280  Biso   1.000  C
  C649     1.0000 0.96890  0.15163  0.84720  Biso   1.000  C
  C650     1.0000 0.59837  0.21890  0.09720  Biso   1.000  C
  C651     1.0000 0.03110  0.34837  0.84720  Biso   1.000  C
  C652     1.0000 0.40163  0.28110  0.09720  Biso   1.000  C
  C653     1.0000 0.46890  0.65163  0.34720  Biso   1.000  C
  C654     1.0000 0.09837  0.71890  0.59720  Biso   1.000  C
  C655     1.0000 0.53110  0.84837  0.34720  Biso   1.000  C
  C656     1.0000 0.90163  0.78110  0.59720  Biso   1.000  C
  H449     1.0000 0.01780  0.83760  0.98820  Biso   1.000  H
  H450     1.0000 0.91240  0.26780  0.23820  Biso   1.000  H
  H451     1.0000 0.98220  0.66240  0.98820  Biso   1.000  H
  H452     1.0000 0.08760  0.23220  0.23820  Biso   1.000  H
  H453     1.0000 0.51780  0.33760  0.48820  Biso   1.000  H
  H454     1.0000 0.41240  0.76780  0.73820  Biso   1.000  H
  H455     1.0000 0.48220  0.16240  0.48820  Biso   1.000  H
  H456     1.0000 0.58760  0.73220  0.73820  Biso   1.000  H
  H457     1.0000 0.98220  0.16240  0.01180  Biso   1.000  H
  H458     1.0000 0.58760  0.23220  0.26180  Biso   1.000  H
  H459     1.0000 0.01780  0.33760  0.01180  Biso   1.000  H
  H460     1.0000 0.41240  0.26780  0.26180  Biso   1.000  H
  H461     1.0000 0.48220  0.66240  0.51180  Biso   1.000  H
  H462     1.0000 0.08760  0.73220  0.76180  Biso   1.000  H
  H463     1.0000 0.51780  0.83760  0.51180  Biso   1.000  H
  H464     1.0000 0.91240  0.76780  0.76180  Biso   1.000  H
  C657     1.0000 0.04551  0.86606  0.35540  Biso   1.000  C
  C658     1.0000 0.88394  0.29551  0.60540  Biso   1.000  C
  C659     1.0000 0.95449  0.63394  0.35540  Biso   1.000  C
  C660     1.0000 0.11606  0.20449  0.60540  Biso   1.000  C
  C661     1.0000 0.54551  0.36606  0.85540  Biso   1.000  C
  C662     1.0000 0.38394  0.79551  0.10540  Biso   1.000  C
  C663     1.0000 0.45449  0.13394  0.85540  Biso   1.000  C
  C664     1.0000 0.61606  0.70449  0.10540  Biso   1.000  C
  C665     1.0000 0.95449  0.13394  0.64460  Biso   1.000  C
  C666     1.0000 0.61606  0.20449  0.89460  Biso   1.000  C
  C667     1.0000 0.04551  0.36606  0.64460  Biso   1.000  C
  C668     1.0000 0.38394  0.29551  0.89460  Biso   1.000  C
  C669     1.0000 0.45449  0.63394  0.14460  Biso   1.000  C
  C670     1.0000 0.11606  0.70449  0.39460  Biso   1.000  C
  C671     1.0000 0.54551  0.86606  0.14460  Biso   1.000  C
  C672     1.0000 0.88394  0.79551  0.39460  Biso   1.000  C
  C673     1.0000 0.00916  0.95031  0.46630  Biso   1.000  C
  C674     1.0000 0.79969  0.25916  0.71630  Biso   1.000  C
  C675     1.0000 0.99084  0.54969  0.46630  Biso   1.000  C
  C676     1.0000 0.20031  0.24084  0.71630  Biso   1.000  C
  C677     1.0000 0.50916  0.45031  0.96630  Biso   1.000  C
  C678     1.0000 0.29969  0.75916  0.21630  Biso   1.000  C
  C679     1.0000 0.49084  0.04969  0.96630  Biso   1.000  C
  C680     1.0000 0.70031  0.74084  0.21630  Biso   1.000  C
  C681     1.0000 0.99084  0.04969  0.53370  Biso   1.000  C
  C682     1.0000 0.70031  0.24084  0.78370  Biso   1.000  C
  C683     1.0000 0.00916  0.45031  0.53370  Biso   1.000  C
  C684     1.0000 0.29969  0.25916  0.78370  Biso   1.000  C
  C685     1.0000 0.49084  0.54969  0.03370  Biso   1.000  C
  C686     1.0000 0.20031  0.74084  0.28370  Biso   1.000  C
  C687     1.0000 0.50916  0.95031  0.03370  Biso   1.000  C
  C688     1.0000 0.79969  0.75916  0.28370  Biso   1.000  C
  C689     1.0000 0.05284  0.93176  0.35290  Biso   1.000  C
  C690     1.0000 0.81824  0.30284  0.60290  Biso   1.000  C
  C691     1.0000 0.94716  0.56824  0.35290  Biso   1.000  C
  C692     1.0000 0.18176  0.19716  0.60290  Biso   1.000  C
  C693     1.0000 0.55284  0.43176  0.85290  Biso   1.000  C
  C694     1.0000 0.31824  0.80284  0.10290  Biso   1.000  C
  C695     1.0000 0.44716  0.06824  0.85290  Biso   1.000  C
  C696     1.0000 0.68176  0.69716  0.10290  Biso   1.000  C
  C697     1.0000 0.94716  0.06824  0.64710  Biso   1.000  C
  C698     1.0000 0.68176  0.19716  0.89710  Biso   1.000  C
  C699     1.0000 0.05284  0.43176  0.64710  Biso   1.000  C
  C700     1.0000 0.31824  0.30284  0.89710  Biso   1.000  C
  C701     1.0000 0.44716  0.56824  0.14710  Biso   1.000  C
  C702     1.0000 0.18176  0.69716  0.39710  Biso   1.000  C
  C703     1.0000 0.55284  0.93176  0.14710  Biso   1.000  C
  C704     1.0000 0.81824  0.80284  0.39710  Biso   1.000  C
  H465     1.0000 0.97160  0.96480  0.54220  Biso   1.000  H
  H466     1.0000 0.78520  0.22160  0.79220  Biso   1.000  H
  H467     1.0000 0.02840  0.53520  0.54220  Biso   1.000  H
  H468     1.0000 0.21480  0.27840  0.79220  Biso   1.000  H
  H469     1.0000 0.47160  0.46480  0.04220  Biso   1.000  H
  H470     1.0000 0.28520  0.72160  0.29220  Biso   1.000  H
  H471     1.0000 0.52840  0.03520  0.04220  Biso   1.000  H
  H472     1.0000 0.71480  0.77840  0.29220  Biso   1.000  H
  H473     1.0000 0.02840  0.03520  0.45780  Biso   1.000  H
  H474     1.0000 0.71480  0.27840  0.70780  Biso   1.000  H
  H475     1.0000 0.97160  0.46480  0.45780  Biso   1.000  H
  H476     1.0000 0.28520  0.22160  0.70780  Biso   1.000  H
  H477     1.0000 0.52840  0.53520  0.95780  Biso   1.000  H
  H478     1.0000 0.21480  0.77840  0.20780  Biso   1.000  H
  H479     1.0000 0.47160  0.96480  0.95780  Biso   1.000  H
  H480     1.0000 0.78520  0.72160  0.20780  Biso   1.000  H
  C705     1.0000 0.98830  0.01291  0.19330  Biso   1.000  C
  C706     1.0000 0.73709  0.23830  0.44330  Biso   1.000  C
  C707     1.0000 0.01170  0.48709  0.19330  Biso   1.000  C
  C708     1.0000 0.26291  0.26170  0.44330  Biso   1.000  C
  C709     1.0000 0.48830  0.51291  0.69330  Biso   1.000  C
  C710     1.0000 0.23709  0.73830  0.94330  Biso   1.000  C
  C711     1.0000 0.51170  0.98709  0.69330  Biso   1.000  C
  C712     1.0000 0.76291  0.76170  0.94330  Biso   1.000  C
  C713     1.0000 0.01170  0.98709  0.80670  Biso   1.000  C
  C714     1.0000 0.76291  0.26170  0.05670  Biso   1.000  C
  C715     1.0000 0.98830  0.51291  0.80670  Biso   1.000  C
  C716     1.0000 0.23709  0.23830  0.05670  Biso   1.000  C
  C717     1.0000 0.51170  0.48709  0.30670  Biso   1.000  C
  C718     1.0000 0.26291  0.76170  0.55670  Biso   1.000  C
  C719     1.0000 0.48830  0.01291  0.30670  Biso   1.000  C
  C720     1.0000 0.73709  0.73830  0.55670  Biso   1.000  C
  H481     1.0000 0.02880  0.99790  0.14750  Biso   1.000  H
  H482     1.0000 0.75210  0.27880  0.39750  Biso   1.000  H
  H483     1.0000 0.97120  0.50210  0.14750  Biso   1.000  H
  H484     1.0000 0.24790  0.22120  0.39750  Biso   1.000  H
  H485     1.0000 0.52880  0.49790  0.64750  Biso   1.000  H
  H486     1.0000 0.25210  0.77880  0.89750  Biso   1.000  H
  H487     1.0000 0.47120  0.00210  0.64750  Biso   1.000  H
  H488     1.0000 0.74790  0.72120  0.89750  Biso   1.000  H
  H489     1.0000 0.97120  0.00210  0.85250  Biso   1.000  H
  H490     1.0000 0.74790  0.22120  0.10250  Biso   1.000  H
  H491     1.0000 0.02880  0.49790  0.85250  Biso   1.000  H
  H492     1.0000 0.25210  0.27880  0.10250  Biso   1.000  H
  H493     1.0000 0.47120  0.50210  0.35250  Biso   1.000  H
  H494     1.0000 0.24790  0.72120  0.60250  Biso   1.000  H
  H495     1.0000 0.52880  0.99790  0.35250  Biso   1.000  H
  H496     1.0000 0.75210  0.77880  0.60250  Biso   1.000  H
  C721     1.0000 0.93659  0.02608  0.25520  Biso   1.000  C
  C722     1.0000 0.72392  0.18659  0.50520  Biso   1.000  C
  C723     1.0000 0.06341  0.47392  0.25520  Biso   1.000  C
  C724     1.0000 0.27608  0.31341  0.50520  Biso   1.000  C
  C725     1.0000 0.43659  0.52608  0.75520  Biso   1.000  C
  C726     1.0000 0.22392  0.68659  0.00520  Biso   1.000  C
  C727     1.0000 0.56341  0.97392  0.75520  Biso   1.000  C
  C728     1.0000 0.77608  0.81341  0.00520  Biso   1.000  C
  C729     1.0000 0.06341  0.97392  0.74480  Biso   1.000  C
  C730     1.0000 0.77608  0.31341  0.99480  Biso   1.000  C
  C731     1.0000 0.93659  0.52608  0.74480  Biso   1.000  C
  C732     1.0000 0.22392  0.18659  0.99480  Biso   1.000  C
  C733     1.0000 0.56341  0.47392  0.24480  Biso   1.000  C
  C734     1.0000 0.27608  0.81341  0.49480  Biso   1.000  C
  C735     1.0000 0.43659  0.02608  0.24480  Biso   1.000  C
  C736     1.0000 0.72392  0.68659  0.49480  Biso   1.000  C
  C737     1.0000 0.86912  0.97269  0.07160  Biso   1.000  C
  C738     1.0000 0.77731  0.11912  0.32160  Biso   1.000  C
  C739     1.0000 0.13088  0.52731  0.07160  Biso   1.000  C
  C740     1.0000 0.22269  0.38088  0.32160  Biso   1.000  C
  C741     1.0000 0.36912  0.47269  0.57160  Biso   1.000  C
  C742     1.0000 0.27731  0.61912  0.82160  Biso   1.000  C
  C743     1.0000 0.63088  0.02731  0.57160  Biso   1.000  C
  C744     1.0000 0.72269  0.88088  0.82160  Biso   1.000  C
  C745     1.0000 0.13088  0.02731  0.92840  Biso   1.000  C
  C746     1.0000 0.72269  0.38088  0.17840  Biso   1.000  C
  C747     1.0000 0.86912  0.47269  0.92840  Biso   1.000  C
  C748     1.0000 0.27731  0.11912  0.17840  Biso   1.000  C
  C749     1.0000 0.63088  0.52731  0.42840  Biso   1.000  C
  C750     1.0000 0.22269  0.88088  0.67840  Biso   1.000  C
  C751     1.0000 0.36912  0.97269  0.42840  Biso   1.000  C
  C752     1.0000 0.77731  0.61912  0.67840  Biso   1.000  C
  C753     1.0000 0.90185  0.01480  0.02320  Biso   1.000  C
  C754     1.0000 0.73520  0.15185  0.27320  Biso   1.000  C
  C755     1.0000 0.09815  0.48520  0.02320  Biso   1.000  C
  C756     1.0000 0.26480  0.34815  0.27320  Biso   1.000  C
  C757     1.0000 0.40185  0.51480  0.52320  Biso   1.000  C
  C758     1.0000 0.23520  0.65185  0.77320  Biso   1.000  C
  C759     1.0000 0.59815  0.98520  0.52320  Biso   1.000  C
  C760     1.0000 0.76480  0.84815  0.77320  Biso   1.000  C
  C761     1.0000 0.09815  0.98520  0.97680  Biso   1.000  C
  C762     1.0000 0.76480  0.34815  0.22680  Biso   1.000  C
  C763     1.0000 0.90185  0.51480  0.97680  Biso   1.000  C
  C764     1.0000 0.23520  0.15185  0.22680  Biso   1.000  C
  C765     1.0000 0.59815  0.48520  0.47680  Biso   1.000  C
  C766     1.0000 0.26480  0.84815  0.72680  Biso   1.000  C
  C767     1.0000 0.40185  0.01480  0.47680  Biso   1.000  C
  C768     1.0000 0.73520  0.65185  0.72680  Biso   1.000  C
  H497     1.0000 0.84570  0.93540  0.10610  Biso   1.000  H
  H498     1.0000 0.81460  0.09570  0.35610  Biso   1.000  H
  H499     1.0000 0.15430  0.56460  0.10610  Biso   1.000  H
  H500     1.0000 0.18540  0.40430  0.35610  Biso   1.000  H
  H501     1.0000 0.34570  0.43540  0.60610  Biso   1.000  H
  H502     1.0000 0.31460  0.59570  0.85610  Biso   1.000  H
  H503     1.0000 0.65430  0.06460  0.60610  Biso   1.000  H
  H504     1.0000 0.68540  0.90430  0.85610  Biso   1.000  H
  H505     1.0000 0.15430  0.06460  0.89390  Biso   1.000  H
  H506     1.0000 0.68540  0.40430  0.14390  Biso   1.000  H
  H507     1.0000 0.84570  0.43540  0.89390  Biso   1.000  H
  H508     1.0000 0.31460  0.09570  0.14390  Biso   1.000  H
  H509     1.0000 0.65430  0.56460  0.39390  Biso   1.000  H
  H510     1.0000 0.18540  0.90430  0.64390  Biso   1.000  H
  H511     1.0000 0.34570  0.93540  0.39390  Biso   1.000  H
  H512     1.0000 0.81460  0.59570  0.64390  Biso   1.000  H
  H513     1.0000 0.04410  0.83270  0.16250  Biso   1.000  H
  H514     1.0000 0.91730  0.29410  0.41250  Biso   1.000  H
  H515     1.0000 0.95590  0.66730  0.16250  Biso   1.000  H
  H516     1.0000 0.08270  0.20590  0.41250  Biso   1.000  H
  H517     1.0000 0.54410  0.33270  0.66250  Biso   1.000  H
  H518     1.0000 0.41730  0.79410  0.91250  Biso   1.000  H
  H519     1.0000 0.45590  0.16730  0.66250  Biso   1.000  H
  H520     1.0000 0.58270  0.70590  0.91250  Biso   1.000  H
  H521     1.0000 0.95590  0.16730  0.83750  Biso   1.000  H
  H522     1.0000 0.58270  0.20590  0.08750  Biso   1.000  H
  H523     1.0000 0.04410  0.33270  0.83750  Biso   1.000  H
  H524     1.0000 0.41730  0.29410  0.08750  Biso   1.000  H
  H525     1.0000 0.45590  0.66730  0.33750  Biso   1.000  H
  H526     1.0000 0.08270  0.70590  0.58750  Biso   1.000  H
  H527     1.0000 0.54410  0.83270  0.33750  Biso   1.000  H
  H528     1.0000 0.91730  0.79410  0.58750  Biso   1.000  H
  O321     1.0000 0.03197  0.86913  0.45150  Biso   1.000  O
  O322     1.0000 0.88087  0.28197  0.70150  Biso   1.000  O
  O323     1.0000 0.96803  0.63087  0.45150  Biso   1.000  O
  O324     1.0000 0.11913  0.21803  0.70150  Biso   1.000  O
  O325     1.0000 0.53197  0.36913  0.95150  Biso   1.000  O
  O326     1.0000 0.38087  0.78197  0.20150  Biso   1.000  O
  O327     1.0000 0.46803  0.13087  0.95150  Biso   1.000  O
  O328     1.0000 0.61913  0.71803  0.20150  Biso   1.000  O
  O329     1.0000 0.96803  0.13087  0.54850  Biso   1.000  O
  O330     1.0000 0.61913  0.21803  0.79850  Biso   1.000  O
  O331     1.0000 0.03197  0.36913  0.54850  Biso   1.000  O
  O332     1.0000 0.38087  0.28197  0.79850  Biso   1.000  O
  O333     1.0000 0.46803  0.63087  0.04850  Biso   1.000  O
  O334     1.0000 0.11913  0.71803  0.29850  Biso   1.000  O
  O335     1.0000 0.53197  0.86913  0.04850  Biso   1.000  O
  O336     1.0000 0.88087  0.78197  0.29850  Biso   1.000  O
  O337     1.0000 0.07227  0.86018  0.34310  Biso   1.000  O
  O338     1.0000 0.88982  0.32227  0.59310  Biso   1.000  O
  O339     1.0000 0.92773  0.63982  0.34310  Biso   1.000  O
  O340     1.0000 0.11018  0.17773  0.59310  Biso   1.000  O
  O341     1.0000 0.57227  0.36018  0.84310  Biso   1.000  O
  O342     1.0000 0.38982  0.82227  0.09310  Biso   1.000  O
  O343     1.0000 0.42773  0.13982  0.84310  Biso   1.000  O
  O344     1.0000 0.61018  0.67773  0.09310  Biso   1.000  O
  O345     1.0000 0.92773  0.13982  0.65690  Biso   1.000  O
  O346     1.0000 0.61018  0.17773  0.90690  Biso   1.000  O
  O347     1.0000 0.07227  0.36018  0.65690  Biso   1.000  O
  O348     1.0000 0.38982  0.32227  0.90690  Biso   1.000  O
  O349     1.0000 0.42773  0.63982  0.15690  Biso   1.000  O
  O350     1.0000 0.11018  0.67773  0.40690  Biso   1.000  O
  O351     1.0000 0.57227  0.86018  0.15690  Biso   1.000  O
  O352     1.0000 0.88982  0.82227  0.40690  Biso   1.000  O
  H529     1.0000 0.02210  0.96140  0.51250  Biso   1.000  H
  H530     1.0000 0.78860  0.27210  0.76250  Biso   1.000  H
  H531     1.0000 0.97790  0.53860  0.51250  Biso   1.000  H
  H532     1.0000 0.21140  0.22790  0.76250  Biso   1.000  H
  H533     1.0000 0.52210  0.46140  0.01250  Biso   1.000  H
  H534     1.0000 0.28860  0.77210  0.26250  Biso   1.000  H
  H535     1.0000 0.47790  0.03860  0.01250  Biso   1.000  H
  H536     1.0000 0.71140  0.72790  0.26250  Biso   1.000  H
  H537     1.0000 0.97790  0.03860  0.48750  Biso   1.000  H
  H538     1.0000 0.71140  0.22790  0.73750  Biso   1.000  H
  H539     1.0000 0.02210  0.46140  0.48750  Biso   1.000  H
  H540     1.0000 0.28860  0.27210  0.73750  Biso   1.000  H
  H541     1.0000 0.47790  0.53860  0.98750  Biso   1.000  H
  H542     1.0000 0.21140  0.72790  0.23750  Biso   1.000  H
  H543     1.0000 0.52210  0.96140  0.98750  Biso   1.000  H
  H544     1.0000 0.78860  0.77210  0.23750  Biso   1.000  H
  H545     1.0000 0.99450  0.03120  0.22100  Biso   1.000  H
  H546     1.0000 0.71880  0.24450  0.47100  Biso   1.000  H
  H547     1.0000 0.00550  0.46880  0.22100  Biso   1.000  H
  H548     1.0000 0.28120  0.25550  0.47100  Biso   1.000  H
  H549     1.0000 0.49450  0.53120  0.72100  Biso   1.000  H
  H550     1.0000 0.21880  0.74450  0.97100  Biso   1.000  H
  H551     1.0000 0.50550  0.96880  0.72100  Biso   1.000  H
  H552     1.0000 0.78120  0.75550  0.97100  Biso   1.000  H
  H553     1.0000 0.00550  0.96880  0.77900  Biso   1.000  H
  H554     1.0000 0.78120  0.25550  0.02900  Biso   1.000  H
  H555     1.0000 0.99450  0.53120  0.77900  Biso   1.000  H
  H556     1.0000 0.21880  0.24450  0.02900  Biso   1.000  H
  H557     1.0000 0.50550  0.46880  0.27900  Biso   1.000  H
  H558     1.0000 0.28120  0.75550  0.52900  Biso   1.000  H
  H559     1.0000 0.49450  0.03120  0.27900  Biso   1.000  H
  H560     1.0000 0.71880  0.74450  0.52900  Biso   1.000  H
  H561     1.0000 0.85350  0.98370  0.04180  Biso   1.000  H
  H562     1.0000 0.76630  0.10350  0.29180  Biso   1.000  H
  H563     1.0000 0.14650  0.51630  0.04180  Biso   1.000  H
  H564     1.0000 0.23370  0.39650  0.29180  Biso   1.000  H
  H565     1.0000 0.35350  0.48370  0.54180  Biso   1.000  H
  H566     1.0000 0.26630  0.60350  0.79180  Biso   1.000  H
  H567     1.0000 0.64650  0.01630  0.54180  Biso   1.000  H
  H568     1.0000 0.73370  0.89650  0.79180  Biso   1.000  H
  H569     1.0000 0.14650  0.01630  0.95820  Biso   1.000  H
  H570     1.0000 0.73370  0.39650  0.20820  Biso   1.000  H
  H571     1.0000 0.85350  0.48370  0.95820  Biso   1.000  H
  H572     1.0000 0.26630  0.10350  0.20820  Biso   1.000  H
  H573     1.0000 0.64650  0.51630  0.45820  Biso   1.000  H
  H574     1.0000 0.23370  0.89650  0.70820  Biso   1.000  H
  H575     1.0000 0.35350  0.98370  0.45820  Biso   1.000  H
  H576     1.0000 0.76630  0.60350  0.70820  Biso   1.000  H
  O353     1.0000 0.79643  0.94642  0.98840  Biso   1.000  O
  O354     1.0000 0.80358  0.04643  0.23840  Biso   1.000  O
  O355     1.0000 0.20357  0.55358  0.98840  Biso   1.000  O
  O356     1.0000 0.19642  0.45357  0.23840  Biso   1.000  O
  O357     1.0000 0.29643  0.44642  0.48840  Biso   1.000  O
  O358     1.0000 0.30358  0.54643  0.73840  Biso   1.000  O
  O359     1.0000 0.70357  0.05358  0.48840  Biso   1.000  O
  O360     1.0000 0.69642  0.95357  0.73840  Biso   1.000  O
  O361     1.0000 0.20357  0.05358  0.01160  Biso   1.000  O
  O362     1.0000 0.69642  0.45357  0.26160  Biso   1.000  O
  O363     1.0000 0.79643  0.44642  0.01160  Biso   1.000  O
  O364     1.0000 0.30358  0.04643  0.26160  Biso   1.000  O
  O365     1.0000 0.70357  0.55358  0.51160  Biso   1.000  O
  O366     1.0000 0.19642  0.95357  0.76160  Biso   1.000  O
  O367     1.0000 0.29643  0.94642  0.51160  Biso   1.000  O
  O368     1.0000 0.80358  0.54643  0.76160  Biso   1.000  O
  O369     1.0000 0.78404  0.98568  0.17470  Biso   1.000  O
  O370     1.0000 0.76432  0.03404  0.42470  Biso   1.000  O
  O371     1.0000 0.21596  0.51432  0.17470  Biso   1.000  O
  O372     1.0000 0.23568  0.46596  0.42470  Biso   1.000  O
  O373     1.0000 0.28404  0.48568  0.67470  Biso   1.000  O
  O374     1.0000 0.26432  0.53404  0.92470  Biso   1.000  O
  O375     1.0000 0.71596  0.01432  0.67470  Biso   1.000  O
  O376     1.0000 0.73568  0.96596  0.92470  Biso   1.000  O
  O377     1.0000 0.21596  0.01432  0.82530  Biso   1.000  O
  O378     1.0000 0.73568  0.46596  0.07530  Biso   1.000  O
  O379     1.0000 0.78404  0.48568  0.82530  Biso   1.000  O
  O380     1.0000 0.26432  0.03404  0.07530  Biso   1.000  O
  O381     1.0000 0.71596  0.51432  0.32530  Biso   1.000  O
  O382     1.0000 0.23568  0.96596  0.57530  Biso   1.000  O
  O383     1.0000 0.28404  0.98568  0.32530  Biso   1.000  O
  O384     1.0000 0.76432  0.53404  0.57530  Biso   1.000  O
  H577     1.0000 0.79450  0.98740  0.23660  Biso   1.000  H
  H578     1.0000 0.76260  0.04450  0.48660  Biso   1.000  H
  H579     1.0000 0.20550  0.51260  0.23660  Biso   1.000  H
  H580     1.0000 0.23740  0.45550  0.48660  Biso   1.000  H
  H581     1.0000 0.29450  0.48740  0.73660  Biso   1.000  H
  H582     1.0000 0.26260  0.54450  0.98660  Biso   1.000  H
  H583     1.0000 0.70550  0.01260  0.73660  Biso   1.000  H
  H584     1.0000 0.73740  0.95550  0.98660  Biso   1.000  H
  H585     1.0000 0.20550  0.01260  0.76340  Biso   1.000  H
  H586     1.0000 0.73740  0.45550  0.01340  Biso   1.000  H
  H587     1.0000 0.79450  0.48740  0.76340  Biso   1.000  H
  H588     1.0000 0.26260  0.04450  0.01340  Biso   1.000  H
  H589     1.0000 0.70550  0.51260  0.26340  Biso   1.000  H
  H590     1.0000 0.23740  0.95550  0.51340  Biso   1.000  H
  H591     1.0000 0.29450  0.98740  0.26340  Biso   1.000  H
  H592     1.0000 0.76260  0.54450  0.51340  Biso   1.000  H
  H593     1.0000 0.76880  0.97540  0.19030  Biso   1.000  H
  H594     1.0000 0.77460  0.01880  0.44030  Biso   1.000  H
  H595     1.0000 0.23120  0.52460  0.19030  Biso   1.000  H
  H596     1.0000 0.22540  0.48120  0.44030  Biso   1.000  H
  H597     1.0000 0.26880  0.47540  0.69030  Biso   1.000  H
  H598     1.0000 0.27460  0.51880  0.94030  Biso   1.000  H
  H599     1.0000 0.73120  0.02460  0.69030  Biso   1.000  H
  H600     1.0000 0.72540  0.98120  0.94030  Biso   1.000  H
  H601     1.0000 0.23120  0.02460  0.80970  Biso   1.000  H
  H602     1.0000 0.72540  0.48120  0.05970  Biso   1.000  H
  H603     1.0000 0.76880  0.47540  0.80970  Biso   1.000  H
  H604     1.0000 0.27460  0.01880  0.05970  Biso   1.000  H
  H605     1.0000 0.73120  0.52460  0.30970  Biso   1.000  H
  H606     1.0000 0.22540  0.98120  0.55970  Biso   1.000  H
  H607     1.0000 0.26880  0.97540  0.30970  Biso   1.000  H
  H608     1.0000 0.77460  0.51880  0.55970  Biso   1.000  H
  O385     1.0000 0.74354  0.81636  0.36620  Biso   1.000  O
  O386     1.0000 0.93364  0.99354  0.61620  Biso   1.000  O
  O387     1.0000 0.25646  0.68364  0.36620  Biso   1.000  O
  O388     1.0000 0.06636  0.50646  0.61620  Biso   1.000  O
  O389     1.0000 0.24354  0.31636  0.86620  Biso   1.000  O
  O390     1.0000 0.43364  0.49354  0.11620  Biso   1.000  O
  O391     1.0000 0.75646  0.18364  0.86620  Biso   1.000  O
  O392     1.0000 0.56636  0.00646  0.11620  Biso   1.000  O
  O393     1.0000 0.25646  0.18364  0.63380  Biso   1.000  O
  O394     1.0000 0.56636  0.50646  0.88380  Biso   1.000  O
  O395     1.0000 0.74354  0.31636  0.63380  Biso   1.000  O
  O396     1.0000 0.43364  0.99354  0.88380  Biso   1.000  O
  O397     1.0000 0.75646  0.68364  0.13380  Biso   1.000  O
  O398     1.0000 0.06636  0.00646  0.38380  Biso   1.000  O
  O399     1.0000 0.24354  0.81636  0.13380  Biso   1.000  O
  O400     1.0000 0.93364  0.49354  0.38380  Biso   1.000  O
