data_image0
_cell_length_a       26.3164
_cell_length_b       26.3164
_cell_length_c       26.3164
_cell_angle_alpha    90
_cell_angle_beta     90
_cell_angle_gamma    90

_symmetry_space_group_name_H-M    "P 1"
_symmetry_int_tables_number       1

loop_
  _symmetry_equiv_pos_as_xyz
  'x, y, z'

loop_
  _atom_site_label
  _atom_site_occupancy
  _atom_site_fract_x
  _atom_site_fract_y
  _atom_site_fract_z
  _atom_site_thermal_displace_type
  _atom_site_B_iso_or_equiv
  _atom_site_type_symbol
  Cu1      1.0000 0.28492  0.28492  0.00000  Biso   1.000  Cu
  Cu2      1.0000 0.71508  0.28492  0.00000  Biso   1.000  Cu
  Cu3      1.0000 0.71508  0.71508  0.00000  Biso   1.000  Cu
  Cu4      1.0000 0.28492  0.71508  0.00000  Biso   1.000  Cu
  Cu5      1.0000 0.28492  0.00000  0.28492  Biso   1.000  Cu
  Cu6      1.0000 0.28492  0.00000  0.71508  Biso   1.000  Cu
  Cu7      1.0000 0.00000  0.28492  0.71508  Biso   1.000  Cu
  Cu8      1.0000 0.00000  0.28492  0.28492  Biso   1.000  Cu
  Cu9      1.0000 0.71508  0.00000  0.28492  Biso   1.000  Cu
  Cu10     1.0000 0.00000  0.71508  0.71508  Biso   1.000  Cu
  Cu11     1.0000 0.71508  0.00000  0.71508  Biso   1.000  Cu
  Cu12     1.0000 0.00000  0.71508  0.28492  Biso   1.000  Cu
  Cu13     1.0000 0.28492  0.78492  0.50000  Biso   1.000  Cu
  Cu14     1.0000 0.71508  0.78492  0.50000  Biso   1.000  Cu
  Cu15     1.0000 0.71508  0.21508  0.50000  Biso   1.000  Cu
  Cu16     1.0000 0.28492  0.21508  0.50000  Biso   1.000  Cu
  Cu17     1.0000 0.28492  0.50000  0.78492  Biso   1.000  Cu
  Cu18     1.0000 0.28492  0.50000  0.21508  Biso   1.000  Cu
  Cu19     1.0000 0.00000  0.78492  0.21508  Biso   1.000  Cu
  Cu20     1.0000 0.00000  0.78492  0.78492  Biso   1.000  Cu
  Cu21     1.0000 0.71508  0.50000  0.78492  Biso   1.000  Cu
  Cu22     1.0000 0.00000  0.21508  0.21508  Biso   1.000  Cu
  Cu23     1.0000 0.71508  0.50000  0.21508  Biso   1.000  Cu
  Cu24     1.0000 0.00000  0.21508  0.78492  Biso   1.000  Cu
  Cu25     1.0000 0.78492  0.28492  0.50000  Biso   1.000  Cu
  Cu26     1.0000 0.21508  0.28492  0.50000  Biso   1.000  Cu
  Cu27     1.0000 0.21508  0.71508  0.50000  Biso   1.000  Cu
  Cu28     1.0000 0.78492  0.71508  0.50000  Biso   1.000  Cu
  Cu29     1.0000 0.78492  0.00000  0.78492  Biso   1.000  Cu
  Cu30     1.0000 0.78492  0.00000  0.21508  Biso   1.000  Cu
  Cu31     1.0000 0.50000  0.28492  0.21508  Biso   1.000  Cu
  Cu32     1.0000 0.50000  0.28492  0.78492  Biso   1.000  Cu
  Cu33     1.0000 0.21508  0.00000  0.78492  Biso   1.000  Cu
  Cu34     1.0000 0.50000  0.71508  0.21508  Biso   1.000  Cu
  Cu35     1.0000 0.21508  0.00000  0.21508  Biso   1.000  Cu
  Cu36     1.0000 0.50000  0.71508  0.78492  Biso   1.000  Cu
  Cu37     1.0000 0.78492  0.78492  0.00000  Biso   1.000  Cu
  Cu38     1.0000 0.21508  0.78492  0.00000  Biso   1.000  Cu
  Cu39     1.0000 0.21508  0.21508  0.00000  Biso   1.000  Cu
  Cu40     1.0000 0.78492  0.21508  0.00000  Biso   1.000  Cu
  Cu41     1.0000 0.78492  0.50000  0.28492  Biso   1.000  Cu
  Cu42     1.0000 0.78492  0.50000  0.71508  Biso   1.000  Cu
  Cu43     1.0000 0.50000  0.78492  0.71508  Biso   1.000  Cu
  Cu44     1.0000 0.50000  0.78492  0.28492  Biso   1.000  Cu
  Cu45     1.0000 0.21508  0.50000  0.28492  Biso   1.000  Cu
  Cu46     1.0000 0.50000  0.21508  0.71508  Biso   1.000  Cu
  Cu47     1.0000 0.21508  0.50000  0.71508  Biso   1.000  Cu
  Cu48     1.0000 0.50000  0.21508  0.28492  Biso   1.000  Cu
  O1       1.0000 0.24321  0.31700  0.05238  Biso   1.000  O
  O2       1.0000 0.68300  0.24321  0.05238  Biso   1.000  O
  O3       1.0000 0.75679  0.68300  0.05238  Biso   1.000  O
  O4       1.0000 0.31700  0.75679  0.05238  Biso   1.000  O
  O5       1.0000 0.24321  0.94762  0.31700  Biso   1.000  O
  O6       1.0000 0.24321  0.68300  0.94762  Biso   1.000  O
  O7       1.0000 0.24321  0.05238  0.68300  Biso   1.000  O
  O8       1.0000 0.05238  0.31700  0.75679  Biso   1.000  O
  O9       1.0000 0.75679  0.31700  0.94762  Biso   1.000  O
  O10      1.0000 0.94762  0.31700  0.24321  Biso   1.000  O
  O11      1.0000 0.05238  0.24321  0.31700  Biso   1.000  O
  O12      1.0000 0.31700  0.05238  0.24321  Biso   1.000  O
  O13      1.0000 0.68300  0.94762  0.24321  Biso   1.000  O
  O14      1.0000 0.05238  0.75679  0.68300  Biso   1.000  O
  O15      1.0000 0.68300  0.05238  0.75679  Biso   1.000  O
  O16      1.0000 0.94762  0.75679  0.31700  Biso   1.000  O
  O17      1.0000 0.94762  0.24321  0.68300  Biso   1.000  O
  O18      1.0000 0.31700  0.94762  0.75679  Biso   1.000  O
  O19      1.0000 0.31700  0.24321  0.94762  Biso   1.000  O
  O20      1.0000 0.68300  0.75679  0.94762  Biso   1.000  O
  O21      1.0000 0.75679  0.05238  0.31700  Biso   1.000  O
  O22      1.0000 0.75679  0.94762  0.68300  Biso   1.000  O
  O23      1.0000 0.05238  0.68300  0.24321  Biso   1.000  O
  O24      1.0000 0.94762  0.68300  0.75679  Biso   1.000  O
  O25      1.0000 0.24321  0.81700  0.55238  Biso   1.000  O
  O26      1.0000 0.68300  0.74321  0.55238  Biso   1.000  O
  O27      1.0000 0.75679  0.18300  0.55238  Biso   1.000  O
  O28      1.0000 0.31700  0.25679  0.55238  Biso   1.000  O
  O29      1.0000 0.24321  0.44762  0.81700  Biso   1.000  O
  O30      1.0000 0.24321  0.18300  0.44762  Biso   1.000  O
  O31      1.0000 0.24321  0.55238  0.18300  Biso   1.000  O
  O32      1.0000 0.05238  0.81700  0.25679  Biso   1.000  O
  O33      1.0000 0.75679  0.81700  0.44762  Biso   1.000  O
  O34      1.0000 0.94762  0.81700  0.74321  Biso   1.000  O
  O35      1.0000 0.05238  0.74321  0.81700  Biso   1.000  O
  O36      1.0000 0.31700  0.55238  0.74321  Biso   1.000  O
  O37      1.0000 0.68300  0.44762  0.74321  Biso   1.000  O
  O38      1.0000 0.05238  0.25679  0.18300  Biso   1.000  O
  O39      1.0000 0.68300  0.55238  0.25679  Biso   1.000  O
  O40      1.0000 0.94762  0.25679  0.81700  Biso   1.000  O
  O41      1.0000 0.94762  0.74321  0.18300  Biso   1.000  O
  O42      1.0000 0.31700  0.44762  0.25679  Biso   1.000  O
  O43      1.0000 0.31700  0.74321  0.44762  Biso   1.000  O
  O44      1.0000 0.68300  0.25679  0.44762  Biso   1.000  O
  O45      1.0000 0.75679  0.55238  0.81700  Biso   1.000  O
  O46      1.0000 0.75679  0.44762  0.18300  Biso   1.000  O
  O47      1.0000 0.05238  0.18300  0.74321  Biso   1.000  O
  O48      1.0000 0.94762  0.18300  0.25679  Biso   1.000  O
  O49      1.0000 0.74321  0.31700  0.55238  Biso   1.000  O
  O50      1.0000 0.18300  0.24321  0.55238  Biso   1.000  O
  O51      1.0000 0.25679  0.68300  0.55238  Biso   1.000  O
  O52      1.0000 0.81700  0.75679  0.55238  Biso   1.000  O
  O53      1.0000 0.74321  0.94762  0.81700  Biso   1.000  O
  O54      1.0000 0.74321  0.68300  0.44762  Biso   1.000  O
  O55      1.0000 0.74321  0.05238  0.18300  Biso   1.000  O
  O56      1.0000 0.55238  0.31700  0.25679  Biso   1.000  O
  O57      1.0000 0.25679  0.31700  0.44762  Biso   1.000  O
  O58      1.0000 0.44762  0.31700  0.74321  Biso   1.000  O
  O59      1.0000 0.55238  0.24321  0.81700  Biso   1.000  O
  O60      1.0000 0.81700  0.05238  0.74321  Biso   1.000  O
  O61      1.0000 0.18300  0.94762  0.74321  Biso   1.000  O
  O62      1.0000 0.55238  0.75679  0.18300  Biso   1.000  O
  O63      1.0000 0.18300  0.05238  0.25679  Biso   1.000  O
  O64      1.0000 0.44762  0.75679  0.81700  Biso   1.000  O
  O65      1.0000 0.44762  0.24321  0.18300  Biso   1.000  O
  O66      1.0000 0.81700  0.94762  0.25679  Biso   1.000  O
  O67      1.0000 0.81700  0.24321  0.44762  Biso   1.000  O
  O68      1.0000 0.18300  0.75679  0.44762  Biso   1.000  O
  O69      1.0000 0.25679  0.05238  0.81700  Biso   1.000  O
  O70      1.0000 0.25679  0.94762  0.18300  Biso   1.000  O
  O71      1.0000 0.55238  0.68300  0.74321  Biso   1.000  O
  O72      1.0000 0.44762  0.68300  0.25679  Biso   1.000  O
  O73      1.0000 0.74321  0.81700  0.05238  Biso   1.000  O
  O74      1.0000 0.18300  0.74321  0.05238  Biso   1.000  O
  O75      1.0000 0.25679  0.18300  0.05238  Biso   1.000  O
  O76      1.0000 0.81700  0.25679  0.05238  Biso   1.000  O
  O77      1.0000 0.74321  0.44762  0.31700  Biso   1.000  O
  O78      1.0000 0.74321  0.18300  0.94762  Biso   1.000  O
  O79      1.0000 0.74321  0.55238  0.68300  Biso   1.000  O
  O80      1.0000 0.55238  0.81700  0.75679  Biso   1.000  O
  O81      1.0000 0.25679  0.81700  0.94762  Biso   1.000  O
  O82      1.0000 0.44762  0.81700  0.24321  Biso   1.000  O
  O83      1.0000 0.55238  0.74321  0.31700  Biso   1.000  O
  O84      1.0000 0.81700  0.55238  0.24321  Biso   1.000  O
  O85      1.0000 0.18300  0.44762  0.24321  Biso   1.000  O
  O86      1.0000 0.55238  0.25679  0.68300  Biso   1.000  O
  O87      1.0000 0.18300  0.55238  0.75679  Biso   1.000  O
  O88      1.0000 0.44762  0.25679  0.31700  Biso   1.000  O
  O89      1.0000 0.44762  0.74321  0.68300  Biso   1.000  O
  O90      1.0000 0.81700  0.44762  0.75679  Biso   1.000  O
  O91      1.0000 0.81700  0.74321  0.94762  Biso   1.000  O
  O92      1.0000 0.18300  0.25679  0.94762  Biso   1.000  O
  O93      1.0000 0.25679  0.55238  0.31700  Biso   1.000  O
  O94      1.0000 0.25679  0.44762  0.68300  Biso   1.000  O
  O95      1.0000 0.55238  0.18300  0.24321  Biso   1.000  O
  O96      1.0000 0.44762  0.18300  0.75679  Biso   1.000  O
  O97      1.0000 0.75679  0.68300  0.94762  Biso   1.000  O
  O98      1.0000 0.31700  0.75679  0.94762  Biso   1.000  O
  O99      1.0000 0.24321  0.31700  0.94762  Biso   1.000  O
  O100     1.0000 0.68300  0.24321  0.94762  Biso   1.000  O
  O101     1.0000 0.75679  0.05238  0.68300  Biso   1.000  O
  O102     1.0000 0.75679  0.31700  0.05238  Biso   1.000  O
  O103     1.0000 0.75679  0.94762  0.31700  Biso   1.000  O
  O104     1.0000 0.94762  0.68300  0.24321  Biso   1.000  O
  O105     1.0000 0.24321  0.68300  0.05238  Biso   1.000  O
  O106     1.0000 0.05238  0.68300  0.75679  Biso   1.000  O
  O107     1.0000 0.94762  0.75679  0.68300  Biso   1.000  O
  O108     1.0000 0.68300  0.94762  0.75679  Biso   1.000  O
  O109     1.0000 0.31700  0.05238  0.75679  Biso   1.000  O
  O110     1.0000 0.94762  0.24321  0.31700  Biso   1.000  O
  O111     1.0000 0.31700  0.94762  0.24321  Biso   1.000  O
  O112     1.0000 0.05238  0.24321  0.68300  Biso   1.000  O
  O113     1.0000 0.05238  0.75679  0.31700  Biso   1.000  O
  O114     1.0000 0.68300  0.05238  0.24321  Biso   1.000  O
  O115     1.0000 0.68300  0.75679  0.05238  Biso   1.000  O
  O116     1.0000 0.31700  0.24321  0.05238  Biso   1.000  O
  O117     1.0000 0.24321  0.94762  0.68300  Biso   1.000  O
  O118     1.0000 0.24321  0.05238  0.31700  Biso   1.000  O
  O119     1.0000 0.94762  0.31700  0.75679  Biso   1.000  O
  O120     1.0000 0.05238  0.31700  0.24321  Biso   1.000  O
  O121     1.0000 0.75679  0.18300  0.44762  Biso   1.000  O
  O122     1.0000 0.31700  0.25679  0.44762  Biso   1.000  O
  O123     1.0000 0.24321  0.81700  0.44762  Biso   1.000  O
  O124     1.0000 0.68300  0.74321  0.44762  Biso   1.000  O
  O125     1.0000 0.75679  0.55238  0.18300  Biso   1.000  O
  O126     1.0000 0.75679  0.81700  0.55238  Biso   1.000  O
  O127     1.0000 0.75679  0.44762  0.81700  Biso   1.000  O
  O128     1.0000 0.94762  0.18300  0.74321  Biso   1.000  O
  O129     1.0000 0.24321  0.18300  0.55238  Biso   1.000  O
  O130     1.0000 0.05238  0.18300  0.25679  Biso   1.000  O
  O131     1.0000 0.94762  0.25679  0.18300  Biso   1.000  O
  O132     1.0000 0.68300  0.44762  0.25679  Biso   1.000  O
  O133     1.0000 0.31700  0.55238  0.25679  Biso   1.000  O
  O134     1.0000 0.94762  0.74321  0.81700  Biso   1.000  O
  O135     1.0000 0.31700  0.44762  0.74321  Biso   1.000  O
  O136     1.0000 0.05238  0.74321  0.18300  Biso   1.000  O
  O137     1.0000 0.05238  0.25679  0.81700  Biso   1.000  O
  O138     1.0000 0.68300  0.55238  0.74321  Biso   1.000  O
  O139     1.0000 0.68300  0.25679  0.55238  Biso   1.000  O
  O140     1.0000 0.31700  0.74321  0.55238  Biso   1.000  O
  O141     1.0000 0.24321  0.44762  0.18300  Biso   1.000  O
  O142     1.0000 0.24321  0.55238  0.81700  Biso   1.000  O
  O143     1.0000 0.94762  0.81700  0.25679  Biso   1.000  O
  O144     1.0000 0.05238  0.81700  0.74321  Biso   1.000  O
  O145     1.0000 0.25679  0.68300  0.44762  Biso   1.000  O
  O146     1.0000 0.81700  0.75679  0.44762  Biso   1.000  O
  O147     1.0000 0.74321  0.31700  0.44762  Biso   1.000  O
  O148     1.0000 0.18300  0.24321  0.44762  Biso   1.000  O
  O149     1.0000 0.25679  0.05238  0.18300  Biso   1.000  O
  O150     1.0000 0.25679  0.31700  0.55238  Biso   1.000  O
  O151     1.0000 0.25679  0.94762  0.81700  Biso   1.000  O
  O152     1.0000 0.44762  0.68300  0.74321  Biso   1.000  O
  O153     1.0000 0.74321  0.68300  0.55238  Biso   1.000  O
  O154     1.0000 0.55238  0.68300  0.25679  Biso   1.000  O
  O155     1.0000 0.44762  0.75679  0.18300  Biso   1.000  O
  O156     1.0000 0.18300  0.94762  0.25679  Biso   1.000  O
  O157     1.0000 0.81700  0.05238  0.25679  Biso   1.000  O
  O158     1.0000 0.44762  0.24321  0.81700  Biso   1.000  O
  O159     1.0000 0.81700  0.94762  0.74321  Biso   1.000  O
  O160     1.0000 0.55238  0.24321  0.18300  Biso   1.000  O
  O161     1.0000 0.55238  0.75679  0.81700  Biso   1.000  O
  O162     1.0000 0.18300  0.05238  0.74321  Biso   1.000  O
  O163     1.0000 0.18300  0.75679  0.55238  Biso   1.000  O
  O164     1.0000 0.81700  0.24321  0.55238  Biso   1.000  O
  O165     1.0000 0.74321  0.94762  0.18300  Biso   1.000  O
  O166     1.0000 0.74321  0.05238  0.81700  Biso   1.000  O
  O167     1.0000 0.44762  0.31700  0.25679  Biso   1.000  O
  O168     1.0000 0.55238  0.31700  0.74321  Biso   1.000  O
  O169     1.0000 0.25679  0.18300  0.94762  Biso   1.000  O
  O170     1.0000 0.81700  0.25679  0.94762  Biso   1.000  O
  O171     1.0000 0.74321  0.81700  0.94762  Biso   1.000  O
  O172     1.0000 0.18300  0.74321  0.94762  Biso   1.000  O
  O173     1.0000 0.25679  0.55238  0.68300  Biso   1.000  O
  O174     1.0000 0.25679  0.81700  0.05238  Biso   1.000  O
  O175     1.0000 0.25679  0.44762  0.31700  Biso   1.000  O
  O176     1.0000 0.44762  0.18300  0.24321  Biso   1.000  O
  O177     1.0000 0.74321  0.18300  0.05238  Biso   1.000  O
  O178     1.0000 0.55238  0.18300  0.75679  Biso   1.000  O
  O179     1.0000 0.44762  0.25679  0.68300  Biso   1.000  O
  O180     1.0000 0.18300  0.44762  0.75679  Biso   1.000  O
  O181     1.0000 0.81700  0.55238  0.75679  Biso   1.000  O
  O182     1.0000 0.44762  0.74321  0.31700  Biso   1.000  O
  O183     1.0000 0.81700  0.44762  0.24321  Biso   1.000  O
  O184     1.0000 0.55238  0.74321  0.68300  Biso   1.000  O
  O185     1.0000 0.55238  0.25679  0.31700  Biso   1.000  O
  O186     1.0000 0.18300  0.55238  0.24321  Biso   1.000  O
  O187     1.0000 0.18300  0.25679  0.05238  Biso   1.000  O
  O188     1.0000 0.81700  0.74321  0.05238  Biso   1.000  O
  O189     1.0000 0.74321  0.44762  0.68300  Biso   1.000  O
  O190     1.0000 0.74321  0.55238  0.31700  Biso   1.000  O
  O191     1.0000 0.44762  0.81700  0.75679  Biso   1.000  O
  O192     1.0000 0.55238  0.81700  0.24321  Biso   1.000  O
  C1       1.0000 0.17756  0.32244  0.11293  Biso   1.000  C
  C2       1.0000 0.67756  0.17756  0.11293  Biso   1.000  C
  C3       1.0000 0.82244  0.67756  0.11293  Biso   1.000  C
  C4       1.0000 0.32244  0.82244  0.11293  Biso   1.000  C
  C5       1.0000 0.17756  0.88707  0.32244  Biso   1.000  C
  C6       1.0000 0.17756  0.67756  0.88707  Biso   1.000  C
  C7       1.0000 0.17756  0.11293  0.67756  Biso   1.000  C
  C8       1.0000 0.11293  0.32244  0.82244  Biso   1.000  C
  C9       1.0000 0.82244  0.32244  0.88707  Biso   1.000  C
  C10      1.0000 0.88707  0.32244  0.17756  Biso   1.000  C
  C11      1.0000 0.11293  0.17756  0.32244  Biso   1.000  C
  C12      1.0000 0.32244  0.11293  0.17756  Biso   1.000  C
  C13      1.0000 0.67756  0.88707  0.17756  Biso   1.000  C
  C14      1.0000 0.11293  0.82244  0.67756  Biso   1.000  C
  C15      1.0000 0.67756  0.11293  0.82244  Biso   1.000  C
  C16      1.0000 0.88707  0.82244  0.32244  Biso   1.000  C
  C17      1.0000 0.88707  0.17756  0.67756  Biso   1.000  C
  C18      1.0000 0.32244  0.88707  0.82244  Biso   1.000  C
  C19      1.0000 0.32244  0.17756  0.88707  Biso   1.000  C
  C20      1.0000 0.67756  0.82244  0.88707  Biso   1.000  C
  C21      1.0000 0.82244  0.11293  0.32244  Biso   1.000  C
  C22      1.0000 0.82244  0.88707  0.67756  Biso   1.000  C
  C23      1.0000 0.11293  0.67756  0.17756  Biso   1.000  C
  C24      1.0000 0.88707  0.67756  0.82244  Biso   1.000  C
  C25      1.0000 0.17756  0.82244  0.61293  Biso   1.000  C
  C26      1.0000 0.67756  0.67756  0.61293  Biso   1.000  C
  C27      1.0000 0.82244  0.17756  0.61293  Biso   1.000  C
  C28      1.0000 0.32244  0.32244  0.61293  Biso   1.000  C
  C29      1.0000 0.17756  0.38707  0.82244  Biso   1.000  C
  C30      1.0000 0.17756  0.17756  0.38707  Biso   1.000  C
  C31      1.0000 0.17756  0.61293  0.17756  Biso   1.000  C
  C32      1.0000 0.11293  0.82244  0.32244  Biso   1.000  C
  C33      1.0000 0.82244  0.82244  0.38707  Biso   1.000  C
  C34      1.0000 0.88707  0.82244  0.67756  Biso   1.000  C
  C35      1.0000 0.11293  0.67756  0.82244  Biso   1.000  C
  C36      1.0000 0.32244  0.61293  0.67756  Biso   1.000  C
  C37      1.0000 0.67756  0.38707  0.67756  Biso   1.000  C
  C38      1.0000 0.11293  0.32244  0.17756  Biso   1.000  C
  C39      1.0000 0.67756  0.61293  0.32244  Biso   1.000  C
  C40      1.0000 0.88707  0.32244  0.82244  Biso   1.000  C
  C41      1.0000 0.88707  0.67756  0.17756  Biso   1.000  C
  C42      1.0000 0.32244  0.38707  0.32244  Biso   1.000  C
  C43      1.0000 0.32244  0.67756  0.38707  Biso   1.000  C
  C44      1.0000 0.67756  0.32244  0.38707  Biso   1.000  C
  C45      1.0000 0.82244  0.61293  0.82244  Biso   1.000  C
  C46      1.0000 0.82244  0.38707  0.17756  Biso   1.000  C
  C47      1.0000 0.11293  0.17756  0.67756  Biso   1.000  C
  C48      1.0000 0.88707  0.17756  0.32244  Biso   1.000  C
  C49      1.0000 0.67756  0.32244  0.61293  Biso   1.000  C
  C50      1.0000 0.17756  0.17756  0.61293  Biso   1.000  C
  C51      1.0000 0.32244  0.67756  0.61293  Biso   1.000  C
  C52      1.0000 0.82244  0.82244  0.61293  Biso   1.000  C
  C53      1.0000 0.67756  0.88707  0.82244  Biso   1.000  C
  C54      1.0000 0.67756  0.67756  0.38707  Biso   1.000  C
  C55      1.0000 0.67756  0.11293  0.17756  Biso   1.000  C
  C56      1.0000 0.61293  0.32244  0.32244  Biso   1.000  C
  C57      1.0000 0.32244  0.32244  0.38707  Biso   1.000  C
  C58      1.0000 0.38707  0.32244  0.67756  Biso   1.000  C
  C59      1.0000 0.61293  0.17756  0.82244  Biso   1.000  C
  C60      1.0000 0.82244  0.11293  0.67756  Biso   1.000  C
  C61      1.0000 0.17756  0.88707  0.67756  Biso   1.000  C
  C62      1.0000 0.61293  0.82244  0.17756  Biso   1.000  C
  C63      1.0000 0.17756  0.11293  0.32244  Biso   1.000  C
  C64      1.0000 0.38707  0.82244  0.82244  Biso   1.000  C
  C65      1.0000 0.38707  0.17756  0.17756  Biso   1.000  C
  C66      1.0000 0.82244  0.88707  0.32244  Biso   1.000  C
  C67      1.0000 0.82244  0.17756  0.38707  Biso   1.000  C
  C68      1.0000 0.17756  0.82244  0.38707  Biso   1.000  C
  C69      1.0000 0.32244  0.11293  0.82244  Biso   1.000  C
  C70      1.0000 0.32244  0.88707  0.17756  Biso   1.000  C
  C71      1.0000 0.61293  0.67756  0.67756  Biso   1.000  C
  C72      1.0000 0.38707  0.67756  0.32244  Biso   1.000  C
  C73      1.0000 0.67756  0.82244  0.11293  Biso   1.000  C
  C74      1.0000 0.17756  0.67756  0.11293  Biso   1.000  C
  C75      1.0000 0.32244  0.17756  0.11293  Biso   1.000  C
  C76      1.0000 0.82244  0.32244  0.11293  Biso   1.000  C
  C77      1.0000 0.67756  0.38707  0.32244  Biso   1.000  C
  C78      1.0000 0.67756  0.17756  0.88707  Biso   1.000  C
  C79      1.0000 0.67756  0.61293  0.67756  Biso   1.000  C
  C80      1.0000 0.61293  0.82244  0.82244  Biso   1.000  C
  C81      1.0000 0.32244  0.82244  0.88707  Biso   1.000  C
  C82      1.0000 0.38707  0.82244  0.17756  Biso   1.000  C
  C83      1.0000 0.61293  0.67756  0.32244  Biso   1.000  C
  C84      1.0000 0.82244  0.61293  0.17756  Biso   1.000  C
  C85      1.0000 0.17756  0.38707  0.17756  Biso   1.000  C
  C86      1.0000 0.61293  0.32244  0.67756  Biso   1.000  C
  C87      1.0000 0.17756  0.61293  0.82244  Biso   1.000  C
  C88      1.0000 0.38707  0.32244  0.32244  Biso   1.000  C
  C89      1.0000 0.38707  0.67756  0.67756  Biso   1.000  C
  C90      1.0000 0.82244  0.38707  0.82244  Biso   1.000  C
  C91      1.0000 0.82244  0.67756  0.88707  Biso   1.000  C
  C92      1.0000 0.17756  0.32244  0.88707  Biso   1.000  C
  C93      1.0000 0.32244  0.61293  0.32244  Biso   1.000  C
  C94      1.0000 0.32244  0.38707  0.67756  Biso   1.000  C
  C95      1.0000 0.61293  0.17756  0.17756  Biso   1.000  C
  C96      1.0000 0.38707  0.17756  0.82244  Biso   1.000  C
  C97      1.0000 0.20303  0.29697  0.06876  Biso   1.000  C
  C98      1.0000 0.70303  0.20303  0.06876  Biso   1.000  C
  C99      1.0000 0.79697  0.70303  0.06876  Biso   1.000  C
  C100     1.0000 0.29697  0.79697  0.06876  Biso   1.000  C
  C101     1.0000 0.20303  0.93124  0.29697  Biso   1.000  C
  C102     1.0000 0.20303  0.70303  0.93124  Biso   1.000  C
  C103     1.0000 0.20303  0.06876  0.70303  Biso   1.000  C
  C104     1.0000 0.06876  0.29697  0.79697  Biso   1.000  C
  C105     1.0000 0.79697  0.29697  0.93124  Biso   1.000  C
  C106     1.0000 0.93124  0.29697  0.20303  Biso   1.000  C
  C107     1.0000 0.06876  0.20303  0.29697  Biso   1.000  C
  C108     1.0000 0.29697  0.06876  0.20303  Biso   1.000  C
  C109     1.0000 0.70303  0.93124  0.20303  Biso   1.000  C
  C110     1.0000 0.06876  0.79697  0.70303  Biso   1.000  C
  C111     1.0000 0.70303  0.06876  0.79697  Biso   1.000  C
  C112     1.0000 0.93124  0.79697  0.29697  Biso   1.000  C
  C113     1.0000 0.93124  0.20303  0.70303  Biso   1.000  C
  C114     1.0000 0.29697  0.93124  0.79697  Biso   1.000  C
  C115     1.0000 0.29697  0.20303  0.93124  Biso   1.000  C
  C116     1.0000 0.70303  0.79697  0.93124  Biso   1.000  C
  C117     1.0000 0.79697  0.06876  0.29697  Biso   1.000  C
  C118     1.0000 0.79697  0.93124  0.70303  Biso   1.000  C
  C119     1.0000 0.06876  0.70303  0.20303  Biso   1.000  C
  C120     1.0000 0.93124  0.70303  0.79697  Biso   1.000  C
  C121     1.0000 0.20303  0.79697  0.56876  Biso   1.000  C
  C122     1.0000 0.70303  0.70303  0.56876  Biso   1.000  C
  C123     1.0000 0.79697  0.20303  0.56876  Biso   1.000  C
  C124     1.0000 0.29697  0.29697  0.56876  Biso   1.000  C
  C125     1.0000 0.20303  0.43124  0.79697  Biso   1.000  C
  C126     1.0000 0.20303  0.20303  0.43124  Biso   1.000  C
  C127     1.0000 0.20303  0.56876  0.20303  Biso   1.000  C
  C128     1.0000 0.06876  0.79697  0.29697  Biso   1.000  C
  C129     1.0000 0.79697  0.79697  0.43124  Biso   1.000  C
  C130     1.0000 0.93124  0.79697  0.70303  Biso   1.000  C
  C131     1.0000 0.06876  0.70303  0.79697  Biso   1.000  C
  C132     1.0000 0.29697  0.56876  0.70303  Biso   1.000  C
  C133     1.0000 0.70303  0.43124  0.70303  Biso   1.000  C
  C134     1.0000 0.06876  0.29697  0.20303  Biso   1.000  C
  C135     1.0000 0.70303  0.56876  0.29697  Biso   1.000  C
  C136     1.0000 0.93124  0.29697  0.79697  Biso   1.000  C
  C137     1.0000 0.93124  0.70303  0.20303  Biso   1.000  C
  C138     1.0000 0.29697  0.43124  0.29697  Biso   1.000  C
  C139     1.0000 0.29697  0.70303  0.43124  Biso   1.000  C
  C140     1.0000 0.70303  0.29697  0.43124  Biso   1.000  C
  C141     1.0000 0.79697  0.56876  0.79697  Biso   1.000  C
  C142     1.0000 0.79697  0.43124  0.20303  Biso   1.000  C
  C143     1.0000 0.06876  0.20303  0.70303  Biso   1.000  C
  C144     1.0000 0.93124  0.20303  0.29697  Biso   1.000  C
  C145     1.0000 0.70303  0.29697  0.56876  Biso   1.000  C
  C146     1.0000 0.20303  0.20303  0.56876  Biso   1.000  C
  C147     1.0000 0.29697  0.70303  0.56876  Biso   1.000  C
  C148     1.0000 0.79697  0.79697  0.56876  Biso   1.000  C
  C149     1.0000 0.70303  0.93124  0.79697  Biso   1.000  C
  C150     1.0000 0.70303  0.70303  0.43124  Biso   1.000  C
  C151     1.0000 0.70303  0.06876  0.20303  Biso   1.000  C
  C152     1.0000 0.56876  0.29697  0.29697  Biso   1.000  C
  C153     1.0000 0.29697  0.29697  0.43124  Biso   1.000  C
  C154     1.0000 0.43124  0.29697  0.70303  Biso   1.000  C
  C155     1.0000 0.56876  0.20303  0.79697  Biso   1.000  C
  C156     1.0000 0.79697  0.06876  0.70303  Biso   1.000  C
  C157     1.0000 0.20303  0.93124  0.70303  Biso   1.000  C
  C158     1.0000 0.56876  0.79697  0.20303  Biso   1.000  C
  C159     1.0000 0.20303  0.06876  0.29697  Biso   1.000  C
  C160     1.0000 0.43124  0.79697  0.79697  Biso   1.000  C
  C161     1.0000 0.43124  0.20303  0.20303  Biso   1.000  C
  C162     1.0000 0.79697  0.93124  0.29697  Biso   1.000  C
  C163     1.0000 0.79697  0.20303  0.43124  Biso   1.000  C
  C164     1.0000 0.20303  0.79697  0.43124  Biso   1.000  C
  C165     1.0000 0.29697  0.06876  0.79697  Biso   1.000  C
  C166     1.0000 0.29697  0.93124  0.20303  Biso   1.000  C
  C167     1.0000 0.56876  0.70303  0.70303  Biso   1.000  C
  C168     1.0000 0.43124  0.70303  0.29697  Biso   1.000  C
  C169     1.0000 0.70303  0.79697  0.06876  Biso   1.000  C
  C170     1.0000 0.20303  0.70303  0.06876  Biso   1.000  C
  C171     1.0000 0.29697  0.20303  0.06876  Biso   1.000  C
  C172     1.0000 0.79697  0.29697  0.06876  Biso   1.000  C
  C173     1.0000 0.70303  0.43124  0.29697  Biso   1.000  C
  C174     1.0000 0.70303  0.20303  0.93124  Biso   1.000  C
  C175     1.0000 0.70303  0.56876  0.70303  Biso   1.000  C
  C176     1.0000 0.56876  0.79697  0.79697  Biso   1.000  C
  C177     1.0000 0.29697  0.79697  0.93124  Biso   1.000  C
  C178     1.0000 0.43124  0.79697  0.20303  Biso   1.000  C
  C179     1.0000 0.56876  0.70303  0.29697  Biso   1.000  C
  C180     1.0000 0.79697  0.56876  0.20303  Biso   1.000  C
  C181     1.0000 0.20303  0.43124  0.20303  Biso   1.000  C
  C182     1.0000 0.56876  0.29697  0.70303  Biso   1.000  C
  C183     1.0000 0.20303  0.56876  0.79697  Biso   1.000  C
  C184     1.0000 0.43124  0.29697  0.29697  Biso   1.000  C
  C185     1.0000 0.43124  0.70303  0.70303  Biso   1.000  C
  C186     1.0000 0.79697  0.43124  0.79697  Biso   1.000  C
  C187     1.0000 0.79697  0.70303  0.93124  Biso   1.000  C
  C188     1.0000 0.20303  0.29697  0.93124  Biso   1.000  C
  C189     1.0000 0.29697  0.56876  0.29697  Biso   1.000  C
  C190     1.0000 0.29697  0.43124  0.70303  Biso   1.000  C
  C191     1.0000 0.56876  0.20303  0.20303  Biso   1.000  C
  C192     1.0000 0.43124  0.20303  0.79697  Biso   1.000  C
  C193     1.0000 0.13443  0.30123  0.13443  Biso   1.000  C
  C194     1.0000 0.69877  0.13443  0.13443  Biso   1.000  C
  C195     1.0000 0.86557  0.69877  0.13443  Biso   1.000  C
  C196     1.0000 0.30123  0.86557  0.13443  Biso   1.000  C
  C197     1.0000 0.13443  0.86557  0.30123  Biso   1.000  C
  C198     1.0000 0.13443  0.69877  0.86557  Biso   1.000  C
  C199     1.0000 0.13443  0.13443  0.69877  Biso   1.000  C
  C200     1.0000 0.13443  0.30123  0.86557  Biso   1.000  C
  C201     1.0000 0.86557  0.30123  0.86557  Biso   1.000  C
  C202     1.0000 0.86557  0.30123  0.13443  Biso   1.000  C
  C203     1.0000 0.13443  0.13443  0.30123  Biso   1.000  C
  C204     1.0000 0.30123  0.13443  0.13443  Biso   1.000  C
  C205     1.0000 0.69877  0.86557  0.13443  Biso   1.000  C
  C206     1.0000 0.13443  0.86557  0.69877  Biso   1.000  C
  C207     1.0000 0.69877  0.13443  0.86557  Biso   1.000  C
  C208     1.0000 0.86557  0.86557  0.30123  Biso   1.000  C
  C209     1.0000 0.86557  0.13443  0.69877  Biso   1.000  C
  C210     1.0000 0.30123  0.86557  0.86557  Biso   1.000  C
  C211     1.0000 0.30123  0.13443  0.86557  Biso   1.000  C
  C212     1.0000 0.69877  0.86557  0.86557  Biso   1.000  C
  C213     1.0000 0.86557  0.13443  0.30123  Biso   1.000  C
  C214     1.0000 0.86557  0.86557  0.69877  Biso   1.000  C
  C215     1.0000 0.13443  0.69877  0.13443  Biso   1.000  C
  C216     1.0000 0.86557  0.69877  0.86557  Biso   1.000  C
  C217     1.0000 0.13443  0.80123  0.63443  Biso   1.000  C
  C218     1.0000 0.69877  0.63443  0.63443  Biso   1.000  C
  C219     1.0000 0.86557  0.19877  0.63443  Biso   1.000  C
  C220     1.0000 0.30123  0.36557  0.63443  Biso   1.000  C
  C221     1.0000 0.13443  0.36557  0.80123  Biso   1.000  C
  C222     1.0000 0.13443  0.19877  0.36557  Biso   1.000  C
  C223     1.0000 0.13443  0.63443  0.19877  Biso   1.000  C
  C224     1.0000 0.13443  0.80123  0.36557  Biso   1.000  C
  C225     1.0000 0.86557  0.80123  0.36557  Biso   1.000  C
  C226     1.0000 0.86557  0.80123  0.63443  Biso   1.000  C
  C227     1.0000 0.13443  0.63443  0.80123  Biso   1.000  C
  C228     1.0000 0.30123  0.63443  0.63443  Biso   1.000  C
  C229     1.0000 0.69877  0.36557  0.63443  Biso   1.000  C
  C230     1.0000 0.13443  0.36557  0.19877  Biso   1.000  C
  C231     1.0000 0.69877  0.63443  0.36557  Biso   1.000  C
  C232     1.0000 0.86557  0.36557  0.80123  Biso   1.000  C
  C233     1.0000 0.86557  0.63443  0.19877  Biso   1.000  C
  C234     1.0000 0.30123  0.36557  0.36557  Biso   1.000  C
  C235     1.0000 0.30123  0.63443  0.36557  Biso   1.000  C
  C236     1.0000 0.69877  0.36557  0.36557  Biso   1.000  C
  C237     1.0000 0.86557  0.63443  0.80123  Biso   1.000  C
  C238     1.0000 0.86557  0.36557  0.19877  Biso   1.000  C
  C239     1.0000 0.13443  0.19877  0.63443  Biso   1.000  C
  C240     1.0000 0.86557  0.19877  0.36557  Biso   1.000  C
  C241     1.0000 0.63443  0.30123  0.63443  Biso   1.000  C
  C242     1.0000 0.19877  0.13443  0.63443  Biso   1.000  C
  C243     1.0000 0.36557  0.69877  0.63443  Biso   1.000  C
  C244     1.0000 0.80123  0.86557  0.63443  Biso   1.000  C
  C245     1.0000 0.63443  0.86557  0.80123  Biso   1.000  C
  C246     1.0000 0.63443  0.69877  0.36557  Biso   1.000  C
  C247     1.0000 0.63443  0.13443  0.19877  Biso   1.000  C
  C248     1.0000 0.63443  0.30123  0.36557  Biso   1.000  C
  C249     1.0000 0.36557  0.30123  0.36557  Biso   1.000  C
  C250     1.0000 0.36557  0.30123  0.63443  Biso   1.000  C
  C251     1.0000 0.63443  0.13443  0.80123  Biso   1.000  C
  C252     1.0000 0.80123  0.13443  0.63443  Biso   1.000  C
  C253     1.0000 0.19877  0.86557  0.63443  Biso   1.000  C
  C254     1.0000 0.63443  0.86557  0.19877  Biso   1.000  C
  C255     1.0000 0.19877  0.13443  0.36557  Biso   1.000  C
  C256     1.0000 0.36557  0.86557  0.80123  Biso   1.000  C
  C257     1.0000 0.36557  0.13443  0.19877  Biso   1.000  C
  C258     1.0000 0.80123  0.86557  0.36557  Biso   1.000  C
  C259     1.0000 0.80123  0.13443  0.36557  Biso   1.000  C
  C260     1.0000 0.19877  0.86557  0.36557  Biso   1.000  C
  C261     1.0000 0.36557  0.13443  0.80123  Biso   1.000  C
  C262     1.0000 0.36557  0.86557  0.19877  Biso   1.000  C
  C263     1.0000 0.63443  0.69877  0.63443  Biso   1.000  C
  C264     1.0000 0.36557  0.69877  0.36557  Biso   1.000  C
  C265     1.0000 0.63443  0.80123  0.13443  Biso   1.000  C
  C266     1.0000 0.19877  0.63443  0.13443  Biso   1.000  C
  C267     1.0000 0.36557  0.19877  0.13443  Biso   1.000  C
  C268     1.0000 0.80123  0.36557  0.13443  Biso   1.000  C
  C269     1.0000 0.63443  0.36557  0.30123  Biso   1.000  C
  C270     1.0000 0.63443  0.19877  0.86557  Biso   1.000  C
  C271     1.0000 0.63443  0.63443  0.69877  Biso   1.000  C
  C272     1.0000 0.63443  0.80123  0.86557  Biso   1.000  C
  C273     1.0000 0.36557  0.80123  0.86557  Biso   1.000  C
  C274     1.0000 0.36557  0.80123  0.13443  Biso   1.000  C
  C275     1.0000 0.63443  0.63443  0.30123  Biso   1.000  C
  C276     1.0000 0.80123  0.63443  0.13443  Biso   1.000  C
  C277     1.0000 0.19877  0.36557  0.13443  Biso   1.000  C
  C278     1.0000 0.63443  0.36557  0.69877  Biso   1.000  C
  C279     1.0000 0.19877  0.63443  0.86557  Biso   1.000  C
  C280     1.0000 0.36557  0.36557  0.30123  Biso   1.000  C
  C281     1.0000 0.36557  0.63443  0.69877  Biso   1.000  C
  C282     1.0000 0.80123  0.36557  0.86557  Biso   1.000  C
  C283     1.0000 0.80123  0.63443  0.86557  Biso   1.000  C
  C284     1.0000 0.19877  0.36557  0.86557  Biso   1.000  C
  C285     1.0000 0.36557  0.63443  0.30123  Biso   1.000  C
  C286     1.0000 0.36557  0.36557  0.69877  Biso   1.000  C
  C287     1.0000 0.63443  0.19877  0.13443  Biso   1.000  C
  C288     1.0000 0.36557  0.19877  0.86557  Biso   1.000  C
  H1       1.0000 0.11980  0.27260  0.11980  Biso   1.000  H
  H2       1.0000 0.72740  0.11980  0.11980  Biso   1.000  H
  H3       1.0000 0.88020  0.72740  0.11980  Biso   1.000  H
  H4       1.0000 0.27260  0.88020  0.11980  Biso   1.000  H
  H5       1.0000 0.11980  0.88020  0.27260  Biso   1.000  H
  H6       1.0000 0.11980  0.72740  0.88020  Biso   1.000  H
  H7       1.0000 0.11980  0.11980  0.72740  Biso   1.000  H
  H8       1.0000 0.11980  0.27260  0.88020  Biso   1.000  H
  H9       1.0000 0.88020  0.27260  0.88020  Biso   1.000  H
  H10      1.0000 0.88020  0.27260  0.11980  Biso   1.000  H
  H11      1.0000 0.11980  0.11980  0.27260  Biso   1.000  H
  H12      1.0000 0.27260  0.11980  0.11980  Biso   1.000  H
  H13      1.0000 0.72740  0.88020  0.11980  Biso   1.000  H
  H14      1.0000 0.11980  0.88020  0.72740  Biso   1.000  H
  H15      1.0000 0.72740  0.11980  0.88020  Biso   1.000  H
  H16      1.0000 0.88020  0.88020  0.27260  Biso   1.000  H
  H17      1.0000 0.88020  0.11980  0.72740  Biso   1.000  H
  H18      1.0000 0.27260  0.88020  0.88020  Biso   1.000  H
  H19      1.0000 0.27260  0.11980  0.88020  Biso   1.000  H
  H20      1.0000 0.72740  0.88020  0.88020  Biso   1.000  H
  H21      1.0000 0.88020  0.11980  0.27260  Biso   1.000  H
  H22      1.0000 0.88020  0.88020  0.72740  Biso   1.000  H
  H23      1.0000 0.11980  0.72740  0.11980  Biso   1.000  H
  H24      1.0000 0.88020  0.72740  0.88020  Biso   1.000  H
  H25      1.0000 0.11980  0.77260  0.61980  Biso   1.000  H
  H26      1.0000 0.72740  0.61980  0.61980  Biso   1.000  H
  H27      1.0000 0.88020  0.22740  0.61980  Biso   1.000  H
  H28      1.0000 0.27260  0.38020  0.61980  Biso   1.000  H
  H29      1.0000 0.11980  0.38020  0.77260  Biso   1.000  H
  H30      1.0000 0.11980  0.22740  0.38020  Biso   1.000  H
  H31      1.0000 0.11980  0.61980  0.22740  Biso   1.000  H
  H32      1.0000 0.11980  0.77260  0.38020  Biso   1.000  H
  H33      1.0000 0.88020  0.77260  0.38020  Biso   1.000  H
  H34      1.0000 0.88020  0.77260  0.61980  Biso   1.000  H
  H35      1.0000 0.11980  0.61980  0.77260  Biso   1.000  H
  H36      1.0000 0.27260  0.61980  0.61980  Biso   1.000  H
  H37      1.0000 0.72740  0.38020  0.61980  Biso   1.000  H
  H38      1.0000 0.11980  0.38020  0.22740  Biso   1.000  H
  H39      1.0000 0.72740  0.61980  0.38020  Biso   1.000  H
  H40      1.0000 0.88020  0.38020  0.77260  Biso   1.000  H
  H41      1.0000 0.88020  0.61980  0.22740  Biso   1.000  H
  H42      1.0000 0.27260  0.38020  0.38020  Biso   1.000  H
  H43      1.0000 0.27260  0.61980  0.38020  Biso   1.000  H
  H44      1.0000 0.72740  0.38020  0.38020  Biso   1.000  H
  H45      1.0000 0.88020  0.61980  0.77260  Biso   1.000  H
  H46      1.0000 0.88020  0.38020  0.22740  Biso   1.000  H
  H47      1.0000 0.11980  0.22740  0.61980  Biso   1.000  H
  H48      1.0000 0.88020  0.22740  0.38020  Biso   1.000  H
  H49      1.0000 0.61980  0.27260  0.61980  Biso   1.000  H
  H50      1.0000 0.22740  0.11980  0.61980  Biso   1.000  H
  H51      1.0000 0.38020  0.72740  0.61980  Biso   1.000  H
  H52      1.0000 0.77260  0.88020  0.61980  Biso   1.000  H
  H53      1.0000 0.61980  0.88020  0.77260  Biso   1.000  H
  H54      1.0000 0.61980  0.72740  0.38020  Biso   1.000  H
  H55      1.0000 0.61980  0.11980  0.22740  Biso   1.000  H
  H56      1.0000 0.61980  0.27260  0.38020  Biso   1.000  H
  H57      1.0000 0.38020  0.27260  0.38020  Biso   1.000  H
  H58      1.0000 0.38020  0.27260  0.61980  Biso   1.000  H
  H59      1.0000 0.61980  0.11980  0.77260  Biso   1.000  H
  H60      1.0000 0.77260  0.11980  0.61980  Biso   1.000  H
  H61      1.0000 0.22740  0.88020  0.61980  Biso   1.000  H
  H62      1.0000 0.61980  0.88020  0.22740  Biso   1.000  H
  H63      1.0000 0.22740  0.11980  0.38020  Biso   1.000  H
  H64      1.0000 0.38020  0.88020  0.77260  Biso   1.000  H
  H65      1.0000 0.38020  0.11980  0.22740  Biso   1.000  H
  H66      1.0000 0.77260  0.88020  0.38020  Biso   1.000  H
  H67      1.0000 0.77260  0.11980  0.38020  Biso   1.000  H
  H68      1.0000 0.22740  0.88020  0.38020  Biso   1.000  H
  H69      1.0000 0.38020  0.11980  0.77260  Biso   1.000  H
  H70      1.0000 0.38020  0.88020  0.22740  Biso   1.000  H
  H71      1.0000 0.61980  0.72740  0.61980  Biso   1.000  H
  H72      1.0000 0.38020  0.72740  0.38020  Biso   1.000  H
  H73      1.0000 0.61980  0.77260  0.11980  Biso   1.000  H
  H74      1.0000 0.22740  0.61980  0.11980  Biso   1.000  H
  H75      1.0000 0.38020  0.22740  0.11980  Biso   1.000  H
  H76      1.0000 0.77260  0.38020  0.11980  Biso   1.000  H
  H77      1.0000 0.61980  0.38020  0.27260  Biso   1.000  H
  H78      1.0000 0.61980  0.22740  0.88020  Biso   1.000  H
  H79      1.0000 0.61980  0.61980  0.72740  Biso   1.000  H
  H80      1.0000 0.61980  0.77260  0.88020  Biso   1.000  H
  H81      1.0000 0.38020  0.77260  0.88020  Biso   1.000  H
  H82      1.0000 0.38020  0.77260  0.11980  Biso   1.000  H
  H83      1.0000 0.61980  0.61980  0.27260  Biso   1.000  H
  H84      1.0000 0.77260  0.61980  0.11980  Biso   1.000  H
  H85      1.0000 0.22740  0.38020  0.11980  Biso   1.000  H
  H86      1.0000 0.61980  0.38020  0.72740  Biso   1.000  H
  H87      1.0000 0.22740  0.61980  0.88020  Biso   1.000  H
  H88      1.0000 0.38020  0.38020  0.27260  Biso   1.000  H
  H89      1.0000 0.38020  0.61980  0.72740  Biso   1.000  H
  H90      1.0000 0.77260  0.38020  0.88020  Biso   1.000  H
  H91      1.0000 0.77260  0.61980  0.88020  Biso   1.000  H
  H92      1.0000 0.22740  0.38020  0.88020  Biso   1.000  H
  H93      1.0000 0.38020  0.61980  0.27260  Biso   1.000  H
  H94      1.0000 0.38020  0.38020  0.72740  Biso   1.000  H
  H95      1.0000 0.61980  0.22740  0.11980  Biso   1.000  H
  H96      1.0000 0.38020  0.22740  0.88020  Biso   1.000  H
  O193     1.0000 0.34365  0.34365  0.00000  Biso   1.000  O
  O194     1.0000 0.65635  0.34365  0.00000  Biso   1.000  O
  O195     1.0000 0.65635  0.65635  0.00000  Biso   1.000  O
  O196     1.0000 0.34365  0.65635  0.00000  Biso   1.000  O
  O197     1.0000 0.34365  0.00000  0.34365  Biso   1.000  O
  O198     1.0000 0.34365  0.00000  0.65635  Biso   1.000  O
  O199     1.0000 0.00000  0.34365  0.65635  Biso   1.000  O
  O200     1.0000 0.00000  0.34365  0.34365  Biso   1.000  O
  O201     1.0000 0.65635  0.00000  0.34365  Biso   1.000  O
  O202     1.0000 0.00000  0.65635  0.65635  Biso   1.000  O
  O203     1.0000 0.65635  0.00000  0.65635  Biso   1.000  O
  O204     1.0000 0.00000  0.65635  0.34365  Biso   1.000  O
  O205     1.0000 0.34365  0.84365  0.50000  Biso   1.000  O
  O206     1.0000 0.65635  0.84365  0.50000  Biso   1.000  O
  O207     1.0000 0.65635  0.15635  0.50000  Biso   1.000  O
  O208     1.0000 0.34365  0.15635  0.50000  Biso   1.000  O
  O209     1.0000 0.34365  0.50000  0.84365  Biso   1.000  O
  O210     1.0000 0.34365  0.50000  0.15635  Biso   1.000  O
  O211     1.0000 0.00000  0.84365  0.15635  Biso   1.000  O
  O212     1.0000 0.00000  0.84365  0.84365  Biso   1.000  O
  O213     1.0000 0.65635  0.50000  0.84365  Biso   1.000  O
  O214     1.0000 0.00000  0.15635  0.15635  Biso   1.000  O
  O215     1.0000 0.65635  0.50000  0.15635  Biso   1.000  O
  O216     1.0000 0.00000  0.15635  0.84365  Biso   1.000  O
  O217     1.0000 0.84365  0.34365  0.50000  Biso   1.000  O
  O218     1.0000 0.15635  0.34365  0.50000  Biso   1.000  O
  O219     1.0000 0.15635  0.65635  0.50000  Biso   1.000  O
  O220     1.0000 0.84365  0.65635  0.50000  Biso   1.000  O
  O221     1.0000 0.84365  0.00000  0.84365  Biso   1.000  O
  O222     1.0000 0.84365  0.00000  0.15635  Biso   1.000  O
  O223     1.0000 0.50000  0.34365  0.15635  Biso   1.000  O
  O224     1.0000 0.50000  0.34365  0.84365  Biso   1.000  O
  O225     1.0000 0.15635  0.00000  0.84365  Biso   1.000  O
  O226     1.0000 0.50000  0.65635  0.15635  Biso   1.000  O
  O227     1.0000 0.15635  0.00000  0.15635  Biso   1.000  O
  O228     1.0000 0.50000  0.65635  0.84365  Biso   1.000  O
  O229     1.0000 0.84365  0.84365  0.00000  Biso   1.000  O
  O230     1.0000 0.15635  0.84365  0.00000  Biso   1.000  O
  O231     1.0000 0.15635  0.15635  0.00000  Biso   1.000  O
  O232     1.0000 0.84365  0.15635  0.00000  Biso   1.000  O
  O233     1.0000 0.84365  0.50000  0.34365  Biso   1.000  O
  O234     1.0000 0.84365  0.50000  0.65635  Biso   1.000  O
  O235     1.0000 0.50000  0.84365  0.65635  Biso   1.000  O
  O236     1.0000 0.50000  0.84365  0.34365  Biso   1.000  O
  O237     1.0000 0.15635  0.50000  0.34365  Biso   1.000  O
  O238     1.0000 0.50000  0.15635  0.65635  Biso   1.000  O
  O239     1.0000 0.15635  0.50000  0.65635  Biso   1.000  O
  O240     1.0000 0.50000  0.15635  0.34365  Biso   1.000  O
  C289     1.0000 0.50000  0.24100  0.00000  Biso   1.000  C
  C290     1.0000 0.75900  0.50000  0.00000  Biso   1.000  C
  C291     1.0000 0.50000  0.75900  0.00000  Biso   1.000  C
  C292     1.0000 0.24100  0.50000  0.00000  Biso   1.000  C
  C293     1.0000 0.50000  0.00000  0.24100  Biso   1.000  C
  C294     1.0000 0.50000  0.00000  0.75900  Biso   1.000  C
  C295     1.0000 0.00000  0.24100  0.50000  Biso   1.000  C
  C296     1.0000 0.00000  0.50000  0.24100  Biso   1.000  C
  C297     1.0000 0.24100  0.00000  0.50000  Biso   1.000  C
  C298     1.0000 0.75900  0.00000  0.50000  Biso   1.000  C
  C299     1.0000 0.00000  0.50000  0.75900  Biso   1.000  C
  C300     1.0000 0.00000  0.75900  0.50000  Biso   1.000  C
  C301     1.0000 0.50000  0.74100  0.50000  Biso   1.000  C
  C302     1.0000 0.50000  0.25900  0.50000  Biso   1.000  C
  C303     1.0000 0.50000  0.50000  0.74100  Biso   1.000  C
  C304     1.0000 0.50000  0.50000  0.25900  Biso   1.000  C
  C305     1.0000 0.00000  0.74100  0.00000  Biso   1.000  C
  C306     1.0000 0.00000  0.00000  0.74100  Biso   1.000  C
  C307     1.0000 0.00000  0.00000  0.25900  Biso   1.000  C
  C308     1.0000 0.00000  0.25900  0.00000  Biso   1.000  C
  C309     1.0000 0.25900  0.50000  0.50000  Biso   1.000  C
  C310     1.0000 0.74100  0.50000  0.50000  Biso   1.000  C
  C311     1.0000 0.74100  0.00000  0.00000  Biso   1.000  C
  C312     1.0000 0.25900  0.00000  0.00000  Biso   1.000  C
  C313     1.0000 0.46030  0.23700  0.96030  Biso   1.000  C
  C314     1.0000 0.76300  0.46030  0.96030  Biso   1.000  C
  C315     1.0000 0.53970  0.76300  0.96030  Biso   1.000  C
  C316     1.0000 0.23700  0.53970  0.96030  Biso   1.000  C
  C317     1.0000 0.46030  0.03970  0.23700  Biso   1.000  C
  C318     1.0000 0.46030  0.76300  0.03970  Biso   1.000  C
  C319     1.0000 0.46030  0.96030  0.76300  Biso   1.000  C
  C320     1.0000 0.96030  0.23700  0.53970  Biso   1.000  C
  C321     1.0000 0.53970  0.23700  0.03970  Biso   1.000  C
  C322     1.0000 0.03970  0.23700  0.46030  Biso   1.000  C
  C323     1.0000 0.96030  0.46030  0.23700  Biso   1.000  C
  C324     1.0000 0.23700  0.96030  0.46030  Biso   1.000  C
  C325     1.0000 0.76300  0.03970  0.46030  Biso   1.000  C
  C326     1.0000 0.96030  0.53970  0.76300  Biso   1.000  C
  C327     1.0000 0.76300  0.96030  0.53970  Biso   1.000  C
  C328     1.0000 0.03970  0.53970  0.23700  Biso   1.000  C
  C329     1.0000 0.03970  0.46030  0.76300  Biso   1.000  C
  C330     1.0000 0.23700  0.03970  0.53970  Biso   1.000  C
  C331     1.0000 0.23700  0.46030  0.03970  Biso   1.000  C
  C332     1.0000 0.76300  0.53970  0.03970  Biso   1.000  C
  C333     1.0000 0.53970  0.96030  0.23700  Biso   1.000  C
  C334     1.0000 0.53970  0.03970  0.76300  Biso   1.000  C
  C335     1.0000 0.96030  0.76300  0.46030  Biso   1.000  C
  C336     1.0000 0.03970  0.76300  0.53970  Biso   1.000  C
  C337     1.0000 0.46030  0.73700  0.46030  Biso   1.000  C
  C338     1.0000 0.76300  0.96030  0.46030  Biso   1.000  C
  C339     1.0000 0.53970  0.26300  0.46030  Biso   1.000  C
  C340     1.0000 0.23700  0.03970  0.46030  Biso   1.000  C
  C341     1.0000 0.46030  0.53970  0.73700  Biso   1.000  C
  C342     1.0000 0.46030  0.26300  0.53970  Biso   1.000  C
  C343     1.0000 0.46030  0.46030  0.26300  Biso   1.000  C
  C344     1.0000 0.96030  0.73700  0.03970  Biso   1.000  C
  C345     1.0000 0.53970  0.73700  0.53970  Biso   1.000  C
  C346     1.0000 0.03970  0.73700  0.96030  Biso   1.000  C
  C347     1.0000 0.96030  0.96030  0.73700  Biso   1.000  C
  C348     1.0000 0.23700  0.46030  0.96030  Biso   1.000  C
  C349     1.0000 0.76300  0.53970  0.96030  Biso   1.000  C
  C350     1.0000 0.96030  0.03970  0.26300  Biso   1.000  C
  C351     1.0000 0.76300  0.46030  0.03970  Biso   1.000  C
  C352     1.0000 0.03970  0.03970  0.73700  Biso   1.000  C
  C353     1.0000 0.03970  0.96030  0.26300  Biso   1.000  C
  C354     1.0000 0.23700  0.53970  0.03970  Biso   1.000  C
  C355     1.0000 0.23700  0.96030  0.53970  Biso   1.000  C
  C356     1.0000 0.76300  0.03970  0.53970  Biso   1.000  C
  C357     1.0000 0.53970  0.46030  0.73700  Biso   1.000  C
  C358     1.0000 0.53970  0.53970  0.26300  Biso   1.000  C
  C359     1.0000 0.96030  0.26300  0.96030  Biso   1.000  C
  C360     1.0000 0.03970  0.26300  0.03970  Biso   1.000  C
  C361     1.0000 0.96030  0.23700  0.46030  Biso   1.000  C
  C362     1.0000 0.26300  0.46030  0.46030  Biso   1.000  C
  C363     1.0000 0.03970  0.76300  0.46030  Biso   1.000  C
  C364     1.0000 0.73700  0.53970  0.46030  Biso   1.000  C
  C365     1.0000 0.96030  0.03970  0.73700  Biso   1.000  C
  C366     1.0000 0.96030  0.76300  0.53970  Biso   1.000  C
  C367     1.0000 0.96030  0.96030  0.26300  Biso   1.000  C
  C368     1.0000 0.46030  0.23700  0.03970  Biso   1.000  C
  C369     1.0000 0.03970  0.23700  0.53970  Biso   1.000  C
  C370     1.0000 0.53970  0.23700  0.96030  Biso   1.000  C
  C371     1.0000 0.46030  0.46030  0.73700  Biso   1.000  C
  C372     1.0000 0.73700  0.96030  0.96030  Biso   1.000  C
  C373     1.0000 0.26300  0.03970  0.96030  Biso   1.000  C
  C374     1.0000 0.46030  0.53970  0.26300  Biso   1.000  C
  C375     1.0000 0.26300  0.96030  0.03970  Biso   1.000  C
  C376     1.0000 0.53970  0.53970  0.73700  Biso   1.000  C
  C377     1.0000 0.53970  0.46030  0.26300  Biso   1.000  C
  C378     1.0000 0.73700  0.03970  0.03970  Biso   1.000  C
  C379     1.0000 0.73700  0.46030  0.53970  Biso   1.000  C
  C380     1.0000 0.26300  0.53970  0.53970  Biso   1.000  C
  C381     1.0000 0.03970  0.96030  0.73700  Biso   1.000  C
  C382     1.0000 0.03970  0.03970  0.26300  Biso   1.000  C
  C383     1.0000 0.46030  0.76300  0.96030  Biso   1.000  C
  C384     1.0000 0.53970  0.76300  0.03970  Biso   1.000  C
  C385     1.0000 0.96030  0.73700  0.96030  Biso   1.000  C
  C386     1.0000 0.26300  0.96030  0.96030  Biso   1.000  C
  C387     1.0000 0.03970  0.26300  0.96030  Biso   1.000  C
  C388     1.0000 0.73700  0.03970  0.96030  Biso   1.000  C
  C389     1.0000 0.96030  0.53970  0.23700  Biso   1.000  C
  C390     1.0000 0.96030  0.26300  0.03970  Biso   1.000  C
  C391     1.0000 0.96030  0.46030  0.76300  Biso   1.000  C
  C392     1.0000 0.46030  0.73700  0.53970  Biso   1.000  C
  C393     1.0000 0.03970  0.73700  0.03970  Biso   1.000  C
  C394     1.0000 0.53970  0.73700  0.46030  Biso   1.000  C
  C395     1.0000 0.46030  0.96030  0.23700  Biso   1.000  C
  C396     1.0000 0.73700  0.46030  0.46030  Biso   1.000  C
  C397     1.0000 0.26300  0.53970  0.46030  Biso   1.000  C
  C398     1.0000 0.46030  0.03970  0.76300  Biso   1.000  C
  C399     1.0000 0.26300  0.46030  0.53970  Biso   1.000  C
  C400     1.0000 0.53970  0.03970  0.23700  Biso   1.000  C
  C401     1.0000 0.53970  0.96030  0.76300  Biso   1.000  C
  C402     1.0000 0.73700  0.53970  0.53970  Biso   1.000  C
  C403     1.0000 0.73700  0.96030  0.03970  Biso   1.000  C
  C404     1.0000 0.26300  0.03970  0.03970  Biso   1.000  C
  C405     1.0000 0.03970  0.46030  0.23700  Biso   1.000  C
  C406     1.0000 0.03970  0.53970  0.76300  Biso   1.000  C
  C407     1.0000 0.46030  0.26300  0.46030  Biso   1.000  C
  C408     1.0000 0.53970  0.26300  0.53970  Biso   1.000  C
  C409     1.0000 0.44300  0.28800  0.94300  Biso   1.000  C
  C410     1.0000 0.71200  0.44300  0.94300  Biso   1.000  C
  C411     1.0000 0.55700  0.71200  0.94300  Biso   1.000  C
  C412     1.0000 0.28800  0.55700  0.94300  Biso   1.000  C
  C413     1.0000 0.44300  0.05700  0.28800  Biso   1.000  C
  C414     1.0000 0.44300  0.71200  0.05700  Biso   1.000  C
  C415     1.0000 0.44300  0.94300  0.71200  Biso   1.000  C
  C416     1.0000 0.94300  0.28800  0.55700  Biso   1.000  C
  C417     1.0000 0.55700  0.28800  0.05700  Biso   1.000  C
  C418     1.0000 0.05700  0.28800  0.44300  Biso   1.000  C
  C419     1.0000 0.94300  0.44300  0.28800  Biso   1.000  C
  C420     1.0000 0.28800  0.94300  0.44300  Biso   1.000  C
  C421     1.0000 0.71200  0.05700  0.44300  Biso   1.000  C
  C422     1.0000 0.94300  0.55700  0.71200  Biso   1.000  C
  C423     1.0000 0.71200  0.94300  0.55700  Biso   1.000  C
  C424     1.0000 0.05700  0.55700  0.28800  Biso   1.000  C
  C425     1.0000 0.05700  0.44300  0.71200  Biso   1.000  C
  C426     1.0000 0.28800  0.05700  0.55700  Biso   1.000  C
  C427     1.0000 0.28800  0.44300  0.05700  Biso   1.000  C
  C428     1.0000 0.71200  0.55700  0.05700  Biso   1.000  C
  C429     1.0000 0.55700  0.94300  0.28800  Biso   1.000  C
  C430     1.0000 0.55700  0.05700  0.71200  Biso   1.000  C
  C431     1.0000 0.94300  0.71200  0.44300  Biso   1.000  C
  C432     1.0000 0.05700  0.71200  0.55700  Biso   1.000  C
  C433     1.0000 0.44300  0.78800  0.44300  Biso   1.000  C
  C434     1.0000 0.71200  0.94300  0.44300  Biso   1.000  C
  C435     1.0000 0.55700  0.21200  0.44300  Biso   1.000  C
  C436     1.0000 0.28800  0.05700  0.44300  Biso   1.000  C
  C437     1.0000 0.44300  0.55700  0.78800  Biso   1.000  C
  C438     1.0000 0.44300  0.21200  0.55700  Biso   1.000  C
  C439     1.0000 0.44300  0.44300  0.21200  Biso   1.000  C
  C440     1.0000 0.94300  0.78800  0.05700  Biso   1.000  C
  C441     1.0000 0.55700  0.78800  0.55700  Biso   1.000  C
  C442     1.0000 0.05700  0.78800  0.94300  Biso   1.000  C
  C443     1.0000 0.94300  0.94300  0.78800  Biso   1.000  C
  C444     1.0000 0.28800  0.44300  0.94300  Biso   1.000  C
  C445     1.0000 0.71200  0.55700  0.94300  Biso   1.000  C
  C446     1.0000 0.94300  0.05700  0.21200  Biso   1.000  C
  C447     1.0000 0.71200  0.44300  0.05700  Biso   1.000  C
  C448     1.0000 0.05700  0.05700  0.78800  Biso   1.000  C
  C449     1.0000 0.05700  0.94300  0.21200  Biso   1.000  C
  C450     1.0000 0.28800  0.55700  0.05700  Biso   1.000  C
  C451     1.0000 0.28800  0.94300  0.55700  Biso   1.000  C
  C452     1.0000 0.71200  0.05700  0.55700  Biso   1.000  C
  C453     1.0000 0.55700  0.44300  0.78800  Biso   1.000  C
  C454     1.0000 0.55700  0.55700  0.21200  Biso   1.000  C
  C455     1.0000 0.94300  0.21200  0.94300  Biso   1.000  C
  C456     1.0000 0.05700  0.21200  0.05700  Biso   1.000  C
  C457     1.0000 0.94300  0.28800  0.44300  Biso   1.000  C
  C458     1.0000 0.21200  0.44300  0.44300  Biso   1.000  C
  C459     1.0000 0.05700  0.71200  0.44300  Biso   1.000  C
  C460     1.0000 0.78800  0.55700  0.44300  Biso   1.000  C
  C461     1.0000 0.94300  0.05700  0.78800  Biso   1.000  C
  C462     1.0000 0.94300  0.71200  0.55700  Biso   1.000  C
  C463     1.0000 0.94300  0.94300  0.21200  Biso   1.000  C
  C464     1.0000 0.44300  0.28800  0.05700  Biso   1.000  C
  C465     1.0000 0.05700  0.28800  0.55700  Biso   1.000  C
  C466     1.0000 0.55700  0.28800  0.94300  Biso   1.000  C
  C467     1.0000 0.44300  0.44300  0.78800  Biso   1.000  C
  C468     1.0000 0.78800  0.94300  0.94300  Biso   1.000  C
  C469     1.0000 0.21200  0.05700  0.94300  Biso   1.000  C
  C470     1.0000 0.44300  0.55700  0.21200  Biso   1.000  C
  C471     1.0000 0.21200  0.94300  0.05700  Biso   1.000  C
  C472     1.0000 0.55700  0.55700  0.78800  Biso   1.000  C
  C473     1.0000 0.55700  0.44300  0.21200  Biso   1.000  C
  C474     1.0000 0.78800  0.05700  0.05700  Biso   1.000  C
  C475     1.0000 0.78800  0.44300  0.55700  Biso   1.000  C
  C476     1.0000 0.21200  0.55700  0.55700  Biso   1.000  C
  C477     1.0000 0.05700  0.94300  0.78800  Biso   1.000  C
  C478     1.0000 0.05700  0.05700  0.21200  Biso   1.000  C
  C479     1.0000 0.44300  0.71200  0.94300  Biso   1.000  C
  C480     1.0000 0.55700  0.71200  0.05700  Biso   1.000  C
  C481     1.0000 0.94300  0.78800  0.94300  Biso   1.000  C
  C482     1.0000 0.21200  0.94300  0.94300  Biso   1.000  C
  C483     1.0000 0.05700  0.21200  0.94300  Biso   1.000  C
  C484     1.0000 0.78800  0.05700  0.94300  Biso   1.000  C
  C485     1.0000 0.94300  0.55700  0.28800  Biso   1.000  C
  C486     1.0000 0.94300  0.21200  0.05700  Biso   1.000  C
  C487     1.0000 0.94300  0.44300  0.71200  Biso   1.000  C
  C488     1.0000 0.44300  0.78800  0.55700  Biso   1.000  C
  C489     1.0000 0.05700  0.78800  0.05700  Biso   1.000  C
  C490     1.0000 0.55700  0.78800  0.44300  Biso   1.000  C
  C491     1.0000 0.44300  0.94300  0.28800  Biso   1.000  C
  C492     1.0000 0.78800  0.44300  0.44300  Biso   1.000  C
  C493     1.0000 0.21200  0.55700  0.44300  Biso   1.000  C
  C494     1.0000 0.44300  0.05700  0.71200  Biso   1.000  C
  C495     1.0000 0.21200  0.44300  0.55700  Biso   1.000  C
  C496     1.0000 0.55700  0.05700  0.28800  Biso   1.000  C
  C497     1.0000 0.55700  0.94300  0.71200  Biso   1.000  C
  C498     1.0000 0.78800  0.55700  0.55700  Biso   1.000  C
  C499     1.0000 0.78800  0.94300  0.05700  Biso   1.000  C
  C500     1.0000 0.21200  0.05700  0.05700  Biso   1.000  C
  C501     1.0000 0.05700  0.44300  0.28800  Biso   1.000  C
  C502     1.0000 0.05700  0.55700  0.71200  Biso   1.000  C
  C503     1.0000 0.44300  0.21200  0.44300  Biso   1.000  C
  C504     1.0000 0.55700  0.21200  0.55700  Biso   1.000  C
  C505     1.0000 0.38670  0.35900  0.96110  Biso   1.000  C
  C506     1.0000 0.64100  0.38670  0.96110  Biso   1.000  C
  C507     1.0000 0.61330  0.64100  0.96110  Biso   1.000  C
  C508     1.0000 0.35900  0.61330  0.96110  Biso   1.000  C
  C509     1.0000 0.38670  0.03890  0.35900  Biso   1.000  C
  C510     1.0000 0.38670  0.64100  0.03890  Biso   1.000  C
  C511     1.0000 0.38670  0.96110  0.64100  Biso   1.000  C
  C512     1.0000 0.96110  0.35900  0.61330  Biso   1.000  C
  C513     1.0000 0.61330  0.35900  0.03890  Biso   1.000  C
  C514     1.0000 0.03890  0.35900  0.38670  Biso   1.000  C
  C515     1.0000 0.96110  0.38670  0.35900  Biso   1.000  C
  C516     1.0000 0.35900  0.96110  0.38670  Biso   1.000  C
  C517     1.0000 0.64100  0.03890  0.38670  Biso   1.000  C
  C518     1.0000 0.96110  0.61330  0.64100  Biso   1.000  C
  C519     1.0000 0.64100  0.96110  0.61330  Biso   1.000  C
  C520     1.0000 0.03890  0.61330  0.35900  Biso   1.000  C
  C521     1.0000 0.03890  0.38670  0.64100  Biso   1.000  C
  C522     1.0000 0.35900  0.03890  0.61330  Biso   1.000  C
  C523     1.0000 0.35900  0.38670  0.03890  Biso   1.000  C
  C524     1.0000 0.64100  0.61330  0.03890  Biso   1.000  C
  C525     1.0000 0.61330  0.96110  0.35900  Biso   1.000  C
  C526     1.0000 0.61330  0.03890  0.64100  Biso   1.000  C
  C527     1.0000 0.96110  0.64100  0.38670  Biso   1.000  C
  C528     1.0000 0.03890  0.64100  0.61330  Biso   1.000  C
  C529     1.0000 0.38670  0.85900  0.46110  Biso   1.000  C
  C530     1.0000 0.64100  0.88670  0.46110  Biso   1.000  C
  C531     1.0000 0.61330  0.14100  0.46110  Biso   1.000  C
  C532     1.0000 0.35900  0.11330  0.46110  Biso   1.000  C
  C533     1.0000 0.38670  0.53890  0.85900  Biso   1.000  C
  C534     1.0000 0.38670  0.14100  0.53890  Biso   1.000  C
  C535     1.0000 0.38670  0.46110  0.14100  Biso   1.000  C
  C536     1.0000 0.96110  0.85900  0.11330  Biso   1.000  C
  C537     1.0000 0.61330  0.85900  0.53890  Biso   1.000  C
  C538     1.0000 0.03890  0.85900  0.88670  Biso   1.000  C
  C539     1.0000 0.96110  0.88670  0.85900  Biso   1.000  C
  C540     1.0000 0.35900  0.46110  0.88670  Biso   1.000  C
  C541     1.0000 0.64100  0.53890  0.88670  Biso   1.000  C
  C542     1.0000 0.96110  0.11330  0.14100  Biso   1.000  C
  C543     1.0000 0.64100  0.46110  0.11330  Biso   1.000  C
  C544     1.0000 0.03890  0.11330  0.85900  Biso   1.000  C
  C545     1.0000 0.03890  0.88670  0.14100  Biso   1.000  C
  C546     1.0000 0.35900  0.53890  0.11330  Biso   1.000  C
  C547     1.0000 0.35900  0.88670  0.53890  Biso   1.000  C
  C548     1.0000 0.64100  0.11330  0.53890  Biso   1.000  C
  C549     1.0000 0.61330  0.46110  0.85900  Biso   1.000  C
  C550     1.0000 0.61330  0.53890  0.14100  Biso   1.000  C
  C551     1.0000 0.96110  0.14100  0.88670  Biso   1.000  C
  C552     1.0000 0.03890  0.14100  0.11330  Biso   1.000  C
  C553     1.0000 0.88670  0.35900  0.46110  Biso   1.000  C
  C554     1.0000 0.14100  0.38670  0.46110  Biso   1.000  C
  C555     1.0000 0.11330  0.64100  0.46110  Biso   1.000  C
  C556     1.0000 0.85900  0.61330  0.46110  Biso   1.000  C
  C557     1.0000 0.88670  0.03890  0.85900  Biso   1.000  C
  C558     1.0000 0.88670  0.64100  0.53890  Biso   1.000  C
  C559     1.0000 0.88670  0.96110  0.14100  Biso   1.000  C
  C560     1.0000 0.46110  0.35900  0.11330  Biso   1.000  C
  C561     1.0000 0.11330  0.35900  0.53890  Biso   1.000  C
  C562     1.0000 0.53890  0.35900  0.88670  Biso   1.000  C
  C563     1.0000 0.46110  0.38670  0.85900  Biso   1.000  C
  C564     1.0000 0.85900  0.96110  0.88670  Biso   1.000  C
  C565     1.0000 0.14100  0.03890  0.88670  Biso   1.000  C
  C566     1.0000 0.46110  0.61330  0.14100  Biso   1.000  C
  C567     1.0000 0.14100  0.96110  0.11330  Biso   1.000  C
  C568     1.0000 0.53890  0.61330  0.85900  Biso   1.000  C
  C569     1.0000 0.53890  0.38670  0.14100  Biso   1.000  C
  C570     1.0000 0.85900  0.03890  0.11330  Biso   1.000  C
  C571     1.0000 0.85900  0.38670  0.53890  Biso   1.000  C
  C572     1.0000 0.14100  0.61330  0.53890  Biso   1.000  C
  C573     1.0000 0.11330  0.96110  0.85900  Biso   1.000  C
  C574     1.0000 0.11330  0.03890  0.14100  Biso   1.000  C
  C575     1.0000 0.46110  0.64100  0.88670  Biso   1.000  C
  C576     1.0000 0.53890  0.64100  0.11330  Biso   1.000  C
  C577     1.0000 0.88670  0.85900  0.96110  Biso   1.000  C
  C578     1.0000 0.14100  0.88670  0.96110  Biso   1.000  C
  C579     1.0000 0.11330  0.14100  0.96110  Biso   1.000  C
  C580     1.0000 0.85900  0.11330  0.96110  Biso   1.000  C
  C581     1.0000 0.88670  0.53890  0.35900  Biso   1.000  C
  C582     1.0000 0.88670  0.14100  0.03890  Biso   1.000  C
  C583     1.0000 0.88670  0.46110  0.64100  Biso   1.000  C
  C584     1.0000 0.46110  0.85900  0.61330  Biso   1.000  C
  C585     1.0000 0.11330  0.85900  0.03890  Biso   1.000  C
  C586     1.0000 0.53890  0.85900  0.38670  Biso   1.000  C
  C587     1.0000 0.46110  0.88670  0.35900  Biso   1.000  C
  C588     1.0000 0.85900  0.46110  0.38670  Biso   1.000  C
  C589     1.0000 0.14100  0.53890  0.38670  Biso   1.000  C
  C590     1.0000 0.46110  0.11330  0.64100  Biso   1.000  C
  C591     1.0000 0.14100  0.46110  0.61330  Biso   1.000  C
  C592     1.0000 0.53890  0.11330  0.35900  Biso   1.000  C
  C593     1.0000 0.53890  0.88670  0.64100  Biso   1.000  C
  C594     1.0000 0.85900  0.53890  0.61330  Biso   1.000  C
  C595     1.0000 0.85900  0.88670  0.03890  Biso   1.000  C
  C596     1.0000 0.14100  0.11330  0.03890  Biso   1.000  C
  C597     1.0000 0.11330  0.46110  0.35900  Biso   1.000  C
  C598     1.0000 0.11330  0.53890  0.64100  Biso   1.000  C
  C599     1.0000 0.46110  0.14100  0.38670  Biso   1.000  C
  C600     1.0000 0.53890  0.14100  0.61330  Biso   1.000  C
  C601     1.0000 0.61330  0.64100  0.03890  Biso   1.000  C
  C602     1.0000 0.35900  0.61330  0.03890  Biso   1.000  C
  C603     1.0000 0.38670  0.35900  0.03890  Biso   1.000  C
  C604     1.0000 0.64100  0.38670  0.03890  Biso   1.000  C
  C605     1.0000 0.61330  0.96110  0.64100  Biso   1.000  C
  C606     1.0000 0.61330  0.35900  0.96110  Biso   1.000  C
  C607     1.0000 0.61330  0.03890  0.35900  Biso   1.000  C
  C608     1.0000 0.03890  0.64100  0.38670  Biso   1.000  C
  C609     1.0000 0.38670  0.64100  0.96110  Biso   1.000  C
  C610     1.0000 0.96110  0.64100  0.61330  Biso   1.000  C
  C611     1.0000 0.03890  0.61330  0.64100  Biso   1.000  C
  C612     1.0000 0.64100  0.03890  0.61330  Biso   1.000  C
  C613     1.0000 0.35900  0.96110  0.61330  Biso   1.000  C
  C614     1.0000 0.03890  0.38670  0.35900  Biso   1.000  C
  C615     1.0000 0.35900  0.03890  0.38670  Biso   1.000  C
  C616     1.0000 0.96110  0.38670  0.64100  Biso   1.000  C
  C617     1.0000 0.96110  0.61330  0.35900  Biso   1.000  C
  C618     1.0000 0.64100  0.96110  0.38670  Biso   1.000  C
  C619     1.0000 0.64100  0.61330  0.96110  Biso   1.000  C
  C620     1.0000 0.35900  0.38670  0.96110  Biso   1.000  C
  C621     1.0000 0.38670  0.03890  0.64100  Biso   1.000  C
  C622     1.0000 0.38670  0.96110  0.35900  Biso   1.000  C
  C623     1.0000 0.03890  0.35900  0.61330  Biso   1.000  C
  C624     1.0000 0.96110  0.35900  0.38670  Biso   1.000  C
  C625     1.0000 0.61330  0.14100  0.53890  Biso   1.000  C
  C626     1.0000 0.35900  0.11330  0.53890  Biso   1.000  C
  C627     1.0000 0.38670  0.85900  0.53890  Biso   1.000  C
  C628     1.0000 0.64100  0.88670  0.53890  Biso   1.000  C
  C629     1.0000 0.61330  0.46110  0.14100  Biso   1.000  C
  C630     1.0000 0.61330  0.85900  0.46110  Biso   1.000  C
  C631     1.0000 0.61330  0.53890  0.85900  Biso   1.000  C
  C632     1.0000 0.03890  0.14100  0.88670  Biso   1.000  C
  C633     1.0000 0.38670  0.14100  0.46110  Biso   1.000  C
  C634     1.0000 0.96110  0.14100  0.11330  Biso   1.000  C
  C635     1.0000 0.03890  0.11330  0.14100  Biso   1.000  C
  C636     1.0000 0.64100  0.53890  0.11330  Biso   1.000  C
  C637     1.0000 0.35900  0.46110  0.11330  Biso   1.000  C
  C638     1.0000 0.03890  0.88670  0.85900  Biso   1.000  C
  C639     1.0000 0.35900  0.53890  0.88670  Biso   1.000  C
  C640     1.0000 0.96110  0.88670  0.14100  Biso   1.000  C
  C641     1.0000 0.96110  0.11330  0.85900  Biso   1.000  C
  C642     1.0000 0.64100  0.46110  0.88670  Biso   1.000  C
  C643     1.0000 0.64100  0.11330  0.46110  Biso   1.000  C
  C644     1.0000 0.35900  0.88670  0.46110  Biso   1.000  C
  C645     1.0000 0.38670  0.53890  0.14100  Biso   1.000  C
  C646     1.0000 0.38670  0.46110  0.85900  Biso   1.000  C
  C647     1.0000 0.03890  0.85900  0.11330  Biso   1.000  C
  C648     1.0000 0.96110  0.85900  0.88670  Biso   1.000  C
  C649     1.0000 0.11330  0.64100  0.53890  Biso   1.000  C
  C650     1.0000 0.85900  0.61330  0.53890  Biso   1.000  C
  C651     1.0000 0.88670  0.35900  0.53890  Biso   1.000  C
  C652     1.0000 0.14100  0.38670  0.53890  Biso   1.000  C
  C653     1.0000 0.11330  0.96110  0.14100  Biso   1.000  C
  C654     1.0000 0.11330  0.35900  0.46110  Biso   1.000  C
  C655     1.0000 0.11330  0.03890  0.85900  Biso   1.000  C
  C656     1.0000 0.53890  0.64100  0.88670  Biso   1.000  C
  C657     1.0000 0.88670  0.64100  0.46110  Biso   1.000  C
  C658     1.0000 0.46110  0.64100  0.11330  Biso   1.000  C
  C659     1.0000 0.53890  0.61330  0.14100  Biso   1.000  C
  C660     1.0000 0.14100  0.03890  0.11330  Biso   1.000  C
  C661     1.0000 0.85900  0.96110  0.11330  Biso   1.000  C
  C662     1.0000 0.53890  0.38670  0.85900  Biso   1.000  C
  C663     1.0000 0.85900  0.03890  0.88670  Biso   1.000  C
  C664     1.0000 0.46110  0.38670  0.14100  Biso   1.000  C
  C665     1.0000 0.46110  0.61330  0.85900  Biso   1.000  C
  C666     1.0000 0.14100  0.96110  0.88670  Biso   1.000  C
  C667     1.0000 0.14100  0.61330  0.46110  Biso   1.000  C
  C668     1.0000 0.85900  0.38670  0.46110  Biso   1.000  C
  C669     1.0000 0.88670  0.03890  0.14100  Biso   1.000  C
  C670     1.0000 0.88670  0.96110  0.85900  Biso   1.000  C
  C671     1.0000 0.53890  0.35900  0.11330  Biso   1.000  C
  C672     1.0000 0.46110  0.35900  0.88670  Biso   1.000  C
  C673     1.0000 0.11330  0.14100  0.03890  Biso   1.000  C
  C674     1.0000 0.85900  0.11330  0.03890  Biso   1.000  C
  C675     1.0000 0.88670  0.85900  0.03890  Biso   1.000  C
  C676     1.0000 0.14100  0.88670  0.03890  Biso   1.000  C
  C677     1.0000 0.11330  0.46110  0.64100  Biso   1.000  C
  C678     1.0000 0.11330  0.85900  0.96110  Biso   1.000  C
  C679     1.0000 0.11330  0.53890  0.35900  Biso   1.000  C
  C680     1.0000 0.53890  0.14100  0.38670  Biso   1.000  C
  C681     1.0000 0.88670  0.14100  0.96110  Biso   1.000  C
  C682     1.0000 0.46110  0.14100  0.61330  Biso   1.000  C
  C683     1.0000 0.53890  0.11330  0.64100  Biso   1.000  C
  C684     1.0000 0.14100  0.53890  0.61330  Biso   1.000  C
  C685     1.0000 0.85900  0.46110  0.61330  Biso   1.000  C
  C686     1.0000 0.53890  0.88670  0.35900  Biso   1.000  C
  C687     1.0000 0.85900  0.53890  0.38670  Biso   1.000  C
  C688     1.0000 0.46110  0.88670  0.64100  Biso   1.000  C
  C689     1.0000 0.46110  0.11330  0.35900  Biso   1.000  C
  C690     1.0000 0.14100  0.46110  0.38670  Biso   1.000  C
  C691     1.0000 0.14100  0.11330  0.96110  Biso   1.000  C
  C692     1.0000 0.85900  0.88670  0.96110  Biso   1.000  C
  C693     1.0000 0.88670  0.53890  0.64100  Biso   1.000  C
  C694     1.0000 0.88670  0.46110  0.35900  Biso   1.000  C
  C695     1.0000 0.53890  0.85900  0.61330  Biso   1.000  C
  C696     1.0000 0.46110  0.85900  0.38670  Biso   1.000  C
  C697     1.0000 0.36000  0.37400  0.91340  Biso   1.000  C
  C698     1.0000 0.62600  0.36000  0.91340  Biso   1.000  C
  C699     1.0000 0.64000  0.62600  0.91340  Biso   1.000  C
  C700     1.0000 0.37400  0.64000  0.91340  Biso   1.000  C
  C701     1.0000 0.36000  0.08660  0.37400  Biso   1.000  C
  C702     1.0000 0.36000  0.62600  0.08660  Biso   1.000  C
  C703     1.0000 0.36000  0.91340  0.62600  Biso   1.000  C
  C704     1.0000 0.91340  0.37400  0.64000  Biso   1.000  C
  C705     1.0000 0.64000  0.37400  0.08660  Biso   1.000  C
  C706     1.0000 0.08660  0.37400  0.36000  Biso   1.000  C
  C707     1.0000 0.91340  0.36000  0.37400  Biso   1.000  C
  C708     1.0000 0.37400  0.91340  0.36000  Biso   1.000  C
  C709     1.0000 0.62600  0.08660  0.36000  Biso   1.000  C
  C710     1.0000 0.91340  0.64000  0.62600  Biso   1.000  C
  C711     1.0000 0.62600  0.91340  0.64000  Biso   1.000  C
  C712     1.0000 0.08660  0.64000  0.37400  Biso   1.000  C
  C713     1.0000 0.08660  0.36000  0.62600  Biso   1.000  C
  C714     1.0000 0.37400  0.08660  0.64000  Biso   1.000  C
  C715     1.0000 0.37400  0.36000  0.08660  Biso   1.000  C
  C716     1.0000 0.62600  0.64000  0.08660  Biso   1.000  C
  C717     1.0000 0.64000  0.91340  0.37400  Biso   1.000  C
  C718     1.0000 0.64000  0.08660  0.62600  Biso   1.000  C
  C719     1.0000 0.91340  0.62600  0.36000  Biso   1.000  C
  C720     1.0000 0.08660  0.62600  0.64000  Biso   1.000  C
  C721     1.0000 0.36000  0.87400  0.41340  Biso   1.000  C
  C722     1.0000 0.62600  0.86000  0.41340  Biso   1.000  C
  C723     1.0000 0.64000  0.12600  0.41340  Biso   1.000  C
  C724     1.0000 0.37400  0.14000  0.41340  Biso   1.000  C
  C725     1.0000 0.36000  0.58660  0.87400  Biso   1.000  C
  C726     1.0000 0.36000  0.12600  0.58660  Biso   1.000  C
  C727     1.0000 0.36000  0.41340  0.12600  Biso   1.000  C
  C728     1.0000 0.91340  0.87400  0.14000  Biso   1.000  C
  C729     1.0000 0.64000  0.87400  0.58660  Biso   1.000  C
  C730     1.0000 0.08660  0.87400  0.86000  Biso   1.000  C
  C731     1.0000 0.91340  0.86000  0.87400  Biso   1.000  C
  C732     1.0000 0.37400  0.41340  0.86000  Biso   1.000  C
  C733     1.0000 0.62600  0.58660  0.86000  Biso   1.000  C
  C734     1.0000 0.91340  0.14000  0.12600  Biso   1.000  C
  C735     1.0000 0.62600  0.41340  0.14000  Biso   1.000  C
  C736     1.0000 0.08660  0.14000  0.87400  Biso   1.000  C
  C737     1.0000 0.08660  0.86000  0.12600  Biso   1.000  C
  C738     1.0000 0.37400  0.58660  0.14000  Biso   1.000  C
  C739     1.0000 0.37400  0.86000  0.58660  Biso   1.000  C
  C740     1.0000 0.62600  0.14000  0.58660  Biso   1.000  C
  C741     1.0000 0.64000  0.41340  0.87400  Biso   1.000  C
  C742     1.0000 0.64000  0.58660  0.12600  Biso   1.000  C
  C743     1.0000 0.91340  0.12600  0.86000  Biso   1.000  C
  C744     1.0000 0.08660  0.12600  0.14000  Biso   1.000  C
  C745     1.0000 0.86000  0.37400  0.41340  Biso   1.000  C
  C746     1.0000 0.12600  0.36000  0.41340  Biso   1.000  C
  C747     1.0000 0.14000  0.62600  0.41340  Biso   1.000  C
  C748     1.0000 0.87400  0.64000  0.41340  Biso   1.000  C
  C749     1.0000 0.86000  0.08660  0.87400  Biso   1.000  C
  C750     1.0000 0.86000  0.62600  0.58660  Biso   1.000  C
  C751     1.0000 0.86000  0.91340  0.12600  Biso   1.000  C
  C752     1.0000 0.41340  0.37400  0.14000  Biso   1.000  C
  C753     1.0000 0.14000  0.37400  0.58660  Biso   1.000  C
  C754     1.0000 0.58660  0.37400  0.86000  Biso   1.000  C
  C755     1.0000 0.41340  0.36000  0.87400  Biso   1.000  C
  C756     1.0000 0.87400  0.91340  0.86000  Biso   1.000  C
  C757     1.0000 0.12600  0.08660  0.86000  Biso   1.000  C
  C758     1.0000 0.41340  0.64000  0.12600  Biso   1.000  C
  C759     1.0000 0.12600  0.91340  0.14000  Biso   1.000  C
  C760     1.0000 0.58660  0.64000  0.87400  Biso   1.000  C
  C761     1.0000 0.58660  0.36000  0.12600  Biso   1.000  C
  C762     1.0000 0.87400  0.08660  0.14000  Biso   1.000  C
  C763     1.0000 0.87400  0.36000  0.58660  Biso   1.000  C
  C764     1.0000 0.12600  0.64000  0.58660  Biso   1.000  C
  C765     1.0000 0.14000  0.91340  0.87400  Biso   1.000  C
  C766     1.0000 0.14000  0.08660  0.12600  Biso   1.000  C
  C767     1.0000 0.41340  0.62600  0.86000  Biso   1.000  C
  C768     1.0000 0.58660  0.62600  0.14000  Biso   1.000  C
  C769     1.0000 0.86000  0.87400  0.91340  Biso   1.000  C
  C770     1.0000 0.12600  0.86000  0.91340  Biso   1.000  C
  C771     1.0000 0.14000  0.12600  0.91340  Biso   1.000  C
  C772     1.0000 0.87400  0.14000  0.91340  Biso   1.000  C
  C773     1.0000 0.86000  0.58660  0.37400  Biso   1.000  C
  C774     1.0000 0.86000  0.12600  0.08660  Biso   1.000  C
  C775     1.0000 0.86000  0.41340  0.62600  Biso   1.000  C
  C776     1.0000 0.41340  0.87400  0.64000  Biso   1.000  C
  C777     1.0000 0.14000  0.87400  0.08660  Biso   1.000  C
  C778     1.0000 0.58660  0.87400  0.36000  Biso   1.000  C
  C779     1.0000 0.41340  0.86000  0.37400  Biso   1.000  C
  C780     1.0000 0.87400  0.41340  0.36000  Biso   1.000  C
  C781     1.0000 0.12600  0.58660  0.36000  Biso   1.000  C
  C782     1.0000 0.41340  0.14000  0.62600  Biso   1.000  C
  C783     1.0000 0.12600  0.41340  0.64000  Biso   1.000  C
  C784     1.0000 0.58660  0.14000  0.37400  Biso   1.000  C
  C785     1.0000 0.58660  0.86000  0.62600  Biso   1.000  C
  C786     1.0000 0.87400  0.58660  0.64000  Biso   1.000  C
  C787     1.0000 0.87400  0.86000  0.08660  Biso   1.000  C
  C788     1.0000 0.12600  0.14000  0.08660  Biso   1.000  C
  C789     1.0000 0.14000  0.41340  0.37400  Biso   1.000  C
  C790     1.0000 0.14000  0.58660  0.62600  Biso   1.000  C
  C791     1.0000 0.41340  0.12600  0.36000  Biso   1.000  C
  C792     1.0000 0.58660  0.12600  0.64000  Biso   1.000  C
  C793     1.0000 0.64000  0.62600  0.08660  Biso   1.000  C
  C794     1.0000 0.37400  0.64000  0.08660  Biso   1.000  C
  C795     1.0000 0.36000  0.37400  0.08660  Biso   1.000  C
  C796     1.0000 0.62600  0.36000  0.08660  Biso   1.000  C
  C797     1.0000 0.64000  0.91340  0.62600  Biso   1.000  C
  C798     1.0000 0.64000  0.37400  0.91340  Biso   1.000  C
  C799     1.0000 0.64000  0.08660  0.37400  Biso   1.000  C
  C800     1.0000 0.08660  0.62600  0.36000  Biso   1.000  C
  C801     1.0000 0.36000  0.62600  0.91340  Biso   1.000  C
  C802     1.0000 0.91340  0.62600  0.64000  Biso   1.000  C
  C803     1.0000 0.08660  0.64000  0.62600  Biso   1.000  C
  C804     1.0000 0.62600  0.08660  0.64000  Biso   1.000  C
  C805     1.0000 0.37400  0.91340  0.64000  Biso   1.000  C
  C806     1.0000 0.08660  0.36000  0.37400  Biso   1.000  C
  C807     1.0000 0.37400  0.08660  0.36000  Biso   1.000  C
  C808     1.0000 0.91340  0.36000  0.62600  Biso   1.000  C
  C809     1.0000 0.91340  0.64000  0.37400  Biso   1.000  C
  C810     1.0000 0.62600  0.91340  0.36000  Biso   1.000  C
  C811     1.0000 0.62600  0.64000  0.91340  Biso   1.000  C
  C812     1.0000 0.37400  0.36000  0.91340  Biso   1.000  C
  C813     1.0000 0.36000  0.08660  0.62600  Biso   1.000  C
  C814     1.0000 0.36000  0.91340  0.37400  Biso   1.000  C
  C815     1.0000 0.08660  0.37400  0.64000  Biso   1.000  C
  C816     1.0000 0.91340  0.37400  0.36000  Biso   1.000  C
  C817     1.0000 0.64000  0.12600  0.58660  Biso   1.000  C
  C818     1.0000 0.37400  0.14000  0.58660  Biso   1.000  C
  C819     1.0000 0.36000  0.87400  0.58660  Biso   1.000  C
  C820     1.0000 0.62600  0.86000  0.58660  Biso   1.000  C
  C821     1.0000 0.64000  0.41340  0.12600  Biso   1.000  C
  C822     1.0000 0.64000  0.87400  0.41340  Biso   1.000  C
  C823     1.0000 0.64000  0.58660  0.87400  Biso   1.000  C
  C824     1.0000 0.08660  0.12600  0.86000  Biso   1.000  C
  C825     1.0000 0.36000  0.12600  0.41340  Biso   1.000  C
  C826     1.0000 0.91340  0.12600  0.14000  Biso   1.000  C
  C827     1.0000 0.08660  0.14000  0.12600  Biso   1.000  C
  C828     1.0000 0.62600  0.58660  0.14000  Biso   1.000  C
  C829     1.0000 0.37400  0.41340  0.14000  Biso   1.000  C
  C830     1.0000 0.08660  0.86000  0.87400  Biso   1.000  C
  C831     1.0000 0.37400  0.58660  0.86000  Biso   1.000  C
  C832     1.0000 0.91340  0.86000  0.12600  Biso   1.000  C
  C833     1.0000 0.91340  0.14000  0.87400  Biso   1.000  C
  C834     1.0000 0.62600  0.41340  0.86000  Biso   1.000  C
  C835     1.0000 0.62600  0.14000  0.41340  Biso   1.000  C
  C836     1.0000 0.37400  0.86000  0.41340  Biso   1.000  C
  C837     1.0000 0.36000  0.58660  0.12600  Biso   1.000  C
  C838     1.0000 0.36000  0.41340  0.87400  Biso   1.000  C
  C839     1.0000 0.08660  0.87400  0.14000  Biso   1.000  C
  C840     1.0000 0.91340  0.87400  0.86000  Biso   1.000  C
  C841     1.0000 0.14000  0.62600  0.58660  Biso   1.000  C
  C842     1.0000 0.87400  0.64000  0.58660  Biso   1.000  C
  C843     1.0000 0.86000  0.37400  0.58660  Biso   1.000  C
  C844     1.0000 0.12600  0.36000  0.58660  Biso   1.000  C
  C845     1.0000 0.14000  0.91340  0.12600  Biso   1.000  C
  C846     1.0000 0.14000  0.37400  0.41340  Biso   1.000  C
  C847     1.0000 0.14000  0.08660  0.87400  Biso   1.000  C
  C848     1.0000 0.58660  0.62600  0.86000  Biso   1.000  C
  C849     1.0000 0.86000  0.62600  0.41340  Biso   1.000  C
  C850     1.0000 0.41340  0.62600  0.14000  Biso   1.000  C
  C851     1.0000 0.58660  0.64000  0.12600  Biso   1.000  C
  C852     1.0000 0.12600  0.08660  0.14000  Biso   1.000  C
  C853     1.0000 0.87400  0.91340  0.14000  Biso   1.000  C
  C854     1.0000 0.58660  0.36000  0.87400  Biso   1.000  C
  C855     1.0000 0.87400  0.08660  0.86000  Biso   1.000  C
  C856     1.0000 0.41340  0.36000  0.12600  Biso   1.000  C
  C857     1.0000 0.41340  0.64000  0.87400  Biso   1.000  C
  C858     1.0000 0.12600  0.91340  0.86000  Biso   1.000  C
  C859     1.0000 0.12600  0.64000  0.41340  Biso   1.000  C
  C860     1.0000 0.87400  0.36000  0.41340  Biso   1.000  C
  C861     1.0000 0.86000  0.08660  0.12600  Biso   1.000  C
  C862     1.0000 0.86000  0.91340  0.87400  Biso   1.000  C
  C863     1.0000 0.58660  0.37400  0.14000  Biso   1.000  C
  C864     1.0000 0.41340  0.37400  0.86000  Biso   1.000  C
  C865     1.0000 0.14000  0.12600  0.08660  Biso   1.000  C
  C866     1.0000 0.87400  0.14000  0.08660  Biso   1.000  C
  C867     1.0000 0.86000  0.87400  0.08660  Biso   1.000  C
  C868     1.0000 0.12600  0.86000  0.08660  Biso   1.000  C
  C869     1.0000 0.14000  0.41340  0.62600  Biso   1.000  C
  C870     1.0000 0.14000  0.87400  0.91340  Biso   1.000  C
  C871     1.0000 0.14000  0.58660  0.37400  Biso   1.000  C
  C872     1.0000 0.58660  0.12600  0.36000  Biso   1.000  C
  C873     1.0000 0.86000  0.12600  0.91340  Biso   1.000  C
  C874     1.0000 0.41340  0.12600  0.64000  Biso   1.000  C
  C875     1.0000 0.58660  0.14000  0.62600  Biso   1.000  C
  C876     1.0000 0.12600  0.58660  0.64000  Biso   1.000  C
  C877     1.0000 0.87400  0.41340  0.64000  Biso   1.000  C
  C878     1.0000 0.58660  0.86000  0.37400  Biso   1.000  C
  C879     1.0000 0.87400  0.58660  0.36000  Biso   1.000  C
  C880     1.0000 0.41340  0.86000  0.62600  Biso   1.000  C
  C881     1.0000 0.41340  0.14000  0.37400  Biso   1.000  C
  C882     1.0000 0.12600  0.41340  0.36000  Biso   1.000  C
  C883     1.0000 0.12600  0.14000  0.91340  Biso   1.000  C
  C884     1.0000 0.87400  0.86000  0.91340  Biso   1.000  C
  C885     1.0000 0.86000  0.58660  0.62600  Biso   1.000  C
  C886     1.0000 0.86000  0.41340  0.37400  Biso   1.000  C
  C887     1.0000 0.58660  0.87400  0.64000  Biso   1.000  C
  C888     1.0000 0.41340  0.87400  0.36000  Biso   1.000  C
  C889     1.0000 0.38000  0.34400  0.86940  Biso   1.000  C
  C890     1.0000 0.65600  0.38000  0.86940  Biso   1.000  C
  C891     1.0000 0.62000  0.65600  0.86940  Biso   1.000  C
  C892     1.0000 0.34400  0.62000  0.86940  Biso   1.000  C
  C893     1.0000 0.38000  0.13060  0.34400  Biso   1.000  C
  C894     1.0000 0.38000  0.65600  0.13060  Biso   1.000  C
  C895     1.0000 0.38000  0.86940  0.65600  Biso   1.000  C
  C896     1.0000 0.86940  0.34400  0.62000  Biso   1.000  C
  C897     1.0000 0.62000  0.34400  0.13060  Biso   1.000  C
  C898     1.0000 0.13060  0.34400  0.38000  Biso   1.000  C
  C899     1.0000 0.86940  0.38000  0.34400  Biso   1.000  C
  C900     1.0000 0.34400  0.86940  0.38000  Biso   1.000  C
  C901     1.0000 0.65600  0.13060  0.38000  Biso   1.000  C
  C902     1.0000 0.86940  0.62000  0.65600  Biso   1.000  C
  C903     1.0000 0.65600  0.86940  0.62000  Biso   1.000  C
  C904     1.0000 0.13060  0.62000  0.34400  Biso   1.000  C
  C905     1.0000 0.13060  0.38000  0.65600  Biso   1.000  C
  C906     1.0000 0.34400  0.13060  0.62000  Biso   1.000  C
  C907     1.0000 0.34400  0.38000  0.13060  Biso   1.000  C
  C908     1.0000 0.65600  0.62000  0.13060  Biso   1.000  C
  C909     1.0000 0.62000  0.86940  0.34400  Biso   1.000  C
  C910     1.0000 0.62000  0.13060  0.65600  Biso   1.000  C
  C911     1.0000 0.86940  0.65600  0.38000  Biso   1.000  C
  C912     1.0000 0.13060  0.65600  0.62000  Biso   1.000  C
  C913     1.0000 0.38000  0.84400  0.36940  Biso   1.000  C
  C914     1.0000 0.65600  0.88000  0.36940  Biso   1.000  C
  C915     1.0000 0.62000  0.15600  0.36940  Biso   1.000  C
  C916     1.0000 0.34400  0.12000  0.36940  Biso   1.000  C
  C917     1.0000 0.38000  0.63060  0.84400  Biso   1.000  C
  C918     1.0000 0.38000  0.15600  0.63060  Biso   1.000  C
  C919     1.0000 0.38000  0.36940  0.15600  Biso   1.000  C
  C920     1.0000 0.86940  0.84400  0.12000  Biso   1.000  C
  C921     1.0000 0.62000  0.84400  0.63060  Biso   1.000  C
  C922     1.0000 0.13060  0.84400  0.88000  Biso   1.000  C
  C923     1.0000 0.86940  0.88000  0.84400  Biso   1.000  C
  C924     1.0000 0.34400  0.36940  0.88000  Biso   1.000  C
  C925     1.0000 0.65600  0.63060  0.88000  Biso   1.000  C
  C926     1.0000 0.86940  0.12000  0.15600  Biso   1.000  C
  C927     1.0000 0.65600  0.36940  0.12000  Biso   1.000  C
  C928     1.0000 0.13060  0.12000  0.84400  Biso   1.000  C
  C929     1.0000 0.13060  0.88000  0.15600  Biso   1.000  C
  C930     1.0000 0.34400  0.63060  0.12000  Biso   1.000  C
  C931     1.0000 0.34400  0.88000  0.63060  Biso   1.000  C
  C932     1.0000 0.65600  0.12000  0.63060  Biso   1.000  C
  C933     1.0000 0.62000  0.36940  0.84400  Biso   1.000  C
  C934     1.0000 0.62000  0.63060  0.15600  Biso   1.000  C
  C935     1.0000 0.86940  0.15600  0.88000  Biso   1.000  C
  C936     1.0000 0.13060  0.15600  0.12000  Biso   1.000  C
  C937     1.0000 0.88000  0.34400  0.36940  Biso   1.000  C
  C938     1.0000 0.15600  0.38000  0.36940  Biso   1.000  C
  C939     1.0000 0.12000  0.65600  0.36940  Biso   1.000  C
  C940     1.0000 0.84400  0.62000  0.36940  Biso   1.000  C
  C941     1.0000 0.88000  0.13060  0.84400  Biso   1.000  C
  C942     1.0000 0.88000  0.65600  0.63060  Biso   1.000  C
  C943     1.0000 0.88000  0.86940  0.15600  Biso   1.000  C
  C944     1.0000 0.36940  0.34400  0.12000  Biso   1.000  C
  C945     1.0000 0.12000  0.34400  0.63060  Biso   1.000  C
  C946     1.0000 0.63060  0.34400  0.88000  Biso   1.000  C
  C947     1.0000 0.36940  0.38000  0.84400  Biso   1.000  C
  C948     1.0000 0.84400  0.86940  0.88000  Biso   1.000  C
  C949     1.0000 0.15600  0.13060  0.88000  Biso   1.000  C
  C950     1.0000 0.36940  0.62000  0.15600  Biso   1.000  C
  C951     1.0000 0.15600  0.86940  0.12000  Biso   1.000  C
  C952     1.0000 0.63060  0.62000  0.84400  Biso   1.000  C
  C953     1.0000 0.63060  0.38000  0.15600  Biso   1.000  C
  C954     1.0000 0.84400  0.13060  0.12000  Biso   1.000  C
  C955     1.0000 0.84400  0.38000  0.63060  Biso   1.000  C
  C956     1.0000 0.15600  0.62000  0.63060  Biso   1.000  C
  C957     1.0000 0.12000  0.86940  0.84400  Biso   1.000  C
  C958     1.0000 0.12000  0.13060  0.15600  Biso   1.000  C
  C959     1.0000 0.36940  0.65600  0.88000  Biso   1.000  C
  C960     1.0000 0.63060  0.65600  0.12000  Biso   1.000  C
  C961     1.0000 0.88000  0.84400  0.86940  Biso   1.000  C
  C962     1.0000 0.15600  0.88000  0.86940  Biso   1.000  C
  C963     1.0000 0.12000  0.15600  0.86940  Biso   1.000  C
  C964     1.0000 0.84400  0.12000  0.86940  Biso   1.000  C
  C965     1.0000 0.88000  0.63060  0.34400  Biso   1.000  C
  C966     1.0000 0.88000  0.15600  0.13060  Biso   1.000  C
  C967     1.0000 0.88000  0.36940  0.65600  Biso   1.000  C
  C968     1.0000 0.36940  0.84400  0.62000  Biso   1.000  C
  C969     1.0000 0.12000  0.84400  0.13060  Biso   1.000  C
  C970     1.0000 0.63060  0.84400  0.38000  Biso   1.000  C
  C971     1.0000 0.36940  0.88000  0.34400  Biso   1.000  C
  C972     1.0000 0.84400  0.36940  0.38000  Biso   1.000  C
  C973     1.0000 0.15600  0.63060  0.38000  Biso   1.000  C
  C974     1.0000 0.36940  0.12000  0.65600  Biso   1.000  C
  C975     1.0000 0.15600  0.36940  0.62000  Biso   1.000  C
  C976     1.0000 0.63060  0.12000  0.34400  Biso   1.000  C
  C977     1.0000 0.63060  0.88000  0.65600  Biso   1.000  C
  C978     1.0000 0.84400  0.63060  0.62000  Biso   1.000  C
  C979     1.0000 0.84400  0.88000  0.13060  Biso   1.000  C
  C980     1.0000 0.15600  0.12000  0.13060  Biso   1.000  C
  C981     1.0000 0.12000  0.36940  0.34400  Biso   1.000  C
  C982     1.0000 0.12000  0.63060  0.65600  Biso   1.000  C
  C983     1.0000 0.36940  0.15600  0.38000  Biso   1.000  C
  C984     1.0000 0.63060  0.15600  0.62000  Biso   1.000  C
  C985     1.0000 0.62000  0.65600  0.13060  Biso   1.000  C
  C986     1.0000 0.34400  0.62000  0.13060  Biso   1.000  C
  C987     1.0000 0.38000  0.34400  0.13060  Biso   1.000  C
  C988     1.0000 0.65600  0.38000  0.13060  Biso   1.000  C
  C989     1.0000 0.62000  0.86940  0.65600  Biso   1.000  C
  C990     1.0000 0.62000  0.34400  0.86940  Biso   1.000  C
  C991     1.0000 0.62000  0.13060  0.34400  Biso   1.000  C
  C992     1.0000 0.13060  0.65600  0.38000  Biso   1.000  C
  C993     1.0000 0.38000  0.65600  0.86940  Biso   1.000  C
  C994     1.0000 0.86940  0.65600  0.62000  Biso   1.000  C
  C995     1.0000 0.13060  0.62000  0.65600  Biso   1.000  C
  C996     1.0000 0.65600  0.13060  0.62000  Biso   1.000  C
  C997     1.0000 0.34400  0.86940  0.62000  Biso   1.000  C
  C998     1.0000 0.13060  0.38000  0.34400  Biso   1.000  C
  C999     1.0000 0.34400  0.13060  0.38000  Biso   1.000  C
  C1000    1.0000 0.86940  0.38000  0.65600  Biso   1.000  C
  C1001    1.0000 0.86940  0.62000  0.34400  Biso   1.000  C
  C1002    1.0000 0.65600  0.86940  0.38000  Biso   1.000  C
  C1003    1.0000 0.65600  0.62000  0.86940  Biso   1.000  C
  C1004    1.0000 0.34400  0.38000  0.86940  Biso   1.000  C
  C1005    1.0000 0.38000  0.13060  0.65600  Biso   1.000  C
  C1006    1.0000 0.38000  0.86940  0.34400  Biso   1.000  C
  C1007    1.0000 0.13060  0.34400  0.62000  Biso   1.000  C
  C1008    1.0000 0.86940  0.34400  0.38000  Biso   1.000  C
  C1009    1.0000 0.62000  0.15600  0.63060  Biso   1.000  C
  C1010    1.0000 0.34400  0.12000  0.63060  Biso   1.000  C
  C1011    1.0000 0.38000  0.84400  0.63060  Biso   1.000  C
  C1012    1.0000 0.65600  0.88000  0.63060  Biso   1.000  C
  C1013    1.0000 0.62000  0.36940  0.15600  Biso   1.000  C
  C1014    1.0000 0.62000  0.84400  0.36940  Biso   1.000  C
  C1015    1.0000 0.62000  0.63060  0.84400  Biso   1.000  C
  C1016    1.0000 0.13060  0.15600  0.88000  Biso   1.000  C
  C1017    1.0000 0.38000  0.15600  0.36940  Biso   1.000  C
  C1018    1.0000 0.86940  0.15600  0.12000  Biso   1.000  C
  C1019    1.0000 0.13060  0.12000  0.15600  Biso   1.000  C
  C1020    1.0000 0.65600  0.63060  0.12000  Biso   1.000  C
  C1021    1.0000 0.34400  0.36940  0.12000  Biso   1.000  C
  C1022    1.0000 0.13060  0.88000  0.84400  Biso   1.000  C
  C1023    1.0000 0.34400  0.63060  0.88000  Biso   1.000  C
  C1024    1.0000 0.86940  0.88000  0.15600  Biso   1.000  C
  C1025    1.0000 0.86940  0.12000  0.84400  Biso   1.000  C
  C1026    1.0000 0.65600  0.36940  0.88000  Biso   1.000  C
  C1027    1.0000 0.65600  0.12000  0.36940  Biso   1.000  C
  C1028    1.0000 0.34400  0.88000  0.36940  Biso   1.000  C
  C1029    1.0000 0.38000  0.63060  0.15600  Biso   1.000  C
  C1030    1.0000 0.38000  0.36940  0.84400  Biso   1.000  C
  C1031    1.0000 0.13060  0.84400  0.12000  Biso   1.000  C
  C1032    1.0000 0.86940  0.84400  0.88000  Biso   1.000  C
  C1033    1.0000 0.12000  0.65600  0.63060  Biso   1.000  C
  C1034    1.0000 0.84400  0.62000  0.63060  Biso   1.000  C
  C1035    1.0000 0.88000  0.34400  0.63060  Biso   1.000  C
  C1036    1.0000 0.15600  0.38000  0.63060  Biso   1.000  C
  C1037    1.0000 0.12000  0.86940  0.15600  Biso   1.000  C
  C1038    1.0000 0.12000  0.34400  0.36940  Biso   1.000  C
  C1039    1.0000 0.12000  0.13060  0.84400  Biso   1.000  C
  C1040    1.0000 0.63060  0.65600  0.88000  Biso   1.000  C
  C1041    1.0000 0.88000  0.65600  0.36940  Biso   1.000  C
  C1042    1.0000 0.36940  0.65600  0.12000  Biso   1.000  C
  C1043    1.0000 0.63060  0.62000  0.15600  Biso   1.000  C
  C1044    1.0000 0.15600  0.13060  0.12000  Biso   1.000  C
  C1045    1.0000 0.84400  0.86940  0.12000  Biso   1.000  C
  C1046    1.0000 0.63060  0.38000  0.84400  Biso   1.000  C
  C1047    1.0000 0.84400  0.13060  0.88000  Biso   1.000  C
  C1048    1.0000 0.36940  0.38000  0.15600  Biso   1.000  C
  C1049    1.0000 0.36940  0.62000  0.84400  Biso   1.000  C
  C1050    1.0000 0.15600  0.86940  0.88000  Biso   1.000  C
  C1051    1.0000 0.15600  0.62000  0.36940  Biso   1.000  C
  C1052    1.0000 0.84400  0.38000  0.36940  Biso   1.000  C
  C1053    1.0000 0.88000  0.13060  0.15600  Biso   1.000  C
  C1054    1.0000 0.88000  0.86940  0.84400  Biso   1.000  C
  C1055    1.0000 0.63060  0.34400  0.12000  Biso   1.000  C
  C1056    1.0000 0.36940  0.34400  0.88000  Biso   1.000  C
  C1057    1.0000 0.12000  0.15600  0.13060  Biso   1.000  C
  C1058    1.0000 0.84400  0.12000  0.13060  Biso   1.000  C
  C1059    1.0000 0.88000  0.84400  0.13060  Biso   1.000  C
  C1060    1.0000 0.15600  0.88000  0.13060  Biso   1.000  C
  C1061    1.0000 0.12000  0.36940  0.65600  Biso   1.000  C
  C1062    1.0000 0.12000  0.84400  0.86940  Biso   1.000  C
  C1063    1.0000 0.12000  0.63060  0.34400  Biso   1.000  C
  C1064    1.0000 0.63060  0.15600  0.38000  Biso   1.000  C
  C1065    1.0000 0.88000  0.15600  0.86940  Biso   1.000  C
  C1066    1.0000 0.36940  0.15600  0.62000  Biso   1.000  C
  C1067    1.0000 0.63060  0.12000  0.65600  Biso   1.000  C
  C1068    1.0000 0.15600  0.63060  0.62000  Biso   1.000  C
  C1069    1.0000 0.84400  0.36940  0.62000  Biso   1.000  C
  C1070    1.0000 0.63060  0.88000  0.34400  Biso   1.000  C
  C1071    1.0000 0.84400  0.63060  0.38000  Biso   1.000  C
  C1072    1.0000 0.36940  0.88000  0.65600  Biso   1.000  C
  C1073    1.0000 0.36940  0.12000  0.34400  Biso   1.000  C
  C1074    1.0000 0.15600  0.36940  0.38000  Biso   1.000  C
  C1075    1.0000 0.15600  0.12000  0.86940  Biso   1.000  C
  C1076    1.0000 0.84400  0.88000  0.86940  Biso   1.000  C
  C1077    1.0000 0.88000  0.63060  0.65600  Biso   1.000  C
  C1078    1.0000 0.88000  0.36940  0.34400  Biso   1.000  C
  C1079    1.0000 0.63060  0.84400  0.62000  Biso   1.000  C
  C1080    1.0000 0.36940  0.84400  0.38000  Biso   1.000  C
  C1081    1.0000 0.23620  0.23620  0.26380  Biso   1.000  C
  C1082    1.0000 0.76380  0.23620  0.26380  Biso   1.000  C
  C1083    1.0000 0.76380  0.76380  0.26380  Biso   1.000  C
  C1084    1.0000 0.23620  0.76380  0.26380  Biso   1.000  C
  C1085    1.0000 0.23620  0.73620  0.23620  Biso   1.000  C
  C1086    1.0000 0.23620  0.76380  0.73620  Biso   1.000  C
  C1087    1.0000 0.23620  0.26380  0.76380  Biso   1.000  C
  C1088    1.0000 0.26380  0.23620  0.76380  Biso   1.000  C
  C1089    1.0000 0.76380  0.23620  0.73620  Biso   1.000  C
  C1090    1.0000 0.73620  0.23620  0.23620  Biso   1.000  C
  C1091    1.0000 0.26380  0.23620  0.23620  Biso   1.000  C
  C1092    1.0000 0.23620  0.26380  0.23620  Biso   1.000  C
  C1093    1.0000 0.76380  0.73620  0.23620  Biso   1.000  C
  C1094    1.0000 0.26380  0.76380  0.76380  Biso   1.000  C
  C1095    1.0000 0.76380  0.26380  0.76380  Biso   1.000  C
  C1096    1.0000 0.73620  0.76380  0.23620  Biso   1.000  C
  C1097    1.0000 0.73620  0.23620  0.76380  Biso   1.000  C
  C1098    1.0000 0.23620  0.73620  0.76380  Biso   1.000  C
  C1099    1.0000 0.23620  0.23620  0.73620  Biso   1.000  C
  C1100    1.0000 0.76380  0.76380  0.73620  Biso   1.000  C
  C1101    1.0000 0.76380  0.26380  0.23620  Biso   1.000  C
  C1102    1.0000 0.76380  0.73620  0.76380  Biso   1.000  C
  C1103    1.0000 0.26380  0.76380  0.23620  Biso   1.000  C
  C1104    1.0000 0.73620  0.76380  0.76380  Biso   1.000  C
  C1105    1.0000 0.26380  0.73620  0.26380  Biso   1.000  C
  C1106    1.0000 0.73620  0.73620  0.73620  Biso   1.000  C
  C1107    1.0000 0.26380  0.73620  0.73620  Biso   1.000  C
  C1108    1.0000 0.26380  0.26380  0.26380  Biso   1.000  C
  C1109    1.0000 0.73620  0.26380  0.73620  Biso   1.000  C
  C1110    1.0000 0.73620  0.73620  0.26380  Biso   1.000  C
  C1111    1.0000 0.26380  0.26380  0.73620  Biso   1.000  C
  C1112    1.0000 0.73620  0.26380  0.26380  Biso   1.000  C
  O241     1.0000 0.32270  0.32270  0.17730  Biso   1.000  O
  O242     1.0000 0.67730  0.32270  0.17730  Biso   1.000  O
  O243     1.0000 0.67730  0.67730  0.17730  Biso   1.000  O
  O244     1.0000 0.32270  0.67730  0.17730  Biso   1.000  O
  O245     1.0000 0.32270  0.82270  0.32270  Biso   1.000  O
  O246     1.0000 0.32270  0.67730  0.82270  Biso   1.000  O
  O247     1.0000 0.32270  0.17730  0.67730  Biso   1.000  O
  O248     1.0000 0.17730  0.32270  0.67730  Biso   1.000  O
  O249     1.0000 0.67730  0.32270  0.82270  Biso   1.000  O
  O250     1.0000 0.82270  0.32270  0.32270  Biso   1.000  O
  O251     1.0000 0.17730  0.32270  0.32270  Biso   1.000  O
  O252     1.0000 0.32270  0.17730  0.32270  Biso   1.000  O
  O253     1.0000 0.67730  0.82270  0.32270  Biso   1.000  O
  O254     1.0000 0.17730  0.67730  0.67730  Biso   1.000  O
  O255     1.0000 0.67730  0.17730  0.67730  Biso   1.000  O
  O256     1.0000 0.82270  0.67730  0.32270  Biso   1.000  O
  O257     1.0000 0.82270  0.32270  0.67730  Biso   1.000  O
  O258     1.0000 0.32270  0.82270  0.67730  Biso   1.000  O
  O259     1.0000 0.32270  0.32270  0.82270  Biso   1.000  O
  O260     1.0000 0.67730  0.67730  0.82270  Biso   1.000  O
  O261     1.0000 0.67730  0.17730  0.32270  Biso   1.000  O
  O262     1.0000 0.67730  0.82270  0.67730  Biso   1.000  O
  O263     1.0000 0.17730  0.67730  0.32270  Biso   1.000  O
  O264     1.0000 0.82270  0.67730  0.67730  Biso   1.000  O
  O265     1.0000 0.17730  0.82270  0.17730  Biso   1.000  O
  O266     1.0000 0.82270  0.82270  0.82270  Biso   1.000  O
  O267     1.0000 0.17730  0.82270  0.82270  Biso   1.000  O
  O268     1.0000 0.17730  0.17730  0.17730  Biso   1.000  O
  O269     1.0000 0.82270  0.17730  0.82270  Biso   1.000  O
  O270     1.0000 0.82270  0.82270  0.17730  Biso   1.000  O
  O271     1.0000 0.17730  0.17730  0.82270  Biso   1.000  O
  O272     1.0000 0.82270  0.17730  0.17730  Biso   1.000  O
  C1113    1.0000 0.29000  0.29000  0.21000  Biso   1.000  C
  C1114    1.0000 0.71000  0.29000  0.21000  Biso   1.000  C
  C1115    1.0000 0.71000  0.71000  0.21000  Biso   1.000  C
  C1116    1.0000 0.29000  0.71000  0.21000  Biso   1.000  C
  C1117    1.0000 0.29000  0.79000  0.29000  Biso   1.000  C
  C1118    1.0000 0.29000  0.71000  0.79000  Biso   1.000  C
  C1119    1.0000 0.29000  0.21000  0.71000  Biso   1.000  C
  C1120    1.0000 0.21000  0.29000  0.71000  Biso   1.000  C
  C1121    1.0000 0.71000  0.29000  0.79000  Biso   1.000  C
  C1122    1.0000 0.79000  0.29000  0.29000  Biso   1.000  C
  C1123    1.0000 0.21000  0.29000  0.29000  Biso   1.000  C
  C1124    1.0000 0.29000  0.21000  0.29000  Biso   1.000  C
  C1125    1.0000 0.71000  0.79000  0.29000  Biso   1.000  C
  C1126    1.0000 0.21000  0.71000  0.71000  Biso   1.000  C
  C1127    1.0000 0.71000  0.21000  0.71000  Biso   1.000  C
  C1128    1.0000 0.79000  0.71000  0.29000  Biso   1.000  C
  C1129    1.0000 0.79000  0.29000  0.71000  Biso   1.000  C
  C1130    1.0000 0.29000  0.79000  0.71000  Biso   1.000  C
  C1131    1.0000 0.29000  0.29000  0.79000  Biso   1.000  C
  C1132    1.0000 0.71000  0.71000  0.79000  Biso   1.000  C
  C1133    1.0000 0.71000  0.21000  0.29000  Biso   1.000  C
  C1134    1.0000 0.71000  0.79000  0.71000  Biso   1.000  C
  C1135    1.0000 0.21000  0.71000  0.29000  Biso   1.000  C
  C1136    1.0000 0.79000  0.71000  0.71000  Biso   1.000  C
  C1137    1.0000 0.21000  0.79000  0.21000  Biso   1.000  C
  C1138    1.0000 0.79000  0.79000  0.79000  Biso   1.000  C
  C1139    1.0000 0.21000  0.79000  0.79000  Biso   1.000  C
  C1140    1.0000 0.21000  0.21000  0.21000  Biso   1.000  C
  C1141    1.0000 0.79000  0.21000  0.79000  Biso   1.000  C
  C1142    1.0000 0.79000  0.79000  0.21000  Biso   1.000  C
  C1143    1.0000 0.21000  0.21000  0.79000  Biso   1.000  C
  C1144    1.0000 0.79000  0.21000  0.21000  Biso   1.000  C
  C1145    1.0000 0.25000  0.25000  0.21070  Biso   1.000  C
  C1146    1.0000 0.75000  0.25000  0.21070  Biso   1.000  C
  C1147    1.0000 0.75000  0.75000  0.21070  Biso   1.000  C
  C1148    1.0000 0.25000  0.75000  0.21070  Biso   1.000  C
  C1149    1.0000 0.25000  0.78930  0.25000  Biso   1.000  C
  C1150    1.0000 0.25000  0.75000  0.78930  Biso   1.000  C
  C1151    1.0000 0.25000  0.21070  0.75000  Biso   1.000  C
  C1152    1.0000 0.21070  0.25000  0.75000  Biso   1.000  C
  C1153    1.0000 0.75000  0.25000  0.78930  Biso   1.000  C
  C1154    1.0000 0.78930  0.25000  0.25000  Biso   1.000  C
  C1155    1.0000 0.21070  0.25000  0.25000  Biso   1.000  C
  C1156    1.0000 0.25000  0.21070  0.25000  Biso   1.000  C
  C1157    1.0000 0.75000  0.78930  0.25000  Biso   1.000  C
  C1158    1.0000 0.21070  0.75000  0.75000  Biso   1.000  C
  C1159    1.0000 0.75000  0.21070  0.75000  Biso   1.000  C
  C1160    1.0000 0.78930  0.75000  0.25000  Biso   1.000  C
  C1161    1.0000 0.78930  0.25000  0.75000  Biso   1.000  C
  C1162    1.0000 0.25000  0.78930  0.75000  Biso   1.000  C
  C1163    1.0000 0.25000  0.25000  0.78930  Biso   1.000  C
  C1164    1.0000 0.75000  0.75000  0.78930  Biso   1.000  C
  C1165    1.0000 0.75000  0.21070  0.25000  Biso   1.000  C
  C1166    1.0000 0.75000  0.78930  0.75000  Biso   1.000  C
  C1167    1.0000 0.21070  0.75000  0.25000  Biso   1.000  C
  C1168    1.0000 0.78930  0.75000  0.75000  Biso   1.000  C
  C1169    1.0000 0.25000  0.75000  0.71070  Biso   1.000  C
  C1170    1.0000 0.75000  0.75000  0.71070  Biso   1.000  C
  C1171    1.0000 0.75000  0.25000  0.71070  Biso   1.000  C
  C1172    1.0000 0.25000  0.25000  0.71070  Biso   1.000  C
  C1173    1.0000 0.25000  0.28930  0.75000  Biso   1.000  C
  C1174    1.0000 0.25000  0.25000  0.28930  Biso   1.000  C
  C1175    1.0000 0.25000  0.71070  0.25000  Biso   1.000  C
  C1176    1.0000 0.75000  0.75000  0.28930  Biso   1.000  C
  C1177    1.0000 0.25000  0.71070  0.75000  Biso   1.000  C
  C1178    1.0000 0.75000  0.28930  0.75000  Biso   1.000  C
  C1179    1.0000 0.75000  0.71070  0.25000  Biso   1.000  C
  C1180    1.0000 0.25000  0.28930  0.25000  Biso   1.000  C
  C1181    1.0000 0.25000  0.75000  0.28930  Biso   1.000  C
  C1182    1.0000 0.75000  0.25000  0.28930  Biso   1.000  C
  C1183    1.0000 0.75000  0.71070  0.75000  Biso   1.000  C
  C1184    1.0000 0.75000  0.28930  0.25000  Biso   1.000  C
  C1185    1.0000 0.71070  0.25000  0.25000  Biso   1.000  C
  C1186    1.0000 0.28930  0.25000  0.75000  Biso   1.000  C
  C1187    1.0000 0.71070  0.25000  0.75000  Biso   1.000  C
  C1188    1.0000 0.71070  0.75000  0.25000  Biso   1.000  C
  C1189    1.0000 0.28930  0.75000  0.75000  Biso   1.000  C
  C1190    1.0000 0.28930  0.25000  0.25000  Biso   1.000  C
  C1191    1.0000 0.71070  0.75000  0.75000  Biso   1.000  C
  C1192    1.0000 0.28930  0.75000  0.25000  Biso   1.000  C
