data_image0
_cell_length_a       26.3462
_cell_length_b       26.3462
_cell_length_c       26.3462
_cell_angle_alpha    90
_cell_angle_beta     90
_cell_angle_gamma    90

_symmetry_space_group_name_H-M    "P 1"
_symmetry_int_tables_number       1

loop_
  _symmetry_equiv_pos_as_xyz
  'x, y, z'

loop_
  _atom_site_label
  _atom_site_occupancy
  _atom_site_fract_x
  _atom_site_fract_y
  _atom_site_fract_z
  _atom_site_thermal_displace_type
  _atom_site_B_iso_or_equiv
  _atom_site_type_symbol
  Cu1      1.0000 0.28528  0.28528  0.00000  Biso   1.000  Cu
  Cu2      1.0000 0.71472  0.28528  0.00000  Biso   1.000  Cu
  Cu3      1.0000 0.71472  0.71472  0.00000  Biso   1.000  Cu
  Cu4      1.0000 0.28528  0.71472  0.00000  Biso   1.000  Cu
  Cu5      1.0000 0.28528  0.00000  0.28528  Biso   1.000  Cu
  Cu6      1.0000 0.28528  0.00000  0.71472  Biso   1.000  Cu
  Cu7      1.0000 0.00000  0.28528  0.71472  Biso   1.000  Cu
  Cu8      1.0000 0.00000  0.28528  0.28528  Biso   1.000  Cu
  Cu9      1.0000 0.71472  0.00000  0.28528  Biso   1.000  Cu
  Cu10     1.0000 0.00000  0.71472  0.71472  Biso   1.000  Cu
  Cu11     1.0000 0.71472  0.00000  0.71472  Biso   1.000  Cu
  Cu12     1.0000 0.00000  0.71472  0.28528  Biso   1.000  Cu
  Cu13     1.0000 0.28528  0.78528  0.50000  Biso   1.000  Cu
  Cu14     1.0000 0.71472  0.78528  0.50000  Biso   1.000  Cu
  Cu15     1.0000 0.71472  0.21472  0.50000  Biso   1.000  Cu
  Cu16     1.0000 0.28528  0.21472  0.50000  Biso   1.000  Cu
  Cu17     1.0000 0.28528  0.50000  0.78528  Biso   1.000  Cu
  Cu18     1.0000 0.28528  0.50000  0.21472  Biso   1.000  Cu
  Cu19     1.0000 0.00000  0.78528  0.21472  Biso   1.000  Cu
  Cu20     1.0000 0.00000  0.78528  0.78528  Biso   1.000  Cu
  Cu21     1.0000 0.71472  0.50000  0.78528  Biso   1.000  Cu
  Cu22     1.0000 0.00000  0.21472  0.21472  Biso   1.000  Cu
  Cu23     1.0000 0.71472  0.50000  0.21472  Biso   1.000  Cu
  Cu24     1.0000 0.00000  0.21472  0.78528  Biso   1.000  Cu
  Cu25     1.0000 0.78528  0.28528  0.50000  Biso   1.000  Cu
  Cu26     1.0000 0.21472  0.28528  0.50000  Biso   1.000  Cu
  Cu27     1.0000 0.21472  0.71472  0.50000  Biso   1.000  Cu
  Cu28     1.0000 0.78528  0.71472  0.50000  Biso   1.000  Cu
  Cu29     1.0000 0.78528  0.00000  0.78528  Biso   1.000  Cu
  Cu30     1.0000 0.78528  0.00000  0.21472  Biso   1.000  Cu
  Cu31     1.0000 0.50000  0.28528  0.21472  Biso   1.000  Cu
  Cu32     1.0000 0.50000  0.28528  0.78528  Biso   1.000  Cu
  Cu33     1.0000 0.21472  0.00000  0.78528  Biso   1.000  Cu
  Cu34     1.0000 0.50000  0.71472  0.21472  Biso   1.000  Cu
  Cu35     1.0000 0.21472  0.00000  0.21472  Biso   1.000  Cu
  Cu36     1.0000 0.50000  0.71472  0.78528  Biso   1.000  Cu
  Cu37     1.0000 0.78528  0.78528  0.00000  Biso   1.000  Cu
  Cu38     1.0000 0.21472  0.78528  0.00000  Biso   1.000  Cu
  Cu39     1.0000 0.21472  0.21472  0.00000  Biso   1.000  Cu
  Cu40     1.0000 0.78528  0.21472  0.00000  Biso   1.000  Cu
  Cu41     1.0000 0.78528  0.50000  0.28528  Biso   1.000  Cu
  Cu42     1.0000 0.78528  0.50000  0.71472  Biso   1.000  Cu
  Cu43     1.0000 0.50000  0.78528  0.71472  Biso   1.000  Cu
  Cu44     1.0000 0.50000  0.78528  0.28528  Biso   1.000  Cu
  Cu45     1.0000 0.21472  0.50000  0.28528  Biso   1.000  Cu
  Cu46     1.0000 0.50000  0.21472  0.71472  Biso   1.000  Cu
  Cu47     1.0000 0.21472  0.50000  0.71472  Biso   1.000  Cu
  Cu48     1.0000 0.50000  0.21472  0.28528  Biso   1.000  Cu
  O1       1.0000 0.24321  0.31677  0.05269  Biso   1.000  O
  O2       1.0000 0.68323  0.24321  0.05269  Biso   1.000  O
  O3       1.0000 0.75679  0.68323  0.05269  Biso   1.000  O
  O4       1.0000 0.31677  0.75679  0.05269  Biso   1.000  O
  O5       1.0000 0.24321  0.94731  0.31677  Biso   1.000  O
  O6       1.0000 0.24321  0.68323  0.94731  Biso   1.000  O
  O7       1.0000 0.24321  0.05269  0.68323  Biso   1.000  O
  O8       1.0000 0.05269  0.31677  0.75679  Biso   1.000  O
  O9       1.0000 0.75679  0.31677  0.94731  Biso   1.000  O
  O10      1.0000 0.94731  0.31677  0.24321  Biso   1.000  O
  O11      1.0000 0.05269  0.24321  0.31677  Biso   1.000  O
  O12      1.0000 0.31677  0.05269  0.24321  Biso   1.000  O
  O13      1.0000 0.68323  0.94731  0.24321  Biso   1.000  O
  O14      1.0000 0.05269  0.75679  0.68323  Biso   1.000  O
  O15      1.0000 0.68323  0.05269  0.75679  Biso   1.000  O
  O16      1.0000 0.94731  0.75679  0.31677  Biso   1.000  O
  O17      1.0000 0.94731  0.24321  0.68323  Biso   1.000  O
  O18      1.0000 0.31677  0.94731  0.75679  Biso   1.000  O
  O19      1.0000 0.31677  0.24321  0.94731  Biso   1.000  O
  O20      1.0000 0.68323  0.75679  0.94731  Biso   1.000  O
  O21      1.0000 0.75679  0.05269  0.31677  Biso   1.000  O
  O22      1.0000 0.75679  0.94731  0.68323  Biso   1.000  O
  O23      1.0000 0.05269  0.68323  0.24321  Biso   1.000  O
  O24      1.0000 0.94731  0.68323  0.75679  Biso   1.000  O
  O25      1.0000 0.24321  0.81677  0.55269  Biso   1.000  O
  O26      1.0000 0.68323  0.74321  0.55269  Biso   1.000  O
  O27      1.0000 0.75679  0.18323  0.55269  Biso   1.000  O
  O28      1.0000 0.31677  0.25679  0.55269  Biso   1.000  O
  O29      1.0000 0.24321  0.44731  0.81677  Biso   1.000  O
  O30      1.0000 0.24321  0.18323  0.44731  Biso   1.000  O
  O31      1.0000 0.24321  0.55269  0.18323  Biso   1.000  O
  O32      1.0000 0.05269  0.81677  0.25679  Biso   1.000  O
  O33      1.0000 0.75679  0.81677  0.44731  Biso   1.000  O
  O34      1.0000 0.94731  0.81677  0.74321  Biso   1.000  O
  O35      1.0000 0.05269  0.74321  0.81677  Biso   1.000  O
  O36      1.0000 0.31677  0.55269  0.74321  Biso   1.000  O
  O37      1.0000 0.68323  0.44731  0.74321  Biso   1.000  O
  O38      1.0000 0.05269  0.25679  0.18323  Biso   1.000  O
  O39      1.0000 0.68323  0.55269  0.25679  Biso   1.000  O
  O40      1.0000 0.94731  0.25679  0.81677  Biso   1.000  O
  O41      1.0000 0.94731  0.74321  0.18323  Biso   1.000  O
  O42      1.0000 0.31677  0.44731  0.25679  Biso   1.000  O
  O43      1.0000 0.31677  0.74321  0.44731  Biso   1.000  O
  O44      1.0000 0.68323  0.25679  0.44731  Biso   1.000  O
  O45      1.0000 0.75679  0.55269  0.81677  Biso   1.000  O
  O46      1.0000 0.75679  0.44731  0.18323  Biso   1.000  O
  O47      1.0000 0.05269  0.18323  0.74321  Biso   1.000  O
  O48      1.0000 0.94731  0.18323  0.25679  Biso   1.000  O
  O49      1.0000 0.74321  0.31677  0.55269  Biso   1.000  O
  O50      1.0000 0.18323  0.24321  0.55269  Biso   1.000  O
  O51      1.0000 0.25679  0.68323  0.55269  Biso   1.000  O
  O52      1.0000 0.81677  0.75679  0.55269  Biso   1.000  O
  O53      1.0000 0.74321  0.94731  0.81677  Biso   1.000  O
  O54      1.0000 0.74321  0.68323  0.44731  Biso   1.000  O
  O55      1.0000 0.74321  0.05269  0.18323  Biso   1.000  O
  O56      1.0000 0.55269  0.31677  0.25679  Biso   1.000  O
  O57      1.0000 0.25679  0.31677  0.44731  Biso   1.000  O
  O58      1.0000 0.44731  0.31677  0.74321  Biso   1.000  O
  O59      1.0000 0.55269  0.24321  0.81677  Biso   1.000  O
  O60      1.0000 0.81677  0.05269  0.74321  Biso   1.000  O
  O61      1.0000 0.18323  0.94731  0.74321  Biso   1.000  O
  O62      1.0000 0.55269  0.75679  0.18323  Biso   1.000  O
  O63      1.0000 0.18323  0.05269  0.25679  Biso   1.000  O
  O64      1.0000 0.44731  0.75679  0.81677  Biso   1.000  O
  O65      1.0000 0.44731  0.24321  0.18323  Biso   1.000  O
  O66      1.0000 0.81677  0.94731  0.25679  Biso   1.000  O
  O67      1.0000 0.81677  0.24321  0.44731  Biso   1.000  O
  O68      1.0000 0.18323  0.75679  0.44731  Biso   1.000  O
  O69      1.0000 0.25679  0.05269  0.81677  Biso   1.000  O
  O70      1.0000 0.25679  0.94731  0.18323  Biso   1.000  O
  O71      1.0000 0.55269  0.68323  0.74321  Biso   1.000  O
  O72      1.0000 0.44731  0.68323  0.25679  Biso   1.000  O
  O73      1.0000 0.74321  0.81677  0.05269  Biso   1.000  O
  O74      1.0000 0.18323  0.74321  0.05269  Biso   1.000  O
  O75      1.0000 0.25679  0.18323  0.05269  Biso   1.000  O
  O76      1.0000 0.81677  0.25679  0.05269  Biso   1.000  O
  O77      1.0000 0.74321  0.44731  0.31677  Biso   1.000  O
  O78      1.0000 0.74321  0.18323  0.94731  Biso   1.000  O
  O79      1.0000 0.74321  0.55269  0.68323  Biso   1.000  O
  O80      1.0000 0.55269  0.81677  0.75679  Biso   1.000  O
  O81      1.0000 0.25679  0.81677  0.94731  Biso   1.000  O
  O82      1.0000 0.44731  0.81677  0.24321  Biso   1.000  O
  O83      1.0000 0.55269  0.74321  0.31677  Biso   1.000  O
  O84      1.0000 0.81677  0.55269  0.24321  Biso   1.000  O
  O85      1.0000 0.18323  0.44731  0.24321  Biso   1.000  O
  O86      1.0000 0.55269  0.25679  0.68323  Biso   1.000  O
  O87      1.0000 0.18323  0.55269  0.75679  Biso   1.000  O
  O88      1.0000 0.44731  0.25679  0.31677  Biso   1.000  O
  O89      1.0000 0.44731  0.74321  0.68323  Biso   1.000  O
  O90      1.0000 0.81677  0.44731  0.75679  Biso   1.000  O
  O91      1.0000 0.81677  0.74321  0.94731  Biso   1.000  O
  O92      1.0000 0.18323  0.25679  0.94731  Biso   1.000  O
  O93      1.0000 0.25679  0.55269  0.31677  Biso   1.000  O
  O94      1.0000 0.25679  0.44731  0.68323  Biso   1.000  O
  O95      1.0000 0.55269  0.18323  0.24321  Biso   1.000  O
  O96      1.0000 0.44731  0.18323  0.75679  Biso   1.000  O
  O97      1.0000 0.75679  0.68323  0.94731  Biso   1.000  O
  O98      1.0000 0.31677  0.75679  0.94731  Biso   1.000  O
  O99      1.0000 0.24321  0.31677  0.94731  Biso   1.000  O
  O100     1.0000 0.68323  0.24321  0.94731  Biso   1.000  O
  O101     1.0000 0.75679  0.05269  0.68323  Biso   1.000  O
  O102     1.0000 0.75679  0.31677  0.05269  Biso   1.000  O
  O103     1.0000 0.75679  0.94731  0.31677  Biso   1.000  O
  O104     1.0000 0.94731  0.68323  0.24321  Biso   1.000  O
  O105     1.0000 0.24321  0.68323  0.05269  Biso   1.000  O
  O106     1.0000 0.05269  0.68323  0.75679  Biso   1.000  O
  O107     1.0000 0.94731  0.75679  0.68323  Biso   1.000  O
  O108     1.0000 0.68323  0.94731  0.75679  Biso   1.000  O
  O109     1.0000 0.31677  0.05269  0.75679  Biso   1.000  O
  O110     1.0000 0.94731  0.24321  0.31677  Biso   1.000  O
  O111     1.0000 0.31677  0.94731  0.24321  Biso   1.000  O
  O112     1.0000 0.05269  0.24321  0.68323  Biso   1.000  O
  O113     1.0000 0.05269  0.75679  0.31677  Biso   1.000  O
  O114     1.0000 0.68323  0.05269  0.24321  Biso   1.000  O
  O115     1.0000 0.68323  0.75679  0.05269  Biso   1.000  O
  O116     1.0000 0.31677  0.24321  0.05269  Biso   1.000  O
  O117     1.0000 0.24321  0.94731  0.68323  Biso   1.000  O
  O118     1.0000 0.24321  0.05269  0.31677  Biso   1.000  O
  O119     1.0000 0.94731  0.31677  0.75679  Biso   1.000  O
  O120     1.0000 0.05269  0.31677  0.24321  Biso   1.000  O
  O121     1.0000 0.75679  0.18323  0.44731  Biso   1.000  O
  O122     1.0000 0.31677  0.25679  0.44731  Biso   1.000  O
  O123     1.0000 0.24321  0.81677  0.44731  Biso   1.000  O
  O124     1.0000 0.68323  0.74321  0.44731  Biso   1.000  O
  O125     1.0000 0.75679  0.55269  0.18323  Biso   1.000  O
  O126     1.0000 0.75679  0.81677  0.55269  Biso   1.000  O
  O127     1.0000 0.75679  0.44731  0.81677  Biso   1.000  O
  O128     1.0000 0.94731  0.18323  0.74321  Biso   1.000  O
  O129     1.0000 0.24321  0.18323  0.55269  Biso   1.000  O
  O130     1.0000 0.05269  0.18323  0.25679  Biso   1.000  O
  O131     1.0000 0.94731  0.25679  0.18323  Biso   1.000  O
  O132     1.0000 0.68323  0.44731  0.25679  Biso   1.000  O
  O133     1.0000 0.31677  0.55269  0.25679  Biso   1.000  O
  O134     1.0000 0.94731  0.74321  0.81677  Biso   1.000  O
  O135     1.0000 0.31677  0.44731  0.74321  Biso   1.000  O
  O136     1.0000 0.05269  0.74321  0.18323  Biso   1.000  O
  O137     1.0000 0.05269  0.25679  0.81677  Biso   1.000  O
  O138     1.0000 0.68323  0.55269  0.74321  Biso   1.000  O
  O139     1.0000 0.68323  0.25679  0.55269  Biso   1.000  O
  O140     1.0000 0.31677  0.74321  0.55269  Biso   1.000  O
  O141     1.0000 0.24321  0.44731  0.18323  Biso   1.000  O
  O142     1.0000 0.24321  0.55269  0.81677  Biso   1.000  O
  O143     1.0000 0.94731  0.81677  0.25679  Biso   1.000  O
  O144     1.0000 0.05269  0.81677  0.74321  Biso   1.000  O
  O145     1.0000 0.25679  0.68323  0.44731  Biso   1.000  O
  O146     1.0000 0.81677  0.75679  0.44731  Biso   1.000  O
  O147     1.0000 0.74321  0.31677  0.44731  Biso   1.000  O
  O148     1.0000 0.18323  0.24321  0.44731  Biso   1.000  O
  O149     1.0000 0.25679  0.05269  0.18323  Biso   1.000  O
  O150     1.0000 0.25679  0.31677  0.55269  Biso   1.000  O
  O151     1.0000 0.25679  0.94731  0.81677  Biso   1.000  O
  O152     1.0000 0.44731  0.68323  0.74321  Biso   1.000  O
  O153     1.0000 0.74321  0.68323  0.55269  Biso   1.000  O
  O154     1.0000 0.55269  0.68323  0.25679  Biso   1.000  O
  O155     1.0000 0.44731  0.75679  0.18323  Biso   1.000  O
  O156     1.0000 0.18323  0.94731  0.25679  Biso   1.000  O
  O157     1.0000 0.81677  0.05269  0.25679  Biso   1.000  O
  O158     1.0000 0.44731  0.24321  0.81677  Biso   1.000  O
  O159     1.0000 0.81677  0.94731  0.74321  Biso   1.000  O
  O160     1.0000 0.55269  0.24321  0.18323  Biso   1.000  O
  O161     1.0000 0.55269  0.75679  0.81677  Biso   1.000  O
  O162     1.0000 0.18323  0.05269  0.74321  Biso   1.000  O
  O163     1.0000 0.18323  0.75679  0.55269  Biso   1.000  O
  O164     1.0000 0.81677  0.24321  0.55269  Biso   1.000  O
  O165     1.0000 0.74321  0.94731  0.18323  Biso   1.000  O
  O166     1.0000 0.74321  0.05269  0.81677  Biso   1.000  O
  O167     1.0000 0.44731  0.31677  0.25679  Biso   1.000  O
  O168     1.0000 0.55269  0.31677  0.74321  Biso   1.000  O
  O169     1.0000 0.25679  0.18323  0.94731  Biso   1.000  O
  O170     1.0000 0.81677  0.25679  0.94731  Biso   1.000  O
  O171     1.0000 0.74321  0.81677  0.94731  Biso   1.000  O
  O172     1.0000 0.18323  0.74321  0.94731  Biso   1.000  O
  O173     1.0000 0.25679  0.55269  0.68323  Biso   1.000  O
  O174     1.0000 0.25679  0.81677  0.05269  Biso   1.000  O
  O175     1.0000 0.25679  0.44731  0.31677  Biso   1.000  O
  O176     1.0000 0.44731  0.18323  0.24321  Biso   1.000  O
  O177     1.0000 0.74321  0.18323  0.05269  Biso   1.000  O
  O178     1.0000 0.55269  0.18323  0.75679  Biso   1.000  O
  O179     1.0000 0.44731  0.25679  0.68323  Biso   1.000  O
  O180     1.0000 0.18323  0.44731  0.75679  Biso   1.000  O
  O181     1.0000 0.81677  0.55269  0.75679  Biso   1.000  O
  O182     1.0000 0.44731  0.74321  0.31677  Biso   1.000  O
  O183     1.0000 0.81677  0.44731  0.24321  Biso   1.000  O
  O184     1.0000 0.55269  0.74321  0.68323  Biso   1.000  O
  O185     1.0000 0.55269  0.25679  0.31677  Biso   1.000  O
  O186     1.0000 0.18323  0.55269  0.24321  Biso   1.000  O
  O187     1.0000 0.18323  0.25679  0.05269  Biso   1.000  O
  O188     1.0000 0.81677  0.74321  0.05269  Biso   1.000  O
  O189     1.0000 0.74321  0.44731  0.68323  Biso   1.000  O
  O190     1.0000 0.74321  0.55269  0.31677  Biso   1.000  O
  O191     1.0000 0.44731  0.81677  0.75679  Biso   1.000  O
  O192     1.0000 0.55269  0.81677  0.24321  Biso   1.000  O
  C1       1.0000 0.17798  0.32202  0.11319  Biso   1.000  C
  C2       1.0000 0.67798  0.17798  0.11319  Biso   1.000  C
  C3       1.0000 0.82202  0.67798  0.11319  Biso   1.000  C
  C4       1.0000 0.32202  0.82202  0.11319  Biso   1.000  C
  C5       1.0000 0.17798  0.88681  0.32202  Biso   1.000  C
  C6       1.0000 0.17798  0.67798  0.88681  Biso   1.000  C
  C7       1.0000 0.17798  0.11319  0.67798  Biso   1.000  C
  C8       1.0000 0.11319  0.32202  0.82202  Biso   1.000  C
  C9       1.0000 0.82202  0.32202  0.88681  Biso   1.000  C
  C10      1.0000 0.88681  0.32202  0.17798  Biso   1.000  C
  C11      1.0000 0.11319  0.17798  0.32202  Biso   1.000  C
  C12      1.0000 0.32202  0.11319  0.17798  Biso   1.000  C
  C13      1.0000 0.67798  0.88681  0.17798  Biso   1.000  C
  C14      1.0000 0.11319  0.82202  0.67798  Biso   1.000  C
  C15      1.0000 0.67798  0.11319  0.82202  Biso   1.000  C
  C16      1.0000 0.88681  0.82202  0.32202  Biso   1.000  C
  C17      1.0000 0.88681  0.17798  0.67798  Biso   1.000  C
  C18      1.0000 0.32202  0.88681  0.82202  Biso   1.000  C
  C19      1.0000 0.32202  0.17798  0.88681  Biso   1.000  C
  C20      1.0000 0.67798  0.82202  0.88681  Biso   1.000  C
  C21      1.0000 0.82202  0.11319  0.32202  Biso   1.000  C
  C22      1.0000 0.82202  0.88681  0.67798  Biso   1.000  C
  C23      1.0000 0.11319  0.67798  0.17798  Biso   1.000  C
  C24      1.0000 0.88681  0.67798  0.82202  Biso   1.000  C
  C25      1.0000 0.17798  0.82202  0.61319  Biso   1.000  C
  C26      1.0000 0.67798  0.67798  0.61319  Biso   1.000  C
  C27      1.0000 0.82202  0.17798  0.61319  Biso   1.000  C
  C28      1.0000 0.32202  0.32202  0.61319  Biso   1.000  C
  C29      1.0000 0.17798  0.38681  0.82202  Biso   1.000  C
  C30      1.0000 0.17798  0.17798  0.38681  Biso   1.000  C
  C31      1.0000 0.17798  0.61319  0.17798  Biso   1.000  C
  C32      1.0000 0.11319  0.82202  0.32202  Biso   1.000  C
  C33      1.0000 0.82202  0.82202  0.38681  Biso   1.000  C
  C34      1.0000 0.88681  0.82202  0.67798  Biso   1.000  C
  C35      1.0000 0.11319  0.67798  0.82202  Biso   1.000  C
  C36      1.0000 0.32202  0.61319  0.67798  Biso   1.000  C
  C37      1.0000 0.67798  0.38681  0.67798  Biso   1.000  C
  C38      1.0000 0.11319  0.32202  0.17798  Biso   1.000  C
  C39      1.0000 0.67798  0.61319  0.32202  Biso   1.000  C
  C40      1.0000 0.88681  0.32202  0.82202  Biso   1.000  C
  C41      1.0000 0.88681  0.67798  0.17798  Biso   1.000  C
  C42      1.0000 0.32202  0.38681  0.32202  Biso   1.000  C
  C43      1.0000 0.32202  0.67798  0.38681  Biso   1.000  C
  C44      1.0000 0.67798  0.32202  0.38681  Biso   1.000  C
  C45      1.0000 0.82202  0.61319  0.82202  Biso   1.000  C
  C46      1.0000 0.82202  0.38681  0.17798  Biso   1.000  C
  C47      1.0000 0.11319  0.17798  0.67798  Biso   1.000  C
  C48      1.0000 0.88681  0.17798  0.32202  Biso   1.000  C
  C49      1.0000 0.67798  0.32202  0.61319  Biso   1.000  C
  C50      1.0000 0.17798  0.17798  0.61319  Biso   1.000  C
  C51      1.0000 0.32202  0.67798  0.61319  Biso   1.000  C
  C52      1.0000 0.82202  0.82202  0.61319  Biso   1.000  C
  C53      1.0000 0.67798  0.88681  0.82202  Biso   1.000  C
  C54      1.0000 0.67798  0.67798  0.38681  Biso   1.000  C
  C55      1.0000 0.67798  0.11319  0.17798  Biso   1.000  C
  C56      1.0000 0.61319  0.32202  0.32202  Biso   1.000  C
  C57      1.0000 0.32202  0.32202  0.38681  Biso   1.000  C
  C58      1.0000 0.38681  0.32202  0.67798  Biso   1.000  C
  C59      1.0000 0.61319  0.17798  0.82202  Biso   1.000  C
  C60      1.0000 0.82202  0.11319  0.67798  Biso   1.000  C
  C61      1.0000 0.17798  0.88681  0.67798  Biso   1.000  C
  C62      1.0000 0.61319  0.82202  0.17798  Biso   1.000  C
  C63      1.0000 0.17798  0.11319  0.32202  Biso   1.000  C
  C64      1.0000 0.38681  0.82202  0.82202  Biso   1.000  C
  C65      1.0000 0.38681  0.17798  0.17798  Biso   1.000  C
  C66      1.0000 0.82202  0.88681  0.32202  Biso   1.000  C
  C67      1.0000 0.82202  0.17798  0.38681  Biso   1.000  C
  C68      1.0000 0.17798  0.82202  0.38681  Biso   1.000  C
  C69      1.0000 0.32202  0.11319  0.82202  Biso   1.000  C
  C70      1.0000 0.32202  0.88681  0.17798  Biso   1.000  C
  C71      1.0000 0.61319  0.67798  0.67798  Biso   1.000  C
  C72      1.0000 0.38681  0.67798  0.32202  Biso   1.000  C
  C73      1.0000 0.67798  0.82202  0.11319  Biso   1.000  C
  C74      1.0000 0.17798  0.67798  0.11319  Biso   1.000  C
  C75      1.0000 0.32202  0.17798  0.11319  Biso   1.000  C
  C76      1.0000 0.82202  0.32202  0.11319  Biso   1.000  C
  C77      1.0000 0.67798  0.38681  0.32202  Biso   1.000  C
  C78      1.0000 0.67798  0.17798  0.88681  Biso   1.000  C
  C79      1.0000 0.67798  0.61319  0.67798  Biso   1.000  C
  C80      1.0000 0.61319  0.82202  0.82202  Biso   1.000  C
  C81      1.0000 0.32202  0.82202  0.88681  Biso   1.000  C
  C82      1.0000 0.38681  0.82202  0.17798  Biso   1.000  C
  C83      1.0000 0.61319  0.67798  0.32202  Biso   1.000  C
  C84      1.0000 0.82202  0.61319  0.17798  Biso   1.000  C
  C85      1.0000 0.17798  0.38681  0.17798  Biso   1.000  C
  C86      1.0000 0.61319  0.32202  0.67798  Biso   1.000  C
  C87      1.0000 0.17798  0.61319  0.82202  Biso   1.000  C
  C88      1.0000 0.38681  0.32202  0.32202  Biso   1.000  C
  C89      1.0000 0.38681  0.67798  0.67798  Biso   1.000  C
  C90      1.0000 0.82202  0.38681  0.82202  Biso   1.000  C
  C91      1.0000 0.82202  0.67798  0.88681  Biso   1.000  C
  C92      1.0000 0.17798  0.32202  0.88681  Biso   1.000  C
  C93      1.0000 0.32202  0.61319  0.32202  Biso   1.000  C
  C94      1.0000 0.32202  0.38681  0.67798  Biso   1.000  C
  C95      1.0000 0.61319  0.17798  0.17798  Biso   1.000  C
  C96      1.0000 0.38681  0.17798  0.82202  Biso   1.000  C
  C97      1.0000 0.20327  0.29673  0.06898  Biso   1.000  C
  C98      1.0000 0.70327  0.20327  0.06898  Biso   1.000  C
  C99      1.0000 0.79673  0.70327  0.06898  Biso   1.000  C
  C100     1.0000 0.29673  0.79673  0.06898  Biso   1.000  C
  C101     1.0000 0.20327  0.93102  0.29673  Biso   1.000  C
  C102     1.0000 0.20327  0.70327  0.93102  Biso   1.000  C
  C103     1.0000 0.20327  0.06898  0.70327  Biso   1.000  C
  C104     1.0000 0.06898  0.29673  0.79673  Biso   1.000  C
  C105     1.0000 0.79673  0.29673  0.93102  Biso   1.000  C
  C106     1.0000 0.93102  0.29673  0.20327  Biso   1.000  C
  C107     1.0000 0.06898  0.20327  0.29673  Biso   1.000  C
  C108     1.0000 0.29673  0.06898  0.20327  Biso   1.000  C
  C109     1.0000 0.70327  0.93102  0.20327  Biso   1.000  C
  C110     1.0000 0.06898  0.79673  0.70327  Biso   1.000  C
  C111     1.0000 0.70327  0.06898  0.79673  Biso   1.000  C
  C112     1.0000 0.93102  0.79673  0.29673  Biso   1.000  C
  C113     1.0000 0.93102  0.20327  0.70327  Biso   1.000  C
  C114     1.0000 0.29673  0.93102  0.79673  Biso   1.000  C
  C115     1.0000 0.29673  0.20327  0.93102  Biso   1.000  C
  C116     1.0000 0.70327  0.79673  0.93102  Biso   1.000  C
  C117     1.0000 0.79673  0.06898  0.29673  Biso   1.000  C
  C118     1.0000 0.79673  0.93102  0.70327  Biso   1.000  C
  C119     1.0000 0.06898  0.70327  0.20327  Biso   1.000  C
  C120     1.0000 0.93102  0.70327  0.79673  Biso   1.000  C
  C121     1.0000 0.20327  0.79673  0.56898  Biso   1.000  C
  C122     1.0000 0.70327  0.70327  0.56898  Biso   1.000  C
  C123     1.0000 0.79673  0.20327  0.56898  Biso   1.000  C
  C124     1.0000 0.29673  0.29673  0.56898  Biso   1.000  C
  C125     1.0000 0.20327  0.43102  0.79673  Biso   1.000  C
  C126     1.0000 0.20327  0.20327  0.43102  Biso   1.000  C
  C127     1.0000 0.20327  0.56898  0.20327  Biso   1.000  C
  C128     1.0000 0.06898  0.79673  0.29673  Biso   1.000  C
  C129     1.0000 0.79673  0.79673  0.43102  Biso   1.000  C
  C130     1.0000 0.93102  0.79673  0.70327  Biso   1.000  C
  C131     1.0000 0.06898  0.70327  0.79673  Biso   1.000  C
  C132     1.0000 0.29673  0.56898  0.70327  Biso   1.000  C
  C133     1.0000 0.70327  0.43102  0.70327  Biso   1.000  C
  C134     1.0000 0.06898  0.29673  0.20327  Biso   1.000  C
  C135     1.0000 0.70327  0.56898  0.29673  Biso   1.000  C
  C136     1.0000 0.93102  0.29673  0.79673  Biso   1.000  C
  C137     1.0000 0.93102  0.70327  0.20327  Biso   1.000  C
  C138     1.0000 0.29673  0.43102  0.29673  Biso   1.000  C
  C139     1.0000 0.29673  0.70327  0.43102  Biso   1.000  C
  C140     1.0000 0.70327  0.29673  0.43102  Biso   1.000  C
  C141     1.0000 0.79673  0.56898  0.79673  Biso   1.000  C
  C142     1.0000 0.79673  0.43102  0.20327  Biso   1.000  C
  C143     1.0000 0.06898  0.20327  0.70327  Biso   1.000  C
  C144     1.0000 0.93102  0.20327  0.29673  Biso   1.000  C
  C145     1.0000 0.70327  0.29673  0.56898  Biso   1.000  C
  C146     1.0000 0.20327  0.20327  0.56898  Biso   1.000  C
  C147     1.0000 0.29673  0.70327  0.56898  Biso   1.000  C
  C148     1.0000 0.79673  0.79673  0.56898  Biso   1.000  C
  C149     1.0000 0.70327  0.93102  0.79673  Biso   1.000  C
  C150     1.0000 0.70327  0.70327  0.43102  Biso   1.000  C
  C151     1.0000 0.70327  0.06898  0.20327  Biso   1.000  C
  C152     1.0000 0.56898  0.29673  0.29673  Biso   1.000  C
  C153     1.0000 0.29673  0.29673  0.43102  Biso   1.000  C
  C154     1.0000 0.43102  0.29673  0.70327  Biso   1.000  C
  C155     1.0000 0.56898  0.20327  0.79673  Biso   1.000  C
  C156     1.0000 0.79673  0.06898  0.70327  Biso   1.000  C
  C157     1.0000 0.20327  0.93102  0.70327  Biso   1.000  C
  C158     1.0000 0.56898  0.79673  0.20327  Biso   1.000  C
  C159     1.0000 0.20327  0.06898  0.29673  Biso   1.000  C
  C160     1.0000 0.43102  0.79673  0.79673  Biso   1.000  C
  C161     1.0000 0.43102  0.20327  0.20327  Biso   1.000  C
  C162     1.0000 0.79673  0.93102  0.29673  Biso   1.000  C
  C163     1.0000 0.79673  0.20327  0.43102  Biso   1.000  C
  C164     1.0000 0.20327  0.79673  0.43102  Biso   1.000  C
  C165     1.0000 0.29673  0.06898  0.79673  Biso   1.000  C
  C166     1.0000 0.29673  0.93102  0.20327  Biso   1.000  C
  C167     1.0000 0.56898  0.70327  0.70327  Biso   1.000  C
  C168     1.0000 0.43102  0.70327  0.29673  Biso   1.000  C
  C169     1.0000 0.70327  0.79673  0.06898  Biso   1.000  C
  C170     1.0000 0.20327  0.70327  0.06898  Biso   1.000  C
  C171     1.0000 0.29673  0.20327  0.06898  Biso   1.000  C
  C172     1.0000 0.79673  0.29673  0.06898  Biso   1.000  C
  C173     1.0000 0.70327  0.43102  0.29673  Biso   1.000  C
  C174     1.0000 0.70327  0.20327  0.93102  Biso   1.000  C
  C175     1.0000 0.70327  0.56898  0.70327  Biso   1.000  C
  C176     1.0000 0.56898  0.79673  0.79673  Biso   1.000  C
  C177     1.0000 0.29673  0.79673  0.93102  Biso   1.000  C
  C178     1.0000 0.43102  0.79673  0.20327  Biso   1.000  C
  C179     1.0000 0.56898  0.70327  0.29673  Biso   1.000  C
  C180     1.0000 0.79673  0.56898  0.20327  Biso   1.000  C
  C181     1.0000 0.20327  0.43102  0.20327  Biso   1.000  C
  C182     1.0000 0.56898  0.29673  0.70327  Biso   1.000  C
  C183     1.0000 0.20327  0.56898  0.79673  Biso   1.000  C
  C184     1.0000 0.43102  0.29673  0.29673  Biso   1.000  C
  C185     1.0000 0.43102  0.70327  0.70327  Biso   1.000  C
  C186     1.0000 0.79673  0.43102  0.79673  Biso   1.000  C
  C187     1.0000 0.79673  0.70327  0.93102  Biso   1.000  C
  C188     1.0000 0.20327  0.29673  0.93102  Biso   1.000  C
  C189     1.0000 0.29673  0.56898  0.29673  Biso   1.000  C
  C190     1.0000 0.29673  0.43102  0.70327  Biso   1.000  C
  C191     1.0000 0.56898  0.20327  0.20327  Biso   1.000  C
  C192     1.0000 0.43102  0.20327  0.79673  Biso   1.000  C
  C193     1.0000 0.13482  0.30076  0.13482  Biso   1.000  C
  C194     1.0000 0.69924  0.13482  0.13482  Biso   1.000  C
  C195     1.0000 0.86518  0.69924  0.13482  Biso   1.000  C
  C196     1.0000 0.30076  0.86518  0.13482  Biso   1.000  C
  C197     1.0000 0.13482  0.86518  0.30076  Biso   1.000  C
  C198     1.0000 0.13482  0.69924  0.86518  Biso   1.000  C
  C199     1.0000 0.13482  0.13482  0.69924  Biso   1.000  C
  C200     1.0000 0.13482  0.30076  0.86518  Biso   1.000  C
  C201     1.0000 0.86518  0.30076  0.86518  Biso   1.000  C
  C202     1.0000 0.86518  0.30076  0.13482  Biso   1.000  C
  C203     1.0000 0.13482  0.13482  0.30076  Biso   1.000  C
  C204     1.0000 0.30076  0.13482  0.13482  Biso   1.000  C
  C205     1.0000 0.69924  0.86518  0.13482  Biso   1.000  C
  C206     1.0000 0.13482  0.86518  0.69924  Biso   1.000  C
  C207     1.0000 0.69924  0.13482  0.86518  Biso   1.000  C
  C208     1.0000 0.86518  0.86518  0.30076  Biso   1.000  C
  C209     1.0000 0.86518  0.13482  0.69924  Biso   1.000  C
  C210     1.0000 0.30076  0.86518  0.86518  Biso   1.000  C
  C211     1.0000 0.30076  0.13482  0.86518  Biso   1.000  C
  C212     1.0000 0.69924  0.86518  0.86518  Biso   1.000  C
  C213     1.0000 0.86518  0.13482  0.30076  Biso   1.000  C
  C214     1.0000 0.86518  0.86518  0.69924  Biso   1.000  C
  C215     1.0000 0.13482  0.69924  0.13482  Biso   1.000  C
  C216     1.0000 0.86518  0.69924  0.86518  Biso   1.000  C
  C217     1.0000 0.13482  0.80076  0.63482  Biso   1.000  C
  C218     1.0000 0.69924  0.63482  0.63482  Biso   1.000  C
  C219     1.0000 0.86518  0.19924  0.63482  Biso   1.000  C
  C220     1.0000 0.30076  0.36518  0.63482  Biso   1.000  C
  C221     1.0000 0.13482  0.36518  0.80076  Biso   1.000  C
  C222     1.0000 0.13482  0.19924  0.36518  Biso   1.000  C
  C223     1.0000 0.13482  0.63482  0.19924  Biso   1.000  C
  C224     1.0000 0.13482  0.80076  0.36518  Biso   1.000  C
  C225     1.0000 0.86518  0.80076  0.36518  Biso   1.000  C
  C226     1.0000 0.86518  0.80076  0.63482  Biso   1.000  C
  C227     1.0000 0.13482  0.63482  0.80076  Biso   1.000  C
  C228     1.0000 0.30076  0.63482  0.63482  Biso   1.000  C
  C229     1.0000 0.69924  0.36518  0.63482  Biso   1.000  C
  C230     1.0000 0.13482  0.36518  0.19924  Biso   1.000  C
  C231     1.0000 0.69924  0.63482  0.36518  Biso   1.000  C
  C232     1.0000 0.86518  0.36518  0.80076  Biso   1.000  C
  C233     1.0000 0.86518  0.63482  0.19924  Biso   1.000  C
  C234     1.0000 0.30076  0.36518  0.36518  Biso   1.000  C
  C235     1.0000 0.30076  0.63482  0.36518  Biso   1.000  C
  C236     1.0000 0.69924  0.36518  0.36518  Biso   1.000  C
  C237     1.0000 0.86518  0.63482  0.80076  Biso   1.000  C
  C238     1.0000 0.86518  0.36518  0.19924  Biso   1.000  C
  C239     1.0000 0.13482  0.19924  0.63482  Biso   1.000  C
  C240     1.0000 0.86518  0.19924  0.36518  Biso   1.000  C
  C241     1.0000 0.63482  0.30076  0.63482  Biso   1.000  C
  C242     1.0000 0.19924  0.13482  0.63482  Biso   1.000  C
  C243     1.0000 0.36518  0.69924  0.63482  Biso   1.000  C
  C244     1.0000 0.80076  0.86518  0.63482  Biso   1.000  C
  C245     1.0000 0.63482  0.86518  0.80076  Biso   1.000  C
  C246     1.0000 0.63482  0.69924  0.36518  Biso   1.000  C
  C247     1.0000 0.63482  0.13482  0.19924  Biso   1.000  C
  C248     1.0000 0.63482  0.30076  0.36518  Biso   1.000  C
  C249     1.0000 0.36518  0.30076  0.36518  Biso   1.000  C
  C250     1.0000 0.36518  0.30076  0.63482  Biso   1.000  C
  C251     1.0000 0.63482  0.13482  0.80076  Biso   1.000  C
  C252     1.0000 0.80076  0.13482  0.63482  Biso   1.000  C
  C253     1.0000 0.19924  0.86518  0.63482  Biso   1.000  C
  C254     1.0000 0.63482  0.86518  0.19924  Biso   1.000  C
  C255     1.0000 0.19924  0.13482  0.36518  Biso   1.000  C
  C256     1.0000 0.36518  0.86518  0.80076  Biso   1.000  C
  C257     1.0000 0.36518  0.13482  0.19924  Biso   1.000  C
  C258     1.0000 0.80076  0.86518  0.36518  Biso   1.000  C
  C259     1.0000 0.80076  0.13482  0.36518  Biso   1.000  C
  C260     1.0000 0.19924  0.86518  0.36518  Biso   1.000  C
  C261     1.0000 0.36518  0.13482  0.80076  Biso   1.000  C
  C262     1.0000 0.36518  0.86518  0.19924  Biso   1.000  C
  C263     1.0000 0.63482  0.69924  0.63482  Biso   1.000  C
  C264     1.0000 0.36518  0.69924  0.36518  Biso   1.000  C
  C265     1.0000 0.63482  0.80076  0.13482  Biso   1.000  C
  C266     1.0000 0.19924  0.63482  0.13482  Biso   1.000  C
  C267     1.0000 0.36518  0.19924  0.13482  Biso   1.000  C
  C268     1.0000 0.80076  0.36518  0.13482  Biso   1.000  C
  C269     1.0000 0.63482  0.36518  0.30076  Biso   1.000  C
  C270     1.0000 0.63482  0.19924  0.86518  Biso   1.000  C
  C271     1.0000 0.63482  0.63482  0.69924  Biso   1.000  C
  C272     1.0000 0.63482  0.80076  0.86518  Biso   1.000  C
  C273     1.0000 0.36518  0.80076  0.86518  Biso   1.000  C
  C274     1.0000 0.36518  0.80076  0.13482  Biso   1.000  C
  C275     1.0000 0.63482  0.63482  0.30076  Biso   1.000  C
  C276     1.0000 0.80076  0.63482  0.13482  Biso   1.000  C
  C277     1.0000 0.19924  0.36518  0.13482  Biso   1.000  C
  C278     1.0000 0.63482  0.36518  0.69924  Biso   1.000  C
  C279     1.0000 0.19924  0.63482  0.86518  Biso   1.000  C
  C280     1.0000 0.36518  0.36518  0.30076  Biso   1.000  C
  C281     1.0000 0.36518  0.63482  0.69924  Biso   1.000  C
  C282     1.0000 0.80076  0.36518  0.86518  Biso   1.000  C
  C283     1.0000 0.80076  0.63482  0.86518  Biso   1.000  C
  C284     1.0000 0.19924  0.36518  0.86518  Biso   1.000  C
  C285     1.0000 0.36518  0.63482  0.30076  Biso   1.000  C
  C286     1.0000 0.36518  0.36518  0.69924  Biso   1.000  C
  C287     1.0000 0.63482  0.19924  0.13482  Biso   1.000  C
  C288     1.0000 0.36518  0.19924  0.86518  Biso   1.000  C
  H1       1.0000 0.12030  0.27210  0.12030  Biso   1.000  H
  H2       1.0000 0.72790  0.12030  0.12030  Biso   1.000  H
  H3       1.0000 0.87970  0.72790  0.12030  Biso   1.000  H
  H4       1.0000 0.27210  0.87970  0.12030  Biso   1.000  H
  H5       1.0000 0.12030  0.87970  0.27210  Biso   1.000  H
  H6       1.0000 0.12030  0.72790  0.87970  Biso   1.000  H
  H7       1.0000 0.12030  0.12030  0.72790  Biso   1.000  H
  H8       1.0000 0.12030  0.27210  0.87970  Biso   1.000  H
  H9       1.0000 0.87970  0.27210  0.87970  Biso   1.000  H
  H10      1.0000 0.87970  0.27210  0.12030  Biso   1.000  H
  H11      1.0000 0.12030  0.12030  0.27210  Biso   1.000  H
  H12      1.0000 0.27210  0.12030  0.12030  Biso   1.000  H
  H13      1.0000 0.72790  0.87970  0.12030  Biso   1.000  H
  H14      1.0000 0.12030  0.87970  0.72790  Biso   1.000  H
  H15      1.0000 0.72790  0.12030  0.87970  Biso   1.000  H
  H16      1.0000 0.87970  0.87970  0.27210  Biso   1.000  H
  H17      1.0000 0.87970  0.12030  0.72790  Biso   1.000  H
  H18      1.0000 0.27210  0.87970  0.87970  Biso   1.000  H
  H19      1.0000 0.27210  0.12030  0.87970  Biso   1.000  H
  H20      1.0000 0.72790  0.87970  0.87970  Biso   1.000  H
  H21      1.0000 0.87970  0.12030  0.27210  Biso   1.000  H
  H22      1.0000 0.87970  0.87970  0.72790  Biso   1.000  H
  H23      1.0000 0.12030  0.72790  0.12030  Biso   1.000  H
  H24      1.0000 0.87970  0.72790  0.87970  Biso   1.000  H
  H25      1.0000 0.12030  0.77210  0.62030  Biso   1.000  H
  H26      1.0000 0.72790  0.62030  0.62030  Biso   1.000  H
  H27      1.0000 0.87970  0.22790  0.62030  Biso   1.000  H
  H28      1.0000 0.27210  0.37970  0.62030  Biso   1.000  H
  H29      1.0000 0.12030  0.37970  0.77210  Biso   1.000  H
  H30      1.0000 0.12030  0.22790  0.37970  Biso   1.000  H
  H31      1.0000 0.12030  0.62030  0.22790  Biso   1.000  H
  H32      1.0000 0.12030  0.77210  0.37970  Biso   1.000  H
  H33      1.0000 0.87970  0.77210  0.37970  Biso   1.000  H
  H34      1.0000 0.87970  0.77210  0.62030  Biso   1.000  H
  H35      1.0000 0.12030  0.62030  0.77210  Biso   1.000  H
  H36      1.0000 0.27210  0.62030  0.62030  Biso   1.000  H
  H37      1.0000 0.72790  0.37970  0.62030  Biso   1.000  H
  H38      1.0000 0.12030  0.37970  0.22790  Biso   1.000  H
  H39      1.0000 0.72790  0.62030  0.37970  Biso   1.000  H
  H40      1.0000 0.87970  0.37970  0.77210  Biso   1.000  H
  H41      1.0000 0.87970  0.62030  0.22790  Biso   1.000  H
  H42      1.0000 0.27210  0.37970  0.37970  Biso   1.000  H
  H43      1.0000 0.27210  0.62030  0.37970  Biso   1.000  H
  H44      1.0000 0.72790  0.37970  0.37970  Biso   1.000  H
  H45      1.0000 0.87970  0.62030  0.77210  Biso   1.000  H
  H46      1.0000 0.87970  0.37970  0.22790  Biso   1.000  H
  H47      1.0000 0.12030  0.22790  0.62030  Biso   1.000  H
  H48      1.0000 0.87970  0.22790  0.37970  Biso   1.000  H
  H49      1.0000 0.62030  0.27210  0.62030  Biso   1.000  H
  H50      1.0000 0.22790  0.12030  0.62030  Biso   1.000  H
  H51      1.0000 0.37970  0.72790  0.62030  Biso   1.000  H
  H52      1.0000 0.77210  0.87970  0.62030  Biso   1.000  H
  H53      1.0000 0.62030  0.87970  0.77210  Biso   1.000  H
  H54      1.0000 0.62030  0.72790  0.37970  Biso   1.000  H
  H55      1.0000 0.62030  0.12030  0.22790  Biso   1.000  H
  H56      1.0000 0.62030  0.27210  0.37970  Biso   1.000  H
  H57      1.0000 0.37970  0.27210  0.37970  Biso   1.000  H
  H58      1.0000 0.37970  0.27210  0.62030  Biso   1.000  H
  H59      1.0000 0.62030  0.12030  0.77210  Biso   1.000  H
  H60      1.0000 0.77210  0.12030  0.62030  Biso   1.000  H
  H61      1.0000 0.22790  0.87970  0.62030  Biso   1.000  H
  H62      1.0000 0.62030  0.87970  0.22790  Biso   1.000  H
  H63      1.0000 0.22790  0.12030  0.37970  Biso   1.000  H
  H64      1.0000 0.37970  0.87970  0.77210  Biso   1.000  H
  H65      1.0000 0.37970  0.12030  0.22790  Biso   1.000  H
  H66      1.0000 0.77210  0.87970  0.37970  Biso   1.000  H
  H67      1.0000 0.77210  0.12030  0.37970  Biso   1.000  H
  H68      1.0000 0.22790  0.87970  0.37970  Biso   1.000  H
  H69      1.0000 0.37970  0.12030  0.77210  Biso   1.000  H
  H70      1.0000 0.37970  0.87970  0.22790  Biso   1.000  H
  H71      1.0000 0.62030  0.72790  0.62030  Biso   1.000  H
  H72      1.0000 0.37970  0.72790  0.37970  Biso   1.000  H
  H73      1.0000 0.62030  0.77210  0.12030  Biso   1.000  H
  H74      1.0000 0.22790  0.62030  0.12030  Biso   1.000  H
  H75      1.0000 0.37970  0.22790  0.12030  Biso   1.000  H
  H76      1.0000 0.77210  0.37970  0.12030  Biso   1.000  H
  H77      1.0000 0.62030  0.37970  0.27210  Biso   1.000  H
  H78      1.0000 0.62030  0.22790  0.87970  Biso   1.000  H
  H79      1.0000 0.62030  0.62030  0.72790  Biso   1.000  H
  H80      1.0000 0.62030  0.77210  0.87970  Biso   1.000  H
  H81      1.0000 0.37970  0.77210  0.87970  Biso   1.000  H
  H82      1.0000 0.37970  0.77210  0.12030  Biso   1.000  H
  H83      1.0000 0.62030  0.62030  0.27210  Biso   1.000  H
  H84      1.0000 0.77210  0.62030  0.12030  Biso   1.000  H
  H85      1.0000 0.22790  0.37970  0.12030  Biso   1.000  H
  H86      1.0000 0.62030  0.37970  0.72790  Biso   1.000  H
  H87      1.0000 0.22790  0.62030  0.87970  Biso   1.000  H
  H88      1.0000 0.37970  0.37970  0.27210  Biso   1.000  H
  H89      1.0000 0.37970  0.62030  0.72790  Biso   1.000  H
  H90      1.0000 0.77210  0.37970  0.87970  Biso   1.000  H
  H91      1.0000 0.77210  0.62030  0.87970  Biso   1.000  H
  H92      1.0000 0.22790  0.37970  0.87970  Biso   1.000  H
  H93      1.0000 0.37970  0.62030  0.27210  Biso   1.000  H
  H94      1.0000 0.37970  0.37970  0.72790  Biso   1.000  H
  H95      1.0000 0.62030  0.22790  0.12030  Biso   1.000  H
  H96      1.0000 0.37970  0.22790  0.87970  Biso   1.000  H
  O193     1.0000 0.34411  0.34411  0.00000  Biso   1.000  O
  O194     1.0000 0.65589  0.34411  0.00000  Biso   1.000  O
  O195     1.0000 0.65589  0.65589  0.00000  Biso   1.000  O
  O196     1.0000 0.34411  0.65589  0.00000  Biso   1.000  O
  O197     1.0000 0.34411  0.00000  0.34411  Biso   1.000  O
  O198     1.0000 0.34411  0.00000  0.65589  Biso   1.000  O
  O199     1.0000 0.00000  0.34411  0.65589  Biso   1.000  O
  O200     1.0000 0.00000  0.34411  0.34411  Biso   1.000  O
  O201     1.0000 0.65589  0.00000  0.34411  Biso   1.000  O
  O202     1.0000 0.00000  0.65589  0.65589  Biso   1.000  O
  O203     1.0000 0.65589  0.00000  0.65589  Biso   1.000  O
  O204     1.0000 0.00000  0.65589  0.34411  Biso   1.000  O
  O205     1.0000 0.34411  0.84411  0.50000  Biso   1.000  O
  O206     1.0000 0.65589  0.84411  0.50000  Biso   1.000  O
  O207     1.0000 0.65589  0.15589  0.50000  Biso   1.000  O
  O208     1.0000 0.34411  0.15589  0.50000  Biso   1.000  O
  O209     1.0000 0.34411  0.50000  0.84411  Biso   1.000  O
  O210     1.0000 0.34411  0.50000  0.15589  Biso   1.000  O
  O211     1.0000 0.00000  0.84411  0.15589  Biso   1.000  O
  O212     1.0000 0.00000  0.84411  0.84411  Biso   1.000  O
  O213     1.0000 0.65589  0.50000  0.84411  Biso   1.000  O
  O214     1.0000 0.00000  0.15589  0.15589  Biso   1.000  O
  O215     1.0000 0.65589  0.50000  0.15589  Biso   1.000  O
  O216     1.0000 0.00000  0.15589  0.84411  Biso   1.000  O
  O217     1.0000 0.84411  0.34411  0.50000  Biso   1.000  O
  O218     1.0000 0.15589  0.34411  0.50000  Biso   1.000  O
  O219     1.0000 0.15589  0.65589  0.50000  Biso   1.000  O
  O220     1.0000 0.84411  0.65589  0.50000  Biso   1.000  O
  O221     1.0000 0.84411  0.00000  0.84411  Biso   1.000  O
  O222     1.0000 0.84411  0.00000  0.15589  Biso   1.000  O
  O223     1.0000 0.50000  0.34411  0.15589  Biso   1.000  O
  O224     1.0000 0.50000  0.34411  0.84411  Biso   1.000  O
  O225     1.0000 0.15589  0.00000  0.84411  Biso   1.000  O
  O226     1.0000 0.50000  0.65589  0.15589  Biso   1.000  O
  O227     1.0000 0.15589  0.00000  0.15589  Biso   1.000  O
  O228     1.0000 0.50000  0.65589  0.84411  Biso   1.000  O
  O229     1.0000 0.84411  0.84411  0.00000  Biso   1.000  O
  O230     1.0000 0.15589  0.84411  0.00000  Biso   1.000  O
  O231     1.0000 0.15589  0.15589  0.00000  Biso   1.000  O
  O232     1.0000 0.84411  0.15589  0.00000  Biso   1.000  O
  O233     1.0000 0.84411  0.50000  0.34411  Biso   1.000  O
  O234     1.0000 0.84411  0.50000  0.65589  Biso   1.000  O
  O235     1.0000 0.50000  0.84411  0.65589  Biso   1.000  O
  O236     1.0000 0.50000  0.84411  0.34411  Biso   1.000  O
  O237     1.0000 0.15589  0.50000  0.34411  Biso   1.000  O
  O238     1.0000 0.50000  0.15589  0.65589  Biso   1.000  O
  O239     1.0000 0.15589  0.50000  0.65589  Biso   1.000  O
  O240     1.0000 0.50000  0.15589  0.34411  Biso   1.000  O
  C289     1.0000 0.36950  0.36950  0.00000  Biso   1.000  C
  C290     1.0000 0.63050  0.36950  0.00000  Biso   1.000  C
  C291     1.0000 0.63050  0.63050  0.00000  Biso   1.000  C
  C292     1.0000 0.36950  0.63050  0.00000  Biso   1.000  C
  C293     1.0000 0.36950  0.00000  0.36950  Biso   1.000  C
  C294     1.0000 0.36950  0.00000  0.63050  Biso   1.000  C
  C295     1.0000 0.00000  0.36950  0.63050  Biso   1.000  C
  C296     1.0000 0.00000  0.36950  0.36950  Biso   1.000  C
  C297     1.0000 0.63050  0.00000  0.36950  Biso   1.000  C
  C298     1.0000 0.00000  0.63050  0.63050  Biso   1.000  C
  C299     1.0000 0.63050  0.00000  0.63050  Biso   1.000  C
  C300     1.0000 0.00000  0.63050  0.36950  Biso   1.000  C
  C301     1.0000 0.36950  0.86950  0.50000  Biso   1.000  C
  C302     1.0000 0.63050  0.86950  0.50000  Biso   1.000  C
  C303     1.0000 0.63050  0.13050  0.50000  Biso   1.000  C
  C304     1.0000 0.36950  0.13050  0.50000  Biso   1.000  C
  C305     1.0000 0.36950  0.50000  0.86950  Biso   1.000  C
  C306     1.0000 0.36950  0.50000  0.13050  Biso   1.000  C
  C307     1.0000 0.00000  0.86950  0.13050  Biso   1.000  C
  C308     1.0000 0.00000  0.86950  0.86950  Biso   1.000  C
  C309     1.0000 0.63050  0.50000  0.86950  Biso   1.000  C
  C310     1.0000 0.00000  0.13050  0.13050  Biso   1.000  C
  C311     1.0000 0.63050  0.50000  0.13050  Biso   1.000  C
  C312     1.0000 0.00000  0.13050  0.86950  Biso   1.000  C
  C313     1.0000 0.86950  0.36950  0.50000  Biso   1.000  C
  C314     1.0000 0.13050  0.36950  0.50000  Biso   1.000  C
  C315     1.0000 0.13050  0.63050  0.50000  Biso   1.000  C
  C316     1.0000 0.86950  0.63050  0.50000  Biso   1.000  C
  C317     1.0000 0.86950  0.00000  0.86950  Biso   1.000  C
  C318     1.0000 0.86950  0.00000  0.13050  Biso   1.000  C
  C319     1.0000 0.50000  0.36950  0.13050  Biso   1.000  C
  C320     1.0000 0.50000  0.36950  0.86950  Biso   1.000  C
  C321     1.0000 0.13050  0.00000  0.86950  Biso   1.000  C
  C322     1.0000 0.50000  0.63050  0.13050  Biso   1.000  C
  C323     1.0000 0.13050  0.00000  0.13050  Biso   1.000  C
  C324     1.0000 0.50000  0.63050  0.86950  Biso   1.000  C
  C325     1.0000 0.86950  0.86950  0.00000  Biso   1.000  C
  C326     1.0000 0.13050  0.86950  0.00000  Biso   1.000  C
  C327     1.0000 0.13050  0.13050  0.00000  Biso   1.000  C
  C328     1.0000 0.86950  0.13050  0.00000  Biso   1.000  C
  C329     1.0000 0.86950  0.50000  0.36950  Biso   1.000  C
  C330     1.0000 0.86950  0.50000  0.63050  Biso   1.000  C
  C331     1.0000 0.50000  0.86950  0.63050  Biso   1.000  C
  C332     1.0000 0.50000  0.86950  0.36950  Biso   1.000  C
  C333     1.0000 0.13050  0.50000  0.36950  Biso   1.000  C
  C334     1.0000 0.50000  0.13050  0.63050  Biso   1.000  C
  C335     1.0000 0.13050  0.50000  0.63050  Biso   1.000  C
  C336     1.0000 0.50000  0.13050  0.36950  Biso   1.000  C
  C337     1.0000 0.40920  0.40920  0.00000  Biso   1.000  C
  C338     1.0000 0.59080  0.40920  0.00000  Biso   1.000  C
  C339     1.0000 0.59080  0.59080  0.00000  Biso   1.000  C
  C340     1.0000 0.40920  0.59080  0.00000  Biso   1.000  C
  C341     1.0000 0.40920  0.00000  0.40920  Biso   1.000  C
  C342     1.0000 0.40920  0.00000  0.59080  Biso   1.000  C
  C343     1.0000 0.00000  0.40920  0.59080  Biso   1.000  C
  C344     1.0000 0.00000  0.40920  0.40920  Biso   1.000  C
  C345     1.0000 0.59080  0.00000  0.40920  Biso   1.000  C
  C346     1.0000 0.00000  0.59080  0.59080  Biso   1.000  C
  C347     1.0000 0.59080  0.00000  0.59080  Biso   1.000  C
  C348     1.0000 0.00000  0.59080  0.40920  Biso   1.000  C
  C349     1.0000 0.40920  0.90920  0.50000  Biso   1.000  C
  C350     1.0000 0.59080  0.90920  0.50000  Biso   1.000  C
  C351     1.0000 0.59080  0.09080  0.50000  Biso   1.000  C
  C352     1.0000 0.40920  0.09080  0.50000  Biso   1.000  C
  C353     1.0000 0.40920  0.50000  0.90920  Biso   1.000  C
  C354     1.0000 0.40920  0.50000  0.09080  Biso   1.000  C
  C355     1.0000 0.00000  0.90920  0.09080  Biso   1.000  C
  C356     1.0000 0.00000  0.90920  0.90920  Biso   1.000  C
  C357     1.0000 0.59080  0.50000  0.90920  Biso   1.000  C
  C358     1.0000 0.00000  0.09080  0.09080  Biso   1.000  C
  C359     1.0000 0.59080  0.50000  0.09080  Biso   1.000  C
  C360     1.0000 0.00000  0.09080  0.90920  Biso   1.000  C
  C361     1.0000 0.90920  0.40920  0.50000  Biso   1.000  C
  C362     1.0000 0.09080  0.40920  0.50000  Biso   1.000  C
  C363     1.0000 0.09080  0.59080  0.50000  Biso   1.000  C
  C364     1.0000 0.90920  0.59080  0.50000  Biso   1.000  C
  C365     1.0000 0.90920  0.00000  0.90920  Biso   1.000  C
  C366     1.0000 0.90920  0.00000  0.09080  Biso   1.000  C
  C367     1.0000 0.50000  0.40920  0.09080  Biso   1.000  C
  C368     1.0000 0.50000  0.40920  0.90920  Biso   1.000  C
  C369     1.0000 0.09080  0.00000  0.90920  Biso   1.000  C
  C370     1.0000 0.50000  0.59080  0.09080  Biso   1.000  C
  C371     1.0000 0.09080  0.00000  0.09080  Biso   1.000  C
  C372     1.0000 0.50000  0.59080  0.90920  Biso   1.000  C
  C373     1.0000 0.90920  0.90920  0.00000  Biso   1.000  C
  C374     1.0000 0.09080  0.90920  0.00000  Biso   1.000  C
  C375     1.0000 0.09080  0.09080  0.00000  Biso   1.000  C
  C376     1.0000 0.90920  0.09080  0.00000  Biso   1.000  C
  C377     1.0000 0.90920  0.50000  0.40920  Biso   1.000  C
  C378     1.0000 0.90920  0.50000  0.59080  Biso   1.000  C
  C379     1.0000 0.50000  0.90920  0.59080  Biso   1.000  C
  C380     1.0000 0.50000  0.90920  0.40920  Biso   1.000  C
  C381     1.0000 0.09080  0.50000  0.40920  Biso   1.000  C
  C382     1.0000 0.50000  0.09080  0.59080  Biso   1.000  C
  C383     1.0000 0.09080  0.50000  0.59080  Biso   1.000  C
  C384     1.0000 0.50000  0.09080  0.40920  Biso   1.000  C
  N1       1.0000 0.17060  0.17060  0.17060  Biso   1.000  N
  N2       1.0000 0.82940  0.17060  0.17060  Biso   1.000  N
  N3       1.0000 0.82940  0.82940  0.17060  Biso   1.000  N
  N4       1.0000 0.17060  0.82940  0.17060  Biso   1.000  N
  N5       1.0000 0.17060  0.82940  0.82940  Biso   1.000  N
  N6       1.0000 0.17060  0.17060  0.82940  Biso   1.000  N
  N7       1.0000 0.82940  0.17060  0.82940  Biso   1.000  N
  N8       1.0000 0.82940  0.82940  0.82940  Biso   1.000  N
  N9       1.0000 0.17060  0.67060  0.67060  Biso   1.000  N
  N10      1.0000 0.82940  0.67060  0.67060  Biso   1.000  N
  N11      1.0000 0.82940  0.32940  0.67060  Biso   1.000  N
  N12      1.0000 0.17060  0.32940  0.67060  Biso   1.000  N
  N13      1.0000 0.17060  0.32940  0.32940  Biso   1.000  N
  N14      1.0000 0.17060  0.67060  0.32940  Biso   1.000  N
  N15      1.0000 0.82940  0.67060  0.32940  Biso   1.000  N
  N16      1.0000 0.82940  0.32940  0.32940  Biso   1.000  N
  N17      1.0000 0.67060  0.17060  0.67060  Biso   1.000  N
  N18      1.0000 0.32940  0.17060  0.67060  Biso   1.000  N
  N19      1.0000 0.32940  0.82940  0.67060  Biso   1.000  N
  N20      1.0000 0.67060  0.82940  0.67060  Biso   1.000  N
  N21      1.0000 0.67060  0.82940  0.32940  Biso   1.000  N
  N22      1.0000 0.67060  0.17060  0.32940  Biso   1.000  N
  N23      1.0000 0.32940  0.17060  0.32940  Biso   1.000  N
  N24      1.0000 0.32940  0.82940  0.32940  Biso   1.000  N
  N25      1.0000 0.67060  0.67060  0.17060  Biso   1.000  N
  N26      1.0000 0.32940  0.67060  0.17060  Biso   1.000  N
  N27      1.0000 0.32940  0.32940  0.17060  Biso   1.000  N
  N28      1.0000 0.67060  0.32940  0.17060  Biso   1.000  N
  N29      1.0000 0.67060  0.32940  0.82940  Biso   1.000  N
  N30      1.0000 0.67060  0.67060  0.82940  Biso   1.000  N
  N31      1.0000 0.32940  0.67060  0.82940  Biso   1.000  N
  N32      1.0000 0.32940  0.32940  0.82940  Biso   1.000  N
  C385     1.0000 0.14600  0.14600  0.14600  Biso   1.000  C
  C386     1.0000 0.85400  0.14600  0.14600  Biso   1.000  C
  C387     1.0000 0.85400  0.85400  0.14600  Biso   1.000  C
  C388     1.0000 0.14600  0.85400  0.14600  Biso   1.000  C
  C389     1.0000 0.14600  0.85400  0.85400  Biso   1.000  C
  C390     1.0000 0.14600  0.14600  0.85400  Biso   1.000  C
  C391     1.0000 0.85400  0.14600  0.85400  Biso   1.000  C
  C392     1.0000 0.85400  0.85400  0.85400  Biso   1.000  C
  C393     1.0000 0.14600  0.64600  0.64600  Biso   1.000  C
  C394     1.0000 0.85400  0.64600  0.64600  Biso   1.000  C
  C395     1.0000 0.85400  0.35400  0.64600  Biso   1.000  C
  C396     1.0000 0.14600  0.35400  0.64600  Biso   1.000  C
  C397     1.0000 0.14600  0.35400  0.35400  Biso   1.000  C
  C398     1.0000 0.14600  0.64600  0.35400  Biso   1.000  C
  C399     1.0000 0.85400  0.64600  0.35400  Biso   1.000  C
  C400     1.0000 0.85400  0.35400  0.35400  Biso   1.000  C
  C401     1.0000 0.64600  0.14600  0.64600  Biso   1.000  C
  C402     1.0000 0.35400  0.14600  0.64600  Biso   1.000  C
  C403     1.0000 0.35400  0.85400  0.64600  Biso   1.000  C
  C404     1.0000 0.64600  0.85400  0.64600  Biso   1.000  C
  C405     1.0000 0.64600  0.85400  0.35400  Biso   1.000  C
  C406     1.0000 0.64600  0.14600  0.35400  Biso   1.000  C
  C407     1.0000 0.35400  0.14600  0.35400  Biso   1.000  C
  C408     1.0000 0.35400  0.85400  0.35400  Biso   1.000  C
  C409     1.0000 0.64600  0.64600  0.14600  Biso   1.000  C
  C410     1.0000 0.35400  0.64600  0.14600  Biso   1.000  C
  C411     1.0000 0.35400  0.35400  0.14600  Biso   1.000  C
  C412     1.0000 0.64600  0.35400  0.14600  Biso   1.000  C
  C413     1.0000 0.64600  0.35400  0.85400  Biso   1.000  C
  C414     1.0000 0.64600  0.64600  0.85400  Biso   1.000  C
  C415     1.0000 0.35400  0.64600  0.85400  Biso   1.000  C
  C416     1.0000 0.35400  0.35400  0.85400  Biso   1.000  C
  C417     1.0000 0.11680  0.11680  0.11680  Biso   1.000  C
  C418     1.0000 0.88320  0.11680  0.11680  Biso   1.000  C
  C419     1.0000 0.88320  0.88320  0.11680  Biso   1.000  C
  C420     1.0000 0.11680  0.88320  0.11680  Biso   1.000  C
  C421     1.0000 0.11680  0.88320  0.88320  Biso   1.000  C
  C422     1.0000 0.11680  0.11680  0.88320  Biso   1.000  C
  C423     1.0000 0.88320  0.11680  0.88320  Biso   1.000  C
  C424     1.0000 0.88320  0.88320  0.88320  Biso   1.000  C
  C425     1.0000 0.11680  0.61680  0.61680  Biso   1.000  C
  C426     1.0000 0.88320  0.61680  0.61680  Biso   1.000  C
  C427     1.0000 0.88320  0.38320  0.61680  Biso   1.000  C
  C428     1.0000 0.11680  0.38320  0.61680  Biso   1.000  C
  C429     1.0000 0.11680  0.38320  0.38320  Biso   1.000  C
  C430     1.0000 0.11680  0.61680  0.38320  Biso   1.000  C
  C431     1.0000 0.88320  0.61680  0.38320  Biso   1.000  C
  C432     1.0000 0.88320  0.38320  0.38320  Biso   1.000  C
  C433     1.0000 0.61680  0.11680  0.61680  Biso   1.000  C
  C434     1.0000 0.38320  0.11680  0.61680  Biso   1.000  C
  C435     1.0000 0.38320  0.88320  0.61680  Biso   1.000  C
  C436     1.0000 0.61680  0.88320  0.61680  Biso   1.000  C
  C437     1.0000 0.61680  0.88320  0.38320  Biso   1.000  C
  C438     1.0000 0.61680  0.11680  0.38320  Biso   1.000  C
  C439     1.0000 0.38320  0.11680  0.38320  Biso   1.000  C
  C440     1.0000 0.38320  0.88320  0.38320  Biso   1.000  C
  C441     1.0000 0.61680  0.61680  0.11680  Biso   1.000  C
  C442     1.0000 0.38320  0.61680  0.11680  Biso   1.000  C
  C443     1.0000 0.38320  0.38320  0.11680  Biso   1.000  C
  C444     1.0000 0.61680  0.38320  0.11680  Biso   1.000  C
  C445     1.0000 0.61680  0.38320  0.88320  Biso   1.000  C
  C446     1.0000 0.61680  0.61680  0.88320  Biso   1.000  C
  C447     1.0000 0.38320  0.61680  0.88320  Biso   1.000  C
  C448     1.0000 0.38320  0.38320  0.88320  Biso   1.000  C
  N33      1.0000 0.19460  0.19460  0.19460  Biso   1.000  N
  N34      1.0000 0.80540  0.19460  0.19460  Biso   1.000  N
  N35      1.0000 0.80540  0.80540  0.19460  Biso   1.000  N
  N36      1.0000 0.19460  0.80540  0.19460  Biso   1.000  N
  N37      1.0000 0.19460  0.80540  0.80540  Biso   1.000  N
  N38      1.0000 0.19460  0.19460  0.80540  Biso   1.000  N
  N39      1.0000 0.80540  0.19460  0.80540  Biso   1.000  N
  N40      1.0000 0.80540  0.80540  0.80540  Biso   1.000  N
  N41      1.0000 0.19460  0.69460  0.69460  Biso   1.000  N
  N42      1.0000 0.80540  0.69460  0.69460  Biso   1.000  N
  N43      1.0000 0.80540  0.30540  0.69460  Biso   1.000  N
  N44      1.0000 0.19460  0.30540  0.69460  Biso   1.000  N
  N45      1.0000 0.19460  0.30540  0.30540  Biso   1.000  N
  N46      1.0000 0.19460  0.69460  0.30540  Biso   1.000  N
  N47      1.0000 0.80540  0.69460  0.30540  Biso   1.000  N
  N48      1.0000 0.80540  0.30540  0.30540  Biso   1.000  N
  N49      1.0000 0.69460  0.19460  0.69460  Biso   1.000  N
  N50      1.0000 0.30540  0.19460  0.69460  Biso   1.000  N
  N51      1.0000 0.30540  0.80540  0.69460  Biso   1.000  N
  N52      1.0000 0.69460  0.80540  0.69460  Biso   1.000  N
  N53      1.0000 0.69460  0.80540  0.30540  Biso   1.000  N
  N54      1.0000 0.69460  0.19460  0.30540  Biso   1.000  N
  N55      1.0000 0.30540  0.19460  0.30540  Biso   1.000  N
  N56      1.0000 0.30540  0.80540  0.30540  Biso   1.000  N
  N57      1.0000 0.69460  0.69460  0.19460  Biso   1.000  N
  N58      1.0000 0.30540  0.69460  0.19460  Biso   1.000  N
  N59      1.0000 0.30540  0.30540  0.19460  Biso   1.000  N
  N60      1.0000 0.69460  0.30540  0.19460  Biso   1.000  N
  N61      1.0000 0.69460  0.30540  0.80540  Biso   1.000  N
  N62      1.0000 0.69460  0.69460  0.80540  Biso   1.000  N
  N63      1.0000 0.30540  0.69460  0.80540  Biso   1.000  N
  N64      1.0000 0.30540  0.30540  0.80540  Biso   1.000  N
  C449     1.0000 0.21610  0.21610  0.21610  Biso   1.000  C
  C450     1.0000 0.78390  0.21610  0.21610  Biso   1.000  C
  C451     1.0000 0.78390  0.78390  0.21610  Biso   1.000  C
  C452     1.0000 0.21610  0.78390  0.21610  Biso   1.000  C
  C453     1.0000 0.21610  0.78390  0.78390  Biso   1.000  C
  C454     1.0000 0.21610  0.21610  0.78390  Biso   1.000  C
  C455     1.0000 0.78390  0.21610  0.78390  Biso   1.000  C
  C456     1.0000 0.78390  0.78390  0.78390  Biso   1.000  C
  C457     1.0000 0.21610  0.71610  0.71610  Biso   1.000  C
  C458     1.0000 0.78390  0.71610  0.71610  Biso   1.000  C
  C459     1.0000 0.78390  0.28390  0.71610  Biso   1.000  C
  C460     1.0000 0.21610  0.28390  0.71610  Biso   1.000  C
  C461     1.0000 0.21610  0.28390  0.28390  Biso   1.000  C
  C462     1.0000 0.21610  0.71610  0.28390  Biso   1.000  C
  C463     1.0000 0.78390  0.71610  0.28390  Biso   1.000  C
  C464     1.0000 0.78390  0.28390  0.28390  Biso   1.000  C
  C465     1.0000 0.71610  0.21610  0.71610  Biso   1.000  C
  C466     1.0000 0.28390  0.21610  0.71610  Biso   1.000  C
  C467     1.0000 0.28390  0.78390  0.71610  Biso   1.000  C
  C468     1.0000 0.71610  0.78390  0.71610  Biso   1.000  C
  C469     1.0000 0.71610  0.78390  0.28390  Biso   1.000  C
  C470     1.0000 0.71610  0.21610  0.28390  Biso   1.000  C
  C471     1.0000 0.28390  0.21610  0.28390  Biso   1.000  C
  C472     1.0000 0.28390  0.78390  0.28390  Biso   1.000  C
  C473     1.0000 0.71610  0.71610  0.21610  Biso   1.000  C
  C474     1.0000 0.28390  0.71610  0.21610  Biso   1.000  C
  C475     1.0000 0.28390  0.28390  0.21610  Biso   1.000  C
  C476     1.0000 0.71610  0.28390  0.21610  Biso   1.000  C
  C477     1.0000 0.71610  0.28390  0.78390  Biso   1.000  C
  C478     1.0000 0.71610  0.71610  0.78390  Biso   1.000  C
  C479     1.0000 0.28390  0.71610  0.78390  Biso   1.000  C
  C480     1.0000 0.28390  0.28390  0.78390  Biso   1.000  C
  C481     1.0000 0.25000  0.25000  0.25000  Biso   1.000  C
  C482     1.0000 0.75000  0.25000  0.25000  Biso   1.000  C
  C483     1.0000 0.75000  0.75000  0.25000  Biso   1.000  C
  C484     1.0000 0.25000  0.75000  0.25000  Biso   1.000  C
  C485     1.0000 0.25000  0.75000  0.75000  Biso   1.000  C
  C486     1.0000 0.25000  0.25000  0.75000  Biso   1.000  C
  C487     1.0000 0.75000  0.25000  0.75000  Biso   1.000  C
  C488     1.0000 0.75000  0.75000  0.75000  Biso   1.000  C
