data_image0
_cell_length_a       16.9328
_cell_length_b       16.9328
_cell_length_c       46.598
_cell_angle_alpha    90
_cell_angle_beta     90
_cell_angle_gamma    120

_symmetry_space_group_name_H-M    "P 1"
_symmetry_int_tables_number       1

loop_
  _symmetry_equiv_pos_as_xyz
  'x, y, z'

loop_
  _atom_site_label
  _atom_site_occupancy
  _atom_site_fract_x
  _atom_site_fract_y
  _atom_site_fract_z
  _atom_site_thermal_displace_type
  _atom_site_B_iso_or_equiv
  _atom_site_type_symbol
  Cu1      1.0000 0.66670  0.77020  0.08330  Biso   1.000  Cu
  Cu2      1.0000 0.22980  0.89650  0.08330  Biso   1.000  Cu
  Cu3      1.0000 0.10350  0.33330  0.08330  Biso   1.000  Cu
  Cu4      1.0000 0.77020  0.66670  0.41670  Biso   1.000  Cu
  Cu5      1.0000 0.33330  0.10350  0.41670  Biso   1.000  Cu
  Cu6      1.0000 0.89650  0.22980  0.41670  Biso   1.000  Cu
  Cu7      1.0000 0.43687  0.00003  0.75003  Biso   1.000  Cu
  Cu8      1.0000 0.99997  0.43683  0.75003  Biso   1.000  Cu
  Cu9      1.0000 0.56317  0.56313  0.75003  Biso   1.000  Cu
  Cu10     1.0000 0.33330  0.22980  0.91670  Biso   1.000  Cu
  Cu11     1.0000 0.77020  0.10350  0.91670  Biso   1.000  Cu
  Cu12     1.0000 0.89650  0.66670  0.91670  Biso   1.000  Cu
  Cu13     1.0000 0.22980  0.33330  0.58330  Biso   1.000  Cu
  Cu14     1.0000 0.66670  0.89650  0.58330  Biso   1.000  Cu
  Cu15     1.0000 0.10350  0.77020  0.58330  Biso   1.000  Cu
  Cu16     1.0000 0.99997  0.56313  0.25003  Biso   1.000  Cu
  Cu17     1.0000 0.43687  0.43683  0.25003  Biso   1.000  Cu
  Cu18     1.0000 0.56317  0.00003  0.25003  Biso   1.000  Cu
  O1       1.0000 0.54980  0.71810  0.04545  Biso   1.000  O
  O2       1.0000 0.28190  0.83170  0.04545  Biso   1.000  O
  O3       1.0000 0.16830  0.45020  0.04545  Biso   1.000  O
  O4       1.0000 0.71810  0.54980  0.45455  Biso   1.000  O
  O5       1.0000 0.45020  0.16830  0.45455  Biso   1.000  O
  O6       1.0000 0.83170  0.28190  0.45455  Biso   1.000  O
  O7       1.0000 0.21647  0.05143  0.37878  Biso   1.000  O
  O8       1.0000 0.94857  0.16503  0.37878  Biso   1.000  O
  O9       1.0000 0.83497  0.78353  0.37878  Biso   1.000  O
  O10      1.0000 0.38477  0.88313  0.78788  Biso   1.000  O
  O11      1.0000 0.11687  0.50163  0.78788  Biso   1.000  O
  O12      1.0000 0.49837  0.61523  0.78788  Biso   1.000  O
  O13      1.0000 0.88313  0.38477  0.71212  Biso   1.000  O
  O14      1.0000 0.61523  0.49837  0.71212  Biso   1.000  O
  O15      1.0000 0.50163  0.11687  0.71212  Biso   1.000  O
  O16      1.0000 0.05143  0.21647  0.12122  Biso   1.000  O
  O17      1.0000 0.78353  0.83497  0.12122  Biso   1.000  O
  O18      1.0000 0.16503  0.94857  0.12122  Biso   1.000  O
  O19      1.0000 0.45020  0.28190  0.95455  Biso   1.000  O
  O20      1.0000 0.71810  0.16830  0.95455  Biso   1.000  O
  O21      1.0000 0.83170  0.54980  0.95455  Biso   1.000  O
  O22      1.0000 0.28190  0.45020  0.54545  Biso   1.000  O
  O23      1.0000 0.54980  0.83170  0.54545  Biso   1.000  O
  O24      1.0000 0.16830  0.71810  0.54545  Biso   1.000  O
  O25      1.0000 0.11687  0.61523  0.28788  Biso   1.000  O
  O26      1.0000 0.38477  0.50163  0.28788  Biso   1.000  O
  O27      1.0000 0.49837  0.88313  0.28788  Biso   1.000  O
  O28      1.0000 0.94857  0.78353  0.87878  Biso   1.000  O
  O29      1.0000 0.21647  0.16503  0.87878  Biso   1.000  O
  O30      1.0000 0.83497  0.05143  0.87878  Biso   1.000  O
  O31      1.0000 0.78353  0.94857  0.62122  Biso   1.000  O
  O32      1.0000 0.05143  0.83497  0.62122  Biso   1.000  O
  O33      1.0000 0.16503  0.21647  0.62122  Biso   1.000  O
  O34      1.0000 0.61523  0.11687  0.21212  Biso   1.000  O
  O35      1.0000 0.88313  0.49837  0.21212  Biso   1.000  O
  O36      1.0000 0.50163  0.38477  0.21212  Biso   1.000  O
  H1       1.0000 0.49360  0.69520  0.04180  Biso   1.000  H
  H2       1.0000 0.30480  0.79840  0.04180  Biso   1.000  H
  H3       1.0000 0.20160  0.50640  0.04180  Biso   1.000  H
  H4       1.0000 0.69520  0.49360  0.45820  Biso   1.000  H
  H5       1.0000 0.50640  0.20160  0.45820  Biso   1.000  H
  H6       1.0000 0.79840  0.30480  0.45820  Biso   1.000  H
  H7       1.0000 0.16027  0.02853  0.37513  Biso   1.000  H
  H8       1.0000 0.97147  0.13173  0.37513  Biso   1.000  H
  H9       1.0000 0.86827  0.83973  0.37513  Biso   1.000  H
  H10      1.0000 0.36187  0.82693  0.79153  Biso   1.000  H
  H11      1.0000 0.17307  0.53493  0.79153  Biso   1.000  H
  H12      1.0000 0.46507  0.63813  0.79153  Biso   1.000  H
  H13      1.0000 0.82693  0.36187  0.70847  Biso   1.000  H
  H14      1.0000 0.63813  0.46507  0.70847  Biso   1.000  H
  H15      1.0000 0.53493  0.17307  0.70847  Biso   1.000  H
  H16      1.0000 0.02853  0.16027  0.12487  Biso   1.000  H
  H17      1.0000 0.83973  0.86827  0.12487  Biso   1.000  H
  H18      1.0000 0.13173  0.97147  0.12487  Biso   1.000  H
  H19      1.0000 0.50640  0.30480  0.95820  Biso   1.000  H
  H20      1.0000 0.69520  0.20160  0.95820  Biso   1.000  H
  H21      1.0000 0.79840  0.49360  0.95820  Biso   1.000  H
  H22      1.0000 0.30480  0.50640  0.54180  Biso   1.000  H
  H23      1.0000 0.49360  0.79840  0.54180  Biso   1.000  H
  H24      1.0000 0.20160  0.69520  0.54180  Biso   1.000  H
  H25      1.0000 0.17307  0.63813  0.29153  Biso   1.000  H
  H26      1.0000 0.36187  0.53493  0.29153  Biso   1.000  H
  H27      1.0000 0.46507  0.82693  0.29153  Biso   1.000  H
  H28      1.0000 0.97147  0.83973  0.87513  Biso   1.000  H
  H29      1.0000 0.16027  0.13173  0.87513  Biso   1.000  H
  H30      1.0000 0.86827  0.02853  0.87513  Biso   1.000  H
  H31      1.0000 0.83973  0.97147  0.62487  Biso   1.000  H
  H32      1.0000 0.02853  0.86827  0.62487  Biso   1.000  H
  H33      1.0000 0.13173  0.16027  0.62487  Biso   1.000  H
  H34      1.0000 0.63813  0.17307  0.20847  Biso   1.000  H
  H35      1.0000 0.82693  0.46507  0.20847  Biso   1.000  H
  H36      1.0000 0.53493  0.36187  0.20847  Biso   1.000  H
  H37      1.0000 0.56600  0.71950  0.06280  Biso   1.000  H
  H38      1.0000 0.28050  0.84650  0.06280  Biso   1.000  H
  H39      1.0000 0.15350  0.43400  0.06280  Biso   1.000  H
  H40      1.0000 0.71950  0.56600  0.43720  Biso   1.000  H
  H41      1.0000 0.43400  0.15350  0.43720  Biso   1.000  H
  H42      1.0000 0.84650  0.28050  0.43720  Biso   1.000  H
  H43      1.0000 0.23267  0.05283  0.39613  Biso   1.000  H
  H44      1.0000 0.94717  0.17983  0.39613  Biso   1.000  H
  H45      1.0000 0.82017  0.76733  0.39613  Biso   1.000  H
  H46      1.0000 0.38617  0.89933  0.77053  Biso   1.000  H
  H47      1.0000 0.10067  0.48683  0.77053  Biso   1.000  H
  H48      1.0000 0.51317  0.61383  0.77053  Biso   1.000  H
  H49      1.0000 0.89933  0.38617  0.72947  Biso   1.000  H
  H50      1.0000 0.61383  0.51317  0.72947  Biso   1.000  H
  H51      1.0000 0.48683  0.10067  0.72947  Biso   1.000  H
  H52      1.0000 0.05283  0.23267  0.10387  Biso   1.000  H
  H53      1.0000 0.76733  0.82017  0.10387  Biso   1.000  H
  H54      1.0000 0.17983  0.94717  0.10387  Biso   1.000  H
  H55      1.0000 0.43400  0.28050  0.93720  Biso   1.000  H
  H56      1.0000 0.71950  0.15350  0.93720  Biso   1.000  H
  H57      1.0000 0.84650  0.56600  0.93720  Biso   1.000  H
  H58      1.0000 0.28050  0.43400  0.56280  Biso   1.000  H
  H59      1.0000 0.56600  0.84650  0.56280  Biso   1.000  H
  H60      1.0000 0.15350  0.71950  0.56280  Biso   1.000  H
  H61      1.0000 0.10067  0.61383  0.27053  Biso   1.000  H
  H62      1.0000 0.38617  0.48683  0.27053  Biso   1.000  H
  H63      1.0000 0.51317  0.89933  0.27053  Biso   1.000  H
  H64      1.0000 0.94717  0.76733  0.89613  Biso   1.000  H
  H65      1.0000 0.23267  0.17983  0.89613  Biso   1.000  H
  H66      1.0000 0.82017  0.05283  0.89613  Biso   1.000  H
  H67      1.0000 0.76733  0.94717  0.60387  Biso   1.000  H
  H68      1.0000 0.05283  0.82017  0.60387  Biso   1.000  H
  H69      1.0000 0.17983  0.23267  0.60387  Biso   1.000  H
  H70      1.0000 0.61383  0.10067  0.22947  Biso   1.000  H
  H71      1.0000 0.89933  0.51317  0.22947  Biso   1.000  H
  H72      1.0000 0.48683  0.38617  0.22947  Biso   1.000  H
  N1       1.0000 0.73330  0.88750  0.06104  Biso   1.000  N
  N2       1.0000 0.11250  0.84580  0.06104  Biso   1.000  N
  N3       1.0000 0.15420  0.26670  0.06104  Biso   1.000  N
  N4       1.0000 0.88750  0.73330  0.43896  Biso   1.000  N
  N5       1.0000 0.26670  0.15420  0.43896  Biso   1.000  N
  N6       1.0000 0.84580  0.11250  0.43896  Biso   1.000  N
  N7       1.0000 0.39997  0.22083  0.39437  Biso   1.000  N
  N8       1.0000 0.77917  0.17913  0.39437  Biso   1.000  N
  N9       1.0000 0.82087  0.60003  0.39437  Biso   1.000  N
  N10      1.0000 0.55417  0.06663  0.77229  Biso   1.000  N
  N11      1.0000 0.93337  0.48753  0.77229  Biso   1.000  N
  N12      1.0000 0.51247  0.44583  0.77229  Biso   1.000  N
  N13      1.0000 0.06663  0.55417  0.72771  Biso   1.000  N
  N14      1.0000 0.44583  0.51247  0.72771  Biso   1.000  N
  N15      1.0000 0.48753  0.93337  0.72771  Biso   1.000  N
  N16      1.0000 0.22083  0.39997  0.10563  Biso   1.000  N
  N17      1.0000 0.60003  0.82087  0.10563  Biso   1.000  N
  N18      1.0000 0.17913  0.77917  0.10563  Biso   1.000  N
  N19      1.0000 0.26670  0.11250  0.93896  Biso   1.000  N
  N20      1.0000 0.88750  0.15420  0.93896  Biso   1.000  N
  N21      1.0000 0.84580  0.73330  0.93896  Biso   1.000  N
  N22      1.0000 0.11250  0.26670  0.56104  Biso   1.000  N
  N23      1.0000 0.73330  0.84580  0.56104  Biso   1.000  N
  N24      1.0000 0.15420  0.88750  0.56104  Biso   1.000  N
  N25      1.0000 0.93337  0.44583  0.27229  Biso   1.000  N
  N26      1.0000 0.55417  0.48753  0.27229  Biso   1.000  N
  N27      1.0000 0.51247  0.06663  0.27229  Biso   1.000  N
  N28      1.0000 0.77917  0.60003  0.89437  Biso   1.000  N
  N29      1.0000 0.39997  0.17913  0.89437  Biso   1.000  N
  N30      1.0000 0.82087  0.22083  0.89437  Biso   1.000  N
  N31      1.0000 0.60003  0.77917  0.60563  Biso   1.000  N
  N32      1.0000 0.22083  0.82087  0.60563  Biso   1.000  N
  N33      1.0000 0.17913  0.39997  0.60563  Biso   1.000  N
  N34      1.0000 0.44583  0.93337  0.22771  Biso   1.000  N
  N35      1.0000 0.06663  0.51247  0.22771  Biso   1.000  N
  N36      1.0000 0.48753  0.55417  0.22771  Biso   1.000  N
  N37      1.0000 0.73480  0.88730  0.03161  Biso   1.000  N
  N38      1.0000 0.11270  0.84750  0.03161  Biso   1.000  N
  N39      1.0000 0.15250  0.26520  0.03161  Biso   1.000  N
  N40      1.0000 0.88730  0.73480  0.46839  Biso   1.000  N
  N41      1.0000 0.26520  0.15250  0.46839  Biso   1.000  N
  N42      1.0000 0.84750  0.11270  0.46839  Biso   1.000  N
  N43      1.0000 0.40147  0.22063  0.36494  Biso   1.000  N
  N44      1.0000 0.77937  0.18083  0.36494  Biso   1.000  N
  N45      1.0000 0.81917  0.59853  0.36494  Biso   1.000  N
  N46      1.0000 0.55397  0.06813  0.80172  Biso   1.000  N
  N47      1.0000 0.93187  0.48583  0.80172  Biso   1.000  N
  N48      1.0000 0.51417  0.44603  0.80172  Biso   1.000  N
  N49      1.0000 0.06813  0.55397  0.69828  Biso   1.000  N
  N50      1.0000 0.44603  0.51417  0.69828  Biso   1.000  N
  N51      1.0000 0.48583  0.93187  0.69828  Biso   1.000  N
  N52      1.0000 0.22063  0.40147  0.13506  Biso   1.000  N
  N53      1.0000 0.59853  0.81917  0.13506  Biso   1.000  N
  N54      1.0000 0.18083  0.77937  0.13506  Biso   1.000  N
  N55      1.0000 0.26520  0.11270  0.96839  Biso   1.000  N
  N56      1.0000 0.88730  0.15250  0.96839  Biso   1.000  N
  N57      1.0000 0.84750  0.73480  0.96839  Biso   1.000  N
  N58      1.0000 0.11270  0.26520  0.53161  Biso   1.000  N
  N59      1.0000 0.73480  0.84750  0.53161  Biso   1.000  N
  N60      1.0000 0.15250  0.88730  0.53161  Biso   1.000  N
  N61      1.0000 0.93187  0.44603  0.30172  Biso   1.000  N
  N62      1.0000 0.55397  0.48583  0.30172  Biso   1.000  N
  N63      1.0000 0.51417  0.06813  0.30172  Biso   1.000  N
  N64      1.0000 0.77937  0.59853  0.86494  Biso   1.000  N
  N65      1.0000 0.40147  0.18083  0.86494  Biso   1.000  N
  N66      1.0000 0.81917  0.22063  0.86494  Biso   1.000  N
  N67      1.0000 0.59853  0.77937  0.63506  Biso   1.000  N
  N68      1.0000 0.22063  0.81917  0.63506  Biso   1.000  N
  N69      1.0000 0.18083  0.40147  0.63506  Biso   1.000  N
  N70      1.0000 0.44603  0.93187  0.19828  Biso   1.000  N
  N71      1.0000 0.06813  0.51417  0.19828  Biso   1.000  N
  N72      1.0000 0.48583  0.55397  0.19828  Biso   1.000  N
  N73      1.0000 0.80600  0.02840  0.04709  Biso   1.000  N
  N74      1.0000 0.97160  0.77760  0.04709  Biso   1.000  N
  N75      1.0000 0.22240  0.19400  0.04709  Biso   1.000  N
  N76      1.0000 0.02840  0.80600  0.45291  Biso   1.000  N
  N77      1.0000 0.19400  0.22240  0.45291  Biso   1.000  N
  N78      1.0000 0.77760  0.97160  0.45291  Biso   1.000  N
  N79      1.0000 0.47267  0.36173  0.38042  Biso   1.000  N
  N80      1.0000 0.63827  0.11093  0.38042  Biso   1.000  N
  N81      1.0000 0.88907  0.52733  0.38042  Biso   1.000  N
  N82      1.0000 0.69507  0.13933  0.78624  Biso   1.000  N
  N83      1.0000 0.86067  0.55573  0.78624  Biso   1.000  N
  N84      1.0000 0.44427  0.30493  0.78624  Biso   1.000  N
  N85      1.0000 0.13933  0.69507  0.71376  Biso   1.000  N
  N86      1.0000 0.30493  0.44427  0.71376  Biso   1.000  N
  N87      1.0000 0.55573  0.86067  0.71376  Biso   1.000  N
  N88      1.0000 0.36173  0.47267  0.11958  Biso   1.000  N
  N89      1.0000 0.52733  0.88907  0.11958  Biso   1.000  N
  N90      1.0000 0.11093  0.63827  0.11958  Biso   1.000  N
  N91      1.0000 0.19400  0.97160  0.95291  Biso   1.000  N
  N92      1.0000 0.02840  0.22240  0.95291  Biso   1.000  N
  N93      1.0000 0.77760  0.80600  0.95291  Biso   1.000  N
  N94      1.0000 0.97160  0.19400  0.54709  Biso   1.000  N
  N95      1.0000 0.80600  0.77760  0.54709  Biso   1.000  N
  N96      1.0000 0.22240  0.02840  0.54709  Biso   1.000  N
  N97      1.0000 0.86067  0.30493  0.28624  Biso   1.000  N
  N98      1.0000 0.69507  0.55573  0.28624  Biso   1.000  N
  N99      1.0000 0.44427  0.13933  0.28624  Biso   1.000  N
  N100     1.0000 0.63827  0.52733  0.88042  Biso   1.000  N
  N101     1.0000 0.47267  0.11093  0.88042  Biso   1.000  N
  N102     1.0000 0.88907  0.36173  0.88042  Biso   1.000  N
  N103     1.0000 0.52733  0.63827  0.61958  Biso   1.000  N
  N104     1.0000 0.36173  0.88907  0.61958  Biso   1.000  N
  N105     1.0000 0.11093  0.47267  0.61958  Biso   1.000  N
  N106     1.0000 0.30493  0.86067  0.21376  Biso   1.000  N
  N107     1.0000 0.13933  0.44427  0.21376  Biso   1.000  N
  N108     1.0000 0.55573  0.69507  0.21376  Biso   1.000  N
  N109     1.0000 0.98310  0.26490  0.06162  Biso   1.000  N
  N110     1.0000 0.73510  0.71820  0.06162  Biso   1.000  N
  N111     1.0000 0.28180  0.01690  0.06162  Biso   1.000  N
  N112     1.0000 0.26490  0.98310  0.43838  Biso   1.000  N
  N113     1.0000 0.01690  0.28180  0.43838  Biso   1.000  N
  N114     1.0000 0.71820  0.73510  0.43838  Biso   1.000  N
  N115     1.0000 0.64977  0.59823  0.39495  Biso   1.000  N
  N116     1.0000 0.40177  0.05153  0.39495  Biso   1.000  N
  N117     1.0000 0.94847  0.35023  0.39495  Biso   1.000  N
  N118     1.0000 0.93157  0.31643  0.77171  Biso   1.000  N
  N119     1.0000 0.68357  0.61513  0.77171  Biso   1.000  N
  N120     1.0000 0.38487  0.06843  0.77171  Biso   1.000  N
  N121     1.0000 0.31643  0.93157  0.72829  Biso   1.000  N
  N122     1.0000 0.06843  0.38487  0.72829  Biso   1.000  N
  N123     1.0000 0.61513  0.68357  0.72829  Biso   1.000  N
  N124     1.0000 0.59823  0.64977  0.10505  Biso   1.000  N
  N125     1.0000 0.35023  0.94847  0.10505  Biso   1.000  N
  N126     1.0000 0.05153  0.40177  0.10505  Biso   1.000  N
  N127     1.0000 0.01690  0.73510  0.93838  Biso   1.000  N
  N128     1.0000 0.26490  0.28180  0.93838  Biso   1.000  N
  N129     1.0000 0.71820  0.98310  0.93838  Biso   1.000  N
  N130     1.0000 0.73510  0.01690  0.56162  Biso   1.000  N
  N131     1.0000 0.98310  0.71820  0.56162  Biso   1.000  N
  N132     1.0000 0.28180  0.26490  0.56162  Biso   1.000  N
  N133     1.0000 0.68357  0.06843  0.27171  Biso   1.000  N
  N134     1.0000 0.93157  0.61513  0.27171  Biso   1.000  N
  N135     1.0000 0.38487  0.31643  0.27171  Biso   1.000  N
  N136     1.0000 0.40177  0.35023  0.89495  Biso   1.000  N
  N137     1.0000 0.64977  0.05153  0.89495  Biso   1.000  N
  N138     1.0000 0.94847  0.59823  0.89495  Biso   1.000  N
  N139     1.0000 0.35023  0.40177  0.60505  Biso   1.000  N
  N140     1.0000 0.59823  0.94847  0.60505  Biso   1.000  N
  N141     1.0000 0.05153  0.64977  0.60505  Biso   1.000  N
  N142     1.0000 0.06843  0.68357  0.22829  Biso   1.000  N
  N143     1.0000 0.31643  0.38487  0.22829  Biso   1.000  N
  N144     1.0000 0.61513  0.93157  0.22829  Biso   1.000  N
  C1       1.0000 0.77630  0.97070  0.06936  Biso   1.000  C
  C2       1.0000 0.02930  0.80560  0.06936  Biso   1.000  C
  C3       1.0000 0.19440  0.22370  0.06936  Biso   1.000  C
  C4       1.0000 0.97070  0.77630  0.43064  Biso   1.000  C
  C5       1.0000 0.22370  0.19440  0.43064  Biso   1.000  C
  C6       1.0000 0.80560  0.02930  0.43064  Biso   1.000  C
  C7       1.0000 0.44297  0.30403  0.40269  Biso   1.000  C
  C8       1.0000 0.69597  0.13893  0.40269  Biso   1.000  C
  C9       1.0000 0.86107  0.55703  0.40269  Biso   1.000  C
  C10      1.0000 0.63737  0.10963  0.76397  Biso   1.000  C
  C11      1.0000 0.89037  0.52773  0.76397  Biso   1.000  C
  C12      1.0000 0.47227  0.36263  0.76397  Biso   1.000  C
  C13      1.0000 0.10963  0.63737  0.73603  Biso   1.000  C
  C14      1.0000 0.36263  0.47227  0.73603  Biso   1.000  C
  C15      1.0000 0.52773  0.89037  0.73603  Biso   1.000  C
  C16      1.0000 0.30403  0.44297  0.09731  Biso   1.000  C
  C17      1.0000 0.55703  0.86107  0.09731  Biso   1.000  C
  C18      1.0000 0.13893  0.69597  0.09731  Biso   1.000  C
  C19      1.0000 0.22370  0.02930  0.93064  Biso   1.000  C
  C20      1.0000 0.97070  0.19440  0.93064  Biso   1.000  C
  C21      1.0000 0.80560  0.77630  0.93064  Biso   1.000  C
  C22      1.0000 0.02930  0.22370  0.56936  Biso   1.000  C
  C23      1.0000 0.77630  0.80560  0.56936  Biso   1.000  C
  C24      1.0000 0.19440  0.97070  0.56936  Biso   1.000  C
  C25      1.0000 0.89037  0.36263  0.26397  Biso   1.000  C
  C26      1.0000 0.63737  0.52773  0.26397  Biso   1.000  C
  C27      1.0000 0.47227  0.10963  0.26397  Biso   1.000  C
  C28      1.0000 0.69597  0.55703  0.90269  Biso   1.000  C
  C29      1.0000 0.44297  0.13893  0.90269  Biso   1.000  C
  C30      1.0000 0.86107  0.30403  0.90269  Biso   1.000  C
  C31      1.0000 0.55703  0.69597  0.59731  Biso   1.000  C
  C32      1.0000 0.30403  0.86107  0.59731  Biso   1.000  C
  C33      1.0000 0.13893  0.44297  0.59731  Biso   1.000  C
  C34      1.0000 0.36263  0.89037  0.23603  Biso   1.000  C
  C35      1.0000 0.10963  0.47227  0.23603  Biso   1.000  C
  C36      1.0000 0.52773  0.63737  0.23603  Biso   1.000  C
  H73      1.0000 0.78580  0.98880  0.08850  Biso   1.000  H
  H74      1.0000 0.01120  0.79700  0.08850  Biso   1.000  H
  H75      1.0000 0.20300  0.21420  0.08850  Biso   1.000  H
  H76      1.0000 0.98880  0.78580  0.41150  Biso   1.000  H
  H77      1.0000 0.21420  0.20300  0.41150  Biso   1.000  H
  H78      1.0000 0.79700  0.01120  0.41150  Biso   1.000  H
  H79      1.0000 0.45247  0.32213  0.42183  Biso   1.000  H
  H80      1.0000 0.67787  0.13033  0.42183  Biso   1.000  H
  H81      1.0000 0.86967  0.54753  0.42183  Biso   1.000  H
  H82      1.0000 0.65547  0.11913  0.74483  Biso   1.000  H
  H83      1.0000 0.88087  0.53633  0.74483  Biso   1.000  H
  H84      1.0000 0.46367  0.34453  0.74483  Biso   1.000  H
  H85      1.0000 0.11913  0.65547  0.75517  Biso   1.000  H
  H86      1.0000 0.34453  0.46367  0.75517  Biso   1.000  H
  H87      1.0000 0.53633  0.88087  0.75517  Biso   1.000  H
  H88      1.0000 0.32213  0.45247  0.07817  Biso   1.000  H
  H89      1.0000 0.54753  0.86967  0.07817  Biso   1.000  H
  H90      1.0000 0.13033  0.67787  0.07817  Biso   1.000  H
  H91      1.0000 0.21420  0.01120  0.91150  Biso   1.000  H
  H92      1.0000 0.98880  0.20300  0.91150  Biso   1.000  H
  H93      1.0000 0.79700  0.78580  0.91150  Biso   1.000  H
  H94      1.0000 0.01120  0.21420  0.58850  Biso   1.000  H
  H95      1.0000 0.78580  0.79700  0.58850  Biso   1.000  H
  H96      1.0000 0.20300  0.98880  0.58850  Biso   1.000  H
  H97      1.0000 0.88087  0.34453  0.24483  Biso   1.000  H
  H98      1.0000 0.65547  0.53633  0.24483  Biso   1.000  H
  H99      1.0000 0.46367  0.11913  0.24483  Biso   1.000  H
  H100     1.0000 0.67787  0.54753  0.92183  Biso   1.000  H
  H101     1.0000 0.45247  0.13033  0.92183  Biso   1.000  H
  H102     1.0000 0.86967  0.32213  0.92183  Biso   1.000  H
  H103     1.0000 0.54753  0.67787  0.57817  Biso   1.000  H
  H104     1.0000 0.32213  0.86967  0.57817  Biso   1.000  H
  H105     1.0000 0.13033  0.45247  0.57817  Biso   1.000  H
  H106     1.0000 0.34453  0.88087  0.25517  Biso   1.000  H
  H107     1.0000 0.11913  0.46367  0.25517  Biso   1.000  H
  H108     1.0000 0.53633  0.65547  0.25517  Biso   1.000  H
  C37      1.0000 0.77770  0.97180  0.02360  Biso   1.000  C
  C38      1.0000 0.02820  0.80590  0.02360  Biso   1.000  C
  C39      1.0000 0.19410  0.22230  0.02360  Biso   1.000  C
  C40      1.0000 0.97180  0.77770  0.47640  Biso   1.000  C
  C41      1.0000 0.22230  0.19410  0.47640  Biso   1.000  C
  C42      1.0000 0.80590  0.02820  0.47640  Biso   1.000  C
  C43      1.0000 0.44437  0.30513  0.35693  Biso   1.000  C
  C44      1.0000 0.69487  0.13923  0.35693  Biso   1.000  C
  C45      1.0000 0.86077  0.55563  0.35693  Biso   1.000  C
  C46      1.0000 0.63847  0.11103  0.80973  Biso   1.000  C
  C47      1.0000 0.88897  0.52743  0.80973  Biso   1.000  C
  C48      1.0000 0.47257  0.36153  0.80973  Biso   1.000  C
  C49      1.0000 0.11103  0.63847  0.69027  Biso   1.000  C
  C50      1.0000 0.36153  0.47257  0.69027  Biso   1.000  C
  C51      1.0000 0.52743  0.88897  0.69027  Biso   1.000  C
  C52      1.0000 0.30513  0.44437  0.14307  Biso   1.000  C
  C53      1.0000 0.55563  0.86077  0.14307  Biso   1.000  C
  C54      1.0000 0.13923  0.69487  0.14307  Biso   1.000  C
  C55      1.0000 0.22230  0.02820  0.97640  Biso   1.000  C
  C56      1.0000 0.97180  0.19410  0.97640  Biso   1.000  C
  C57      1.0000 0.80590  0.77770  0.97640  Biso   1.000  C
  C58      1.0000 0.02820  0.22230  0.52360  Biso   1.000  C
  C59      1.0000 0.77770  0.80590  0.52360  Biso   1.000  C
  C60      1.0000 0.19410  0.97180  0.52360  Biso   1.000  C
  C61      1.0000 0.88897  0.36153  0.30973  Biso   1.000  C
  C62      1.0000 0.63847  0.52743  0.30973  Biso   1.000  C
  C63      1.0000 0.47257  0.11103  0.30973  Biso   1.000  C
  C64      1.0000 0.69487  0.55563  0.85693  Biso   1.000  C
  C65      1.0000 0.44437  0.13923  0.85693  Biso   1.000  C
  C66      1.0000 0.86077  0.30513  0.85693  Biso   1.000  C
  C67      1.0000 0.55563  0.69487  0.64307  Biso   1.000  C
  C68      1.0000 0.30513  0.86077  0.64307  Biso   1.000  C
  C69      1.0000 0.13923  0.44437  0.64307  Biso   1.000  C
  C70      1.0000 0.36153  0.88897  0.19027  Biso   1.000  C
  C71      1.0000 0.11103  0.47257  0.19027  Biso   1.000  C
  C72      1.0000 0.52743  0.63847  0.19027  Biso   1.000  C
  H109     1.0000 0.78800  0.99140  0.00460  Biso   1.000  H
  H110     1.0000 0.00860  0.79660  0.00460  Biso   1.000  H
  H111     1.0000 0.20340  0.21200  0.00460  Biso   1.000  H
  H112     1.0000 0.99140  0.78800  0.49540  Biso   1.000  H
  H113     1.0000 0.21200  0.20340  0.49540  Biso   1.000  H
  H114     1.0000 0.79660  0.00860  0.49540  Biso   1.000  H
  H115     1.0000 0.45467  0.32473  0.33793  Biso   1.000  H
  H116     1.0000 0.67527  0.12993  0.33793  Biso   1.000  H
  H117     1.0000 0.87007  0.54533  0.33793  Biso   1.000  H
  H118     1.0000 0.65807  0.12133  0.82873  Biso   1.000  H
  H119     1.0000 0.87867  0.53673  0.82873  Biso   1.000  H
  H120     1.0000 0.46327  0.34193  0.82873  Biso   1.000  H
  H121     1.0000 0.12133  0.65807  0.67127  Biso   1.000  H
  H122     1.0000 0.34193  0.46327  0.67127  Biso   1.000  H
  H123     1.0000 0.53673  0.87867  0.67127  Biso   1.000  H
  H124     1.0000 0.32473  0.45467  0.16207  Biso   1.000  H
  H125     1.0000 0.54533  0.87007  0.16207  Biso   1.000  H
  H126     1.0000 0.12993  0.67527  0.16207  Biso   1.000  H
  H127     1.0000 0.21200  0.00860  0.99540  Biso   1.000  H
  H128     1.0000 0.99140  0.20340  0.99540  Biso   1.000  H
  H129     1.0000 0.79660  0.78800  0.99540  Biso   1.000  H
  H130     1.0000 0.00860  0.21200  0.50460  Biso   1.000  H
  H131     1.0000 0.78800  0.79660  0.50460  Biso   1.000  H
  H132     1.0000 0.20340  0.99140  0.50460  Biso   1.000  H
  H133     1.0000 0.87867  0.34193  0.32873  Biso   1.000  H
  H134     1.0000 0.65807  0.53673  0.32873  Biso   1.000  H
  H135     1.0000 0.46327  0.12133  0.32873  Biso   1.000  H
  H136     1.0000 0.67527  0.54533  0.83793  Biso   1.000  H
  H137     1.0000 0.45467  0.12993  0.83793  Biso   1.000  H
  H138     1.0000 0.87007  0.32473  0.83793  Biso   1.000  H
  H139     1.0000 0.54533  0.67527  0.66207  Biso   1.000  H
  H140     1.0000 0.32473  0.87007  0.66207  Biso   1.000  H
  H141     1.0000 0.12993  0.45467  0.66207  Biso   1.000  H
  H142     1.0000 0.34193  0.87867  0.17127  Biso   1.000  H
  H143     1.0000 0.12133  0.46327  0.17127  Biso   1.000  H
  H144     1.0000 0.53673  0.65807  0.17127  Biso   1.000  H
  C73      1.0000 0.85500  0.12620  0.04676  Biso   1.000  C
  C74      1.0000 0.87380  0.72880  0.04676  Biso   1.000  C
  C75      1.0000 0.27120  0.14500  0.04676  Biso   1.000  C
  C76      1.0000 0.12620  0.85500  0.45324  Biso   1.000  C
  C77      1.0000 0.14500  0.27120  0.45324  Biso   1.000  C
  C78      1.0000 0.72880  0.87380  0.45324  Biso   1.000  C
  C79      1.0000 0.52167  0.45953  0.38009  Biso   1.000  C
  C80      1.0000 0.54047  0.06213  0.38009  Biso   1.000  C
  C81      1.0000 0.93787  0.47833  0.38009  Biso   1.000  C
  C82      1.0000 0.79287  0.18833  0.78657  Biso   1.000  C
  C83      1.0000 0.81167  0.60453  0.78657  Biso   1.000  C
  C84      1.0000 0.39547  0.20713  0.78657  Biso   1.000  C
  C85      1.0000 0.18833  0.79287  0.71343  Biso   1.000  C
  C86      1.0000 0.20713  0.39547  0.71343  Biso   1.000  C
  C87      1.0000 0.60453  0.81167  0.71343  Biso   1.000  C
  C88      1.0000 0.45953  0.52167  0.11991  Biso   1.000  C
  C89      1.0000 0.47833  0.93787  0.11991  Biso   1.000  C
  C90      1.0000 0.06213  0.54047  0.11991  Biso   1.000  C
  C91      1.0000 0.14500  0.87380  0.95324  Biso   1.000  C
  C92      1.0000 0.12620  0.27120  0.95324  Biso   1.000  C
  C93      1.0000 0.72880  0.85500  0.95324  Biso   1.000  C
  C94      1.0000 0.87380  0.14500  0.54676  Biso   1.000  C
  C95      1.0000 0.85500  0.72880  0.54676  Biso   1.000  C
  C96      1.0000 0.27120  0.12620  0.54676  Biso   1.000  C
  C97      1.0000 0.81167  0.20713  0.28657  Biso   1.000  C
  C98      1.0000 0.79287  0.60453  0.28657  Biso   1.000  C
  C99      1.0000 0.39547  0.18833  0.28657  Biso   1.000  C
  C100     1.0000 0.54047  0.47833  0.88009  Biso   1.000  C
  C101     1.0000 0.52167  0.06213  0.88009  Biso   1.000  C
  C102     1.0000 0.93787  0.45953  0.88009  Biso   1.000  C
  C103     1.0000 0.47833  0.54047  0.61991  Biso   1.000  C
  C104     1.0000 0.45953  0.93787  0.61991  Biso   1.000  C
  C105     1.0000 0.06213  0.52167  0.61991  Biso   1.000  C
  C106     1.0000 0.20713  0.81167  0.21343  Biso   1.000  C
  C107     1.0000 0.18833  0.39547  0.21343  Biso   1.000  C
  C108     1.0000 0.60453  0.79287  0.21343  Biso   1.000  C
  C109     1.0000 0.81960  0.17360  0.03200  Biso   1.000  C
  C110     1.0000 0.82640  0.64600  0.03200  Biso   1.000  C
  C111     1.0000 0.35400  0.18040  0.03200  Biso   1.000  C
  C112     1.0000 0.17360  0.81960  0.46800  Biso   1.000  C
  C113     1.0000 0.18040  0.35400  0.46800  Biso   1.000  C
  C114     1.0000 0.64600  0.82640  0.46800  Biso   1.000  C
  C115     1.0000 0.48627  0.50693  0.36533  Biso   1.000  C
  C116     1.0000 0.49307  0.97933  0.36533  Biso   1.000  C
  C117     1.0000 0.02067  0.51373  0.36533  Biso   1.000  C
  C118     1.0000 0.84027  0.15293  0.80133  Biso   1.000  C
  C119     1.0000 0.84707  0.68733  0.80133  Biso   1.000  C
  C120     1.0000 0.31267  0.15973  0.80133  Biso   1.000  C
  C121     1.0000 0.15293  0.84027  0.69867  Biso   1.000  C
  C122     1.0000 0.15973  0.31267  0.69867  Biso   1.000  C
  C123     1.0000 0.68733  0.84707  0.69867  Biso   1.000  C
  C124     1.0000 0.50693  0.48627  0.13467  Biso   1.000  C
  C125     1.0000 0.51373  0.02067  0.13467  Biso   1.000  C
  C126     1.0000 0.97933  0.49307  0.13467  Biso   1.000  C
  C127     1.0000 0.18040  0.82640  0.96800  Biso   1.000  C
  C128     1.0000 0.17360  0.35400  0.96800  Biso   1.000  C
  C129     1.0000 0.64600  0.81960  0.96800  Biso   1.000  C
  C130     1.0000 0.82640  0.18040  0.53200  Biso   1.000  C
  C131     1.0000 0.81960  0.64600  0.53200  Biso   1.000  C
  C132     1.0000 0.35400  0.17360  0.53200  Biso   1.000  C
  C133     1.0000 0.84707  0.15973  0.30133  Biso   1.000  C
  C134     1.0000 0.84027  0.68733  0.30133  Biso   1.000  C
  C135     1.0000 0.31267  0.15293  0.30133  Biso   1.000  C
  C136     1.0000 0.49307  0.51373  0.86533  Biso   1.000  C
  C137     1.0000 0.48627  0.97933  0.86533  Biso   1.000  C
  C138     1.0000 0.02067  0.50693  0.86533  Biso   1.000  C
  C139     1.0000 0.51373  0.49307  0.63467  Biso   1.000  C
  C140     1.0000 0.50693  0.02067  0.63467  Biso   1.000  C
  C141     1.0000 0.97933  0.48627  0.63467  Biso   1.000  C
  C142     1.0000 0.15973  0.84707  0.19867  Biso   1.000  C
  C143     1.0000 0.15293  0.31267  0.19867  Biso   1.000  C
  C144     1.0000 0.68733  0.84027  0.19867  Biso   1.000  C
  H145     1.0000 0.76490  0.14330  0.02200  Biso   1.000  H
  H146     1.0000 0.85670  0.62160  0.02200  Biso   1.000  H
  H147     1.0000 0.37840  0.23510  0.02200  Biso   1.000  H
  H148     1.0000 0.14330  0.76490  0.47800  Biso   1.000  H
  H149     1.0000 0.23510  0.37840  0.47800  Biso   1.000  H
  H150     1.0000 0.62160  0.85670  0.47800  Biso   1.000  H
  H151     1.0000 0.43157  0.47663  0.35533  Biso   1.000  H
  H152     1.0000 0.52337  0.95493  0.35533  Biso   1.000  H
  H153     1.0000 0.04507  0.56843  0.35533  Biso   1.000  H
  H154     1.0000 0.80997  0.09823  0.81133  Biso   1.000  H
  H155     1.0000 0.90177  0.71173  0.81133  Biso   1.000  H
  H156     1.0000 0.28827  0.19003  0.81133  Biso   1.000  H
  H157     1.0000 0.09823  0.80997  0.68867  Biso   1.000  H
  H158     1.0000 0.19003  0.28827  0.68867  Biso   1.000  H
  H159     1.0000 0.71173  0.90177  0.68867  Biso   1.000  H
  H160     1.0000 0.47663  0.43157  0.14467  Biso   1.000  H
  H161     1.0000 0.56843  0.04507  0.14467  Biso   1.000  H
  H162     1.0000 0.95493  0.52337  0.14467  Biso   1.000  H
  H163     1.0000 0.23510  0.85670  0.97800  Biso   1.000  H
  H164     1.0000 0.14330  0.37840  0.97800  Biso   1.000  H
  H165     1.0000 0.62160  0.76490  0.97800  Biso   1.000  H
  H166     1.0000 0.85670  0.23510  0.52200  Biso   1.000  H
  H167     1.0000 0.76490  0.62160  0.52200  Biso   1.000  H
  H168     1.0000 0.37840  0.14330  0.52200  Biso   1.000  H
  H169     1.0000 0.90177  0.19003  0.31133  Biso   1.000  H
  H170     1.0000 0.80997  0.71173  0.31133  Biso   1.000  H
  H171     1.0000 0.28827  0.09823  0.31133  Biso   1.000  H
  H172     1.0000 0.52337  0.56843  0.85533  Biso   1.000  H
  H173     1.0000 0.43157  0.95493  0.85533  Biso   1.000  H
  H174     1.0000 0.04507  0.47663  0.85533  Biso   1.000  H
  H175     1.0000 0.56843  0.52337  0.64467  Biso   1.000  H
  H176     1.0000 0.47663  0.04507  0.64467  Biso   1.000  H
  H177     1.0000 0.95493  0.43157  0.64467  Biso   1.000  H
  H178     1.0000 0.19003  0.90177  0.18867  Biso   1.000  H
  H179     1.0000 0.09823  0.28827  0.18867  Biso   1.000  H
  H180     1.0000 0.71173  0.80997  0.18867  Biso   1.000  H
  C145     1.0000 0.86890  0.26600  0.03310  Biso   1.000  C
  C146     1.0000 0.73400  0.60290  0.03310  Biso   1.000  C
  C147     1.0000 0.39710  0.13110  0.03310  Biso   1.000  C
  C148     1.0000 0.26600  0.86890  0.46690  Biso   1.000  C
  C149     1.0000 0.13110  0.39710  0.46690  Biso   1.000  C
  C150     1.0000 0.60290  0.73400  0.46690  Biso   1.000  C
  C151     1.0000 0.53557  0.59933  0.36643  Biso   1.000  C
  C152     1.0000 0.40067  0.93623  0.36643  Biso   1.000  C
  C153     1.0000 0.06377  0.46443  0.36643  Biso   1.000  C
  C154     1.0000 0.93267  0.20223  0.80023  Biso   1.000  C
  C155     1.0000 0.79777  0.73043  0.80023  Biso   1.000  C
  C156     1.0000 0.26957  0.06733  0.80023  Biso   1.000  C
  C157     1.0000 0.20223  0.93267  0.69977  Biso   1.000  C
  C158     1.0000 0.06733  0.26957  0.69977  Biso   1.000  C
  C159     1.0000 0.73043  0.79777  0.69977  Biso   1.000  C
  C160     1.0000 0.59933  0.53557  0.13357  Biso   1.000  C
  C161     1.0000 0.46443  0.06377  0.13357  Biso   1.000  C
  C162     1.0000 0.93623  0.40067  0.13357  Biso   1.000  C
  C163     1.0000 0.13110  0.73400  0.96690  Biso   1.000  C
  C164     1.0000 0.26600  0.39710  0.96690  Biso   1.000  C
  C165     1.0000 0.60290  0.86890  0.96690  Biso   1.000  C
  C166     1.0000 0.73400  0.13110  0.53310  Biso   1.000  C
  C167     1.0000 0.86890  0.60290  0.53310  Biso   1.000  C
  C168     1.0000 0.39710  0.26600  0.53310  Biso   1.000  C
  C169     1.0000 0.79777  0.06733  0.30023  Biso   1.000  C
  C170     1.0000 0.93267  0.73043  0.30023  Biso   1.000  C
  C171     1.0000 0.26957  0.20223  0.30023  Biso   1.000  C
  C172     1.0000 0.40067  0.46443  0.86643  Biso   1.000  C
  C173     1.0000 0.53557  0.93623  0.86643  Biso   1.000  C
  C174     1.0000 0.06377  0.59933  0.86643  Biso   1.000  C
  C175     1.0000 0.46443  0.40067  0.63357  Biso   1.000  C
  C176     1.0000 0.59933  0.06377  0.63357  Biso   1.000  C
  C177     1.0000 0.93623  0.53557  0.63357  Biso   1.000  C
  C178     1.0000 0.06733  0.79777  0.19977  Biso   1.000  C
  C179     1.0000 0.20223  0.26957  0.19977  Biso   1.000  C
  C180     1.0000 0.73043  0.93267  0.19977  Biso   1.000  C
  H181     1.0000 0.84750  0.30010  0.02380  Biso   1.000  H
  H182     1.0000 0.69990  0.54740  0.02380  Biso   1.000  H
  H183     1.0000 0.45260  0.15250  0.02380  Biso   1.000  H
  H184     1.0000 0.30010  0.84750  0.47620  Biso   1.000  H
  H185     1.0000 0.15250  0.45260  0.47620  Biso   1.000  H
  H186     1.0000 0.54740  0.69990  0.47620  Biso   1.000  H
  H187     1.0000 0.51417  0.63343  0.35713  Biso   1.000  H
  H188     1.0000 0.36657  0.88073  0.35713  Biso   1.000  H
  H189     1.0000 0.11927  0.48583  0.35713  Biso   1.000  H
  H190     1.0000 0.96677  0.18083  0.80953  Biso   1.000  H
  H191     1.0000 0.81917  0.78593  0.80953  Biso   1.000  H
  H192     1.0000 0.21407  0.03323  0.80953  Biso   1.000  H
  H193     1.0000 0.18083  0.96677  0.69047  Biso   1.000  H
  H194     1.0000 0.03323  0.21407  0.69047  Biso   1.000  H
  H195     1.0000 0.78593  0.81917  0.69047  Biso   1.000  H
  H196     1.0000 0.63343  0.51417  0.14287  Biso   1.000  H
  H197     1.0000 0.48583  0.11927  0.14287  Biso   1.000  H
  H198     1.0000 0.88073  0.36657  0.14287  Biso   1.000  H
  H199     1.0000 0.15250  0.69990  0.97620  Biso   1.000  H
  H200     1.0000 0.30010  0.45260  0.97620  Biso   1.000  H
  H201     1.0000 0.54740  0.84750  0.97620  Biso   1.000  H
  H202     1.0000 0.69990  0.15250  0.52380  Biso   1.000  H
  H203     1.0000 0.84750  0.54740  0.52380  Biso   1.000  H
  H204     1.0000 0.45260  0.30010  0.52380  Biso   1.000  H
  H205     1.0000 0.81917  0.03323  0.30953  Biso   1.000  H
  H206     1.0000 0.96677  0.78593  0.30953  Biso   1.000  H
  H207     1.0000 0.21407  0.18083  0.30953  Biso   1.000  H
  H208     1.0000 0.36657  0.48583  0.85713  Biso   1.000  H
  H209     1.0000 0.51417  0.88073  0.85713  Biso   1.000  H
  H210     1.0000 0.11927  0.63343  0.85713  Biso   1.000  H
  H211     1.0000 0.48583  0.36657  0.64287  Biso   1.000  H
  H212     1.0000 0.63343  0.11927  0.64287  Biso   1.000  H
  H213     1.0000 0.88073  0.51417  0.64287  Biso   1.000  H
  H214     1.0000 0.03323  0.81917  0.19047  Biso   1.000  H
  H215     1.0000 0.18083  0.21407  0.19047  Biso   1.000  H
  H216     1.0000 0.78593  0.96677  0.19047  Biso   1.000  H
  C181     1.0000 0.94860  0.30940  0.04770  Biso   1.000  C
  C182     1.0000 0.69060  0.63920  0.04770  Biso   1.000  C
  C183     1.0000 0.36080  0.05140  0.04770  Biso   1.000  C
  C184     1.0000 0.30940  0.94860  0.45230  Biso   1.000  C
  C185     1.0000 0.05140  0.36080  0.45230  Biso   1.000  C
  C186     1.0000 0.63920  0.69060  0.45230  Biso   1.000  C
  C187     1.0000 0.61527  0.64273  0.38103  Biso   1.000  C
  C188     1.0000 0.35727  0.97253  0.38103  Biso   1.000  C
  C189     1.0000 0.02747  0.38473  0.38103  Biso   1.000  C
  C190     1.0000 0.97607  0.28193  0.78563  Biso   1.000  C
  C191     1.0000 0.71807  0.69413  0.78563  Biso   1.000  C
  C192     1.0000 0.30587  0.02393  0.78563  Biso   1.000  C
  C193     1.0000 0.28193  0.97607  0.71437  Biso   1.000  C
  C194     1.0000 0.02393  0.30587  0.71437  Biso   1.000  C
  C195     1.0000 0.69413  0.71807  0.71437  Biso   1.000  C
  C196     1.0000 0.64273  0.61527  0.11897  Biso   1.000  C
  C197     1.0000 0.38473  0.02747  0.11897  Biso   1.000  C
  C198     1.0000 0.97253  0.35727  0.11897  Biso   1.000  C
  C199     1.0000 0.05140  0.69060  0.95230  Biso   1.000  C
  C200     1.0000 0.30940  0.36080  0.95230  Biso   1.000  C
  C201     1.0000 0.63920  0.94860  0.95230  Biso   1.000  C
  C202     1.0000 0.69060  0.05140  0.54770  Biso   1.000  C
  C203     1.0000 0.94860  0.63920  0.54770  Biso   1.000  C
  C204     1.0000 0.36080  0.30940  0.54770  Biso   1.000  C
  C205     1.0000 0.71807  0.02393  0.28563  Biso   1.000  C
  C206     1.0000 0.97607  0.69413  0.28563  Biso   1.000  C
  C207     1.0000 0.30587  0.28193  0.28563  Biso   1.000  C
  C208     1.0000 0.35727  0.38473  0.88103  Biso   1.000  C
  C209     1.0000 0.61527  0.97253  0.88103  Biso   1.000  C
  C210     1.0000 0.02747  0.64273  0.88103  Biso   1.000  C
  C211     1.0000 0.38473  0.35727  0.61897  Biso   1.000  C
  C212     1.0000 0.64273  0.02747  0.61897  Biso   1.000  C
  C213     1.0000 0.97253  0.61527  0.61897  Biso   1.000  C
  C214     1.0000 0.02393  0.71807  0.21437  Biso   1.000  C
  C215     1.0000 0.28193  0.30587  0.21437  Biso   1.000  C
  C216     1.0000 0.69413  0.97607  0.21437  Biso   1.000  C
  H217     1.0000 0.98060  0.37280  0.04790  Biso   1.000  H
  H218     1.0000 0.62720  0.60780  0.04790  Biso   1.000  H
  H219     1.0000 0.39220  0.01940  0.04790  Biso   1.000  H
  H220     1.0000 0.37280  0.98060  0.45210  Biso   1.000  H
  H221     1.0000 0.01940  0.39220  0.45210  Biso   1.000  H
  H222     1.0000 0.60780  0.62720  0.45210  Biso   1.000  H
  H223     1.0000 0.64727  0.70613  0.38123  Biso   1.000  H
  H224     1.0000 0.29387  0.94113  0.38123  Biso   1.000  H
  H225     1.0000 0.05887  0.35273  0.38123  Biso   1.000  H
  H226     1.0000 0.03947  0.31393  0.78543  Biso   1.000  H
  H227     1.0000 0.68607  0.72553  0.78543  Biso   1.000  H
  H228     1.0000 0.27447  0.96053  0.78543  Biso   1.000  H
  H229     1.0000 0.31393  0.03947  0.71457  Biso   1.000  H
  H230     1.0000 0.96053  0.27447  0.71457  Biso   1.000  H
  H231     1.0000 0.72553  0.68607  0.71457  Biso   1.000  H
  H232     1.0000 0.70613  0.64727  0.11877  Biso   1.000  H
  H233     1.0000 0.35273  0.05887  0.11877  Biso   1.000  H
  H234     1.0000 0.94113  0.29387  0.11877  Biso   1.000  H
  H235     1.0000 0.01940  0.62720  0.95210  Biso   1.000  H
  H236     1.0000 0.37280  0.39220  0.95210  Biso   1.000  H
  H237     1.0000 0.60780  0.98060  0.95210  Biso   1.000  H
  H238     1.0000 0.62720  0.01940  0.54790  Biso   1.000  H
  H239     1.0000 0.98060  0.60780  0.54790  Biso   1.000  H
  H240     1.0000 0.39220  0.37280  0.54790  Biso   1.000  H
  H241     1.0000 0.68607  0.96053  0.28543  Biso   1.000  H
  H242     1.0000 0.03947  0.72553  0.28543  Biso   1.000  H
  H243     1.0000 0.27447  0.31393  0.28543  Biso   1.000  H
  H244     1.0000 0.29387  0.35273  0.88123  Biso   1.000  H
  H245     1.0000 0.64727  0.94113  0.88123  Biso   1.000  H
  H246     1.0000 0.05887  0.70613  0.88123  Biso   1.000  H
  H247     1.0000 0.35273  0.29387  0.61877  Biso   1.000  H
  H248     1.0000 0.70613  0.05887  0.61877  Biso   1.000  H
  H249     1.0000 0.94113  0.64727  0.61877  Biso   1.000  H
  H250     1.0000 0.96053  0.68607  0.21457  Biso   1.000  H
  H251     1.0000 0.31393  0.27447  0.21457  Biso   1.000  H
  H252     1.0000 0.72553  0.03947  0.21457  Biso   1.000  H
  C217     1.0000 0.93570  0.17230  0.06133  Biso   1.000  C
  C218     1.0000 0.82770  0.76340  0.06133  Biso   1.000  C
  C219     1.0000 0.23660  0.06430  0.06133  Biso   1.000  C
  C220     1.0000 0.17230  0.93570  0.43867  Biso   1.000  C
  C221     1.0000 0.06430  0.23660  0.43867  Biso   1.000  C
  C222     1.0000 0.76340  0.82770  0.43867  Biso   1.000  C
  C223     1.0000 0.60237  0.50563  0.39466  Biso   1.000  C
  C224     1.0000 0.49437  0.09673  0.39466  Biso   1.000  C
  C225     1.0000 0.90327  0.39763  0.39466  Biso   1.000  C
  C226     1.0000 0.83897  0.26903  0.77200  Biso   1.000  C
  C227     1.0000 0.73097  0.56993  0.77200  Biso   1.000  C
  C228     1.0000 0.43007  0.16103  0.77200  Biso   1.000  C
  C229     1.0000 0.26903  0.83897  0.72800  Biso   1.000  C
  C230     1.0000 0.16103  0.43007  0.72800  Biso   1.000  C
  C231     1.0000 0.56993  0.73097  0.72800  Biso   1.000  C
  C232     1.0000 0.50563  0.60237  0.10534  Biso   1.000  C
  C233     1.0000 0.39763  0.90327  0.10534  Biso   1.000  C
  C234     1.0000 0.09673  0.49437  0.10534  Biso   1.000  C
  C235     1.0000 0.06430  0.82770  0.93867  Biso   1.000  C
  C236     1.0000 0.17230  0.23660  0.93867  Biso   1.000  C
  C237     1.0000 0.76340  0.93570  0.93867  Biso   1.000  C
  C238     1.0000 0.82770  0.06430  0.56133  Biso   1.000  C
  C239     1.0000 0.93570  0.76340  0.56133  Biso   1.000  C
  C240     1.0000 0.23660  0.17230  0.56133  Biso   1.000  C
  C241     1.0000 0.73097  0.16103  0.27200  Biso   1.000  C
  C242     1.0000 0.83897  0.56993  0.27200  Biso   1.000  C
  C243     1.0000 0.43007  0.26903  0.27200  Biso   1.000  C
  C244     1.0000 0.49437  0.39763  0.89466  Biso   1.000  C
  C245     1.0000 0.60237  0.09673  0.89466  Biso   1.000  C
  C246     1.0000 0.90327  0.50563  0.89466  Biso   1.000  C
  C247     1.0000 0.39763  0.49437  0.60534  Biso   1.000  C
  C248     1.0000 0.50563  0.90327  0.60534  Biso   1.000  C
  C249     1.0000 0.09673  0.60237  0.60534  Biso   1.000  C
  C250     1.0000 0.16103  0.73097  0.22800  Biso   1.000  C
  C251     1.0000 0.26903  0.43007  0.22800  Biso   1.000  C
  C252     1.0000 0.56993  0.83897  0.22800  Biso   1.000  C
  H253     1.0000 0.95840  0.14000  0.07110  Biso   1.000  H
  H254     1.0000 0.86000  0.81840  0.07110  Biso   1.000  H
  H255     1.0000 0.18160  0.04160  0.07110  Biso   1.000  H
  H256     1.0000 0.14000  0.95840  0.42890  Biso   1.000  H
  H257     1.0000 0.04160  0.18160  0.42890  Biso   1.000  H
  H258     1.0000 0.81840  0.86000  0.42890  Biso   1.000  H
  H259     1.0000 0.62507  0.47333  0.40443  Biso   1.000  H
  H260     1.0000 0.52667  0.15173  0.40443  Biso   1.000  H
  H261     1.0000 0.84827  0.37493  0.40443  Biso   1.000  H
  H262     1.0000 0.80667  0.29173  0.76223  Biso   1.000  H
  H263     1.0000 0.70827  0.51493  0.76223  Biso   1.000  H
  H264     1.0000 0.48507  0.19333  0.76223  Biso   1.000  H
  H265     1.0000 0.29173  0.80667  0.73777  Biso   1.000  H
  H266     1.0000 0.19333  0.48507  0.73777  Biso   1.000  H
  H267     1.0000 0.51493  0.70827  0.73777  Biso   1.000  H
  H268     1.0000 0.47333  0.62507  0.09557  Biso   1.000  H
  H269     1.0000 0.37493  0.84827  0.09557  Biso   1.000  H
  H270     1.0000 0.15173  0.52667  0.09557  Biso   1.000  H
  H271     1.0000 0.04160  0.86000  0.92890  Biso   1.000  H
  H272     1.0000 0.14000  0.18160  0.92890  Biso   1.000  H
  H273     1.0000 0.81840  0.95840  0.92890  Biso   1.000  H
  H274     1.0000 0.86000  0.04160  0.57110  Biso   1.000  H
  H275     1.0000 0.95840  0.81840  0.57110  Biso   1.000  H
  H276     1.0000 0.18160  0.14000  0.57110  Biso   1.000  H
  H277     1.0000 0.70827  0.19333  0.26223  Biso   1.000  H
  H278     1.0000 0.80667  0.51493  0.26223  Biso   1.000  H
  H279     1.0000 0.48507  0.29173  0.26223  Biso   1.000  H
  H280     1.0000 0.52667  0.37493  0.90443  Biso   1.000  H
  H281     1.0000 0.62507  0.15173  0.90443  Biso   1.000  H
  H282     1.0000 0.84827  0.47333  0.90443  Biso   1.000  H
  H283     1.0000 0.37493  0.52667  0.59557  Biso   1.000  H
  H284     1.0000 0.47333  0.84827  0.59557  Biso   1.000  H
  H285     1.0000 0.15173  0.62507  0.59557  Biso   1.000  H
  H286     1.0000 0.19333  0.70827  0.23777  Biso   1.000  H
  H287     1.0000 0.29173  0.48507  0.23777  Biso   1.000  H
  H288     1.0000 0.51493  0.80667  0.23777  Biso   1.000  H
  F1       1.0000 0.92570  0.93090  0.01800  Biso   1.000  F
  F2       1.0000 0.06910  0.99480  0.01800  Biso   1.000  F
  F3       1.0000 0.00520  0.07430  0.01800  Biso   1.000  F
  F4       1.0000 0.93090  0.92570  0.48200  Biso   1.000  F
  F5       1.0000 0.07430  0.00520  0.48200  Biso   1.000  F
  F6       1.0000 0.99480  0.06910  0.48200  Biso   1.000  F
  F7       1.0000 0.59237  0.26423  0.35133  Biso   1.000  F
  F8       1.0000 0.73577  0.32813  0.35133  Biso   1.000  F
  F9       1.0000 0.67187  0.40763  0.35133  Biso   1.000  F
  F10      1.0000 0.59757  0.25903  0.81533  Biso   1.000  F
  F11      1.0000 0.74097  0.33853  0.81533  Biso   1.000  F
  F12      1.0000 0.66147  0.40243  0.81533  Biso   1.000  F
  F13      1.0000 0.25903  0.59757  0.68467  Biso   1.000  F
  F14      1.0000 0.40243  0.66147  0.68467  Biso   1.000  F
  F15      1.0000 0.33853  0.74097  0.68467  Biso   1.000  F
  F16      1.0000 0.26423  0.59237  0.14867  Biso   1.000  F
  F17      1.0000 0.40763  0.67187  0.14867  Biso   1.000  F
  F18      1.0000 0.32813  0.73577  0.14867  Biso   1.000  F
  F19      1.0000 0.07430  0.06910  0.98200  Biso   1.000  F
  F20      1.0000 0.93090  0.00520  0.98200  Biso   1.000  F
  F21      1.0000 0.99480  0.92570  0.98200  Biso   1.000  F
  F22      1.0000 0.06910  0.07430  0.51800  Biso   1.000  F
  F23      1.0000 0.92570  0.99480  0.51800  Biso   1.000  F
  F24      1.0000 0.00520  0.93090  0.51800  Biso   1.000  F
  F25      1.0000 0.74097  0.40243  0.31533  Biso   1.000  F
  F26      1.0000 0.59757  0.33853  0.31533  Biso   1.000  F
  F27      1.0000 0.66147  0.25903  0.31533  Biso   1.000  F
  F28      1.0000 0.73577  0.40763  0.85133  Biso   1.000  F
  F29      1.0000 0.59237  0.32813  0.85133  Biso   1.000  F
  F30      1.0000 0.67187  0.26423  0.85133  Biso   1.000  F
  F31      1.0000 0.40763  0.73577  0.64867  Biso   1.000  F
  F32      1.0000 0.26423  0.67187  0.64867  Biso   1.000  F
  F33      1.0000 0.32813  0.59237  0.64867  Biso   1.000  F
  F34      1.0000 0.40243  0.74097  0.18467  Biso   1.000  F
  F35      1.0000 0.25903  0.66147  0.18467  Biso   1.000  F
  F36      1.0000 0.33853  0.59757  0.18467  Biso   1.000  F
  F37      1.0000 0.00000  0.00000  0.06020  Biso   1.000  F
  F38      1.0000 0.00000  0.00000  0.43980  Biso   1.000  F
  F39      1.0000 0.66667  0.33333  0.39353  Biso   1.000  F
  F40      1.0000 0.66667  0.33333  0.77313  Biso   1.000  F
  F41      1.0000 0.33333  0.66667  0.72687  Biso   1.000  F
  F42      1.0000 0.33333  0.66667  0.10647  Biso   1.000  F
  F43      1.0000 0.00000  0.00000  0.93980  Biso   1.000  F
  F44      1.0000 0.00000  0.00000  0.56020  Biso   1.000  F
  F45      1.0000 0.66667  0.33333  0.27313  Biso   1.000  F
  F46      1.0000 0.66667  0.33333  0.89353  Biso   1.000  F
  F47      1.0000 0.33333  0.66667  0.60647  Biso   1.000  F
  F48      1.0000 0.33333  0.66667  0.22687  Biso   1.000  F
  F49      1.0000 0.00000  0.00000  0.09010  Biso   1.000  F
  F50      1.0000 0.00000  0.00000  0.40990  Biso   1.000  F
  F51      1.0000 0.66667  0.33333  0.42343  Biso   1.000  F
  F52      1.0000 0.66667  0.33333  0.74323  Biso   1.000  F
  F53      1.0000 0.33333  0.66667  0.75677  Biso   1.000  F
  F54      1.0000 0.33333  0.66667  0.07657  Biso   1.000  F
  F55      1.0000 0.00000  0.00000  0.90990  Biso   1.000  F
  F56      1.0000 0.00000  0.00000  0.59010  Biso   1.000  F
  F57      1.0000 0.66667  0.33333  0.24323  Biso   1.000  F
  F58      1.0000 0.66667  0.33333  0.92343  Biso   1.000  F
  F59      1.0000 0.33333  0.66667  0.57657  Biso   1.000  F
  F60      1.0000 0.33333  0.66667  0.25677  Biso   1.000  F
  F61      1.0000 0.92900  0.01200  0.11230  Biso   1.000  F
  F62      1.0000 0.98800  0.91700  0.11230  Biso   1.000  F
  F63      1.0000 0.08300  0.07100  0.11230  Biso   1.000  F
  F64      1.0000 0.01200  0.92900  0.38770  Biso   1.000  F
  F65      1.0000 0.07100  0.08300  0.38770  Biso   1.000  F
  F66      1.0000 0.91700  0.98800  0.38770  Biso   1.000  F
  F67      1.0000 0.59567  0.34533  0.44563  Biso   1.000  F
  F68      1.0000 0.65467  0.25033  0.44563  Biso   1.000  F
  F69      1.0000 0.74967  0.40433  0.44563  Biso   1.000  F
  F70      1.0000 0.67867  0.26233  0.72103  Biso   1.000  F
  F71      1.0000 0.73767  0.41633  0.72103  Biso   1.000  F
  F72      1.0000 0.58367  0.32133  0.72103  Biso   1.000  F
  F73      1.0000 0.26233  0.67867  0.77897  Biso   1.000  F
  F74      1.0000 0.32133  0.58367  0.77897  Biso   1.000  F
  F75      1.0000 0.41633  0.73767  0.77897  Biso   1.000  F
  F76      1.0000 0.34533  0.59567  0.05437  Biso   1.000  F
  F77      1.0000 0.40433  0.74967  0.05437  Biso   1.000  F
  F78      1.0000 0.25033  0.65467  0.05437  Biso   1.000  F
  F79      1.0000 0.07100  0.98800  0.88770  Biso   1.000  F
  F80      1.0000 0.01200  0.08300  0.88770  Biso   1.000  F
  F81      1.0000 0.91700  0.92900  0.88770  Biso   1.000  F
  F82      1.0000 0.98800  0.07100  0.61230  Biso   1.000  F
  F83      1.0000 0.92900  0.91700  0.61230  Biso   1.000  F
  F84      1.0000 0.08300  0.01200  0.61230  Biso   1.000  F
  F85      1.0000 0.73767  0.32133  0.22103  Biso   1.000  F
  F86      1.0000 0.67867  0.41633  0.22103  Biso   1.000  F
  F87      1.0000 0.58367  0.26233  0.22103  Biso   1.000  F
  F88      1.0000 0.65467  0.40433  0.94563  Biso   1.000  F
  F89      1.0000 0.59567  0.25033  0.94563  Biso   1.000  F
  F90      1.0000 0.74967  0.34533  0.94563  Biso   1.000  F
  F91      1.0000 0.40433  0.65467  0.55437  Biso   1.000  F
  F92      1.0000 0.34533  0.74967  0.55437  Biso   1.000  F
  F93      1.0000 0.25033  0.59567  0.55437  Biso   1.000  F
  F94      1.0000 0.32133  0.73767  0.27897  Biso   1.000  F
  F95      1.0000 0.26233  0.58367  0.27897  Biso   1.000  F
  F96      1.0000 0.41633  0.67867  0.27897  Biso   1.000  F
  B1       1.0000 0.00000  0.00000  0.03100  Biso   1.000  B
  B2       1.0000 0.00000  0.00000  0.46900  Biso   1.000  B
  B3       1.0000 0.66667  0.33333  0.36433  Biso   1.000  B
  B4       1.0000 0.66667  0.33333  0.80233  Biso   1.000  B
  B5       1.0000 0.33333  0.66667  0.69767  Biso   1.000  B
  B6       1.0000 0.33333  0.66667  0.13567  Biso   1.000  B
  B7       1.0000 0.00000  0.00000  0.96900  Biso   1.000  B
  B8       1.0000 0.00000  0.00000  0.53100  Biso   1.000  B
  B9       1.0000 0.66667  0.33333  0.30233  Biso   1.000  B
  B10      1.0000 0.66667  0.33333  0.86433  Biso   1.000  B
  B11      1.0000 0.33333  0.66667  0.63567  Biso   1.000  B
  B12      1.0000 0.33333  0.66667  0.19767  Biso   1.000  B
  B13      1.0000 0.00000  0.00000  0.11930  Biso   1.000  B
  B14      1.0000 0.00000  0.00000  0.38070  Biso   1.000  B
  B15      1.0000 0.66667  0.33333  0.45263  Biso   1.000  B
  B16      1.0000 0.66667  0.33333  0.71403  Biso   1.000  B
  B17      1.0000 0.33333  0.66667  0.78597  Biso   1.000  B
  B18      1.0000 0.33333  0.66667  0.04737  Biso   1.000  B
  B19      1.0000 0.00000  0.00000  0.88070  Biso   1.000  B
  B20      1.0000 0.00000  0.00000  0.61930  Biso   1.000  B
  B21      1.0000 0.66667  0.33333  0.21403  Biso   1.000  B
  B22      1.0000 0.66667  0.33333  0.95263  Biso   1.000  B
  B23      1.0000 0.33333  0.66667  0.54737  Biso   1.000  B
  B24      1.0000 0.33333  0.66667  0.28597  Biso   1.000  B
  F97      1.0000 0.47940  0.95600  0.04470  Biso   1.000  F
  F98      1.0000 0.04400  0.52340  0.04470  Biso   1.000  F
  F99      1.0000 0.47660  0.52060  0.04470  Biso   1.000  F
  F100     1.0000 0.95600  0.47940  0.45530  Biso   1.000  F
  F101     1.0000 0.52060  0.47660  0.45530  Biso   1.000  F
  F102     1.0000 0.52340  0.04400  0.45530  Biso   1.000  F
  F103     1.0000 0.14607  0.28933  0.37803  Biso   1.000  F
  F104     1.0000 0.71067  0.85673  0.37803  Biso   1.000  F
  F105     1.0000 0.14327  0.85393  0.37803  Biso   1.000  F
  F106     1.0000 0.62267  0.81273  0.78863  Biso   1.000  F
  F107     1.0000 0.18727  0.80993  0.78863  Biso   1.000  F
  F108     1.0000 0.19007  0.37733  0.78863  Biso   1.000  F
  F109     1.0000 0.81273  0.62267  0.71137  Biso   1.000  F
  F110     1.0000 0.37733  0.19007  0.71137  Biso   1.000  F
  F111     1.0000 0.80993  0.18727  0.71137  Biso   1.000  F
  F112     1.0000 0.28933  0.14607  0.12197  Biso   1.000  F
  F113     1.0000 0.85393  0.14327  0.12197  Biso   1.000  F
  F114     1.0000 0.85673  0.71067  0.12197  Biso   1.000  F
  F115     1.0000 0.52060  0.04400  0.95530  Biso   1.000  F
  F116     1.0000 0.95600  0.47660  0.95530  Biso   1.000  F
  F117     1.0000 0.52340  0.47940  0.95530  Biso   1.000  F
  F118     1.0000 0.04400  0.52060  0.54470  Biso   1.000  F
  F119     1.0000 0.47940  0.52340  0.54470  Biso   1.000  F
  F120     1.0000 0.47660  0.95600  0.54470  Biso   1.000  F
  F121     1.0000 0.18727  0.37733  0.28863  Biso   1.000  F
  F122     1.0000 0.62267  0.80993  0.28863  Biso   1.000  F
  F123     1.0000 0.19007  0.81273  0.28863  Biso   1.000  F
  F124     1.0000 0.71067  0.85393  0.87803  Biso   1.000  F
  F125     1.0000 0.14607  0.85673  0.87803  Biso   1.000  F
  F126     1.0000 0.14327  0.28933  0.87803  Biso   1.000  F
  F127     1.0000 0.85393  0.71067  0.62197  Biso   1.000  F
  F128     1.0000 0.28933  0.14327  0.62197  Biso   1.000  F
  F129     1.0000 0.85673  0.14607  0.62197  Biso   1.000  F
  F130     1.0000 0.37733  0.18727  0.21137  Biso   1.000  F
  F131     1.0000 0.81273  0.19007  0.21137  Biso   1.000  F
  F132     1.0000 0.80993  0.62267  0.21137  Biso   1.000  F
  F133     1.0000 0.58100  0.06600  0.01800  Biso   1.000  F
  F134     1.0000 0.93400  0.51500  0.01800  Biso   1.000  F
  F135     1.0000 0.48500  0.41900  0.01800  Biso   1.000  F
  F136     1.0000 0.06600  0.58100  0.48200  Biso   1.000  F
  F137     1.0000 0.41900  0.48500  0.48200  Biso   1.000  F
  F138     1.0000 0.51500  0.93400  0.48200  Biso   1.000  F
  F139     1.0000 0.24767  0.39933  0.35133  Biso   1.000  F
  F140     1.0000 0.60067  0.84833  0.35133  Biso   1.000  F
  F141     1.0000 0.15167  0.75233  0.35133  Biso   1.000  F
  F142     1.0000 0.73267  0.91433  0.81533  Biso   1.000  F
  F143     1.0000 0.08567  0.81833  0.81533  Biso   1.000  F
  F144     1.0000 0.18167  0.26733  0.81533  Biso   1.000  F
  F145     1.0000 0.91433  0.73267  0.68467  Biso   1.000  F
  F146     1.0000 0.26733  0.18167  0.68467  Biso   1.000  F
  F147     1.0000 0.81833  0.08567  0.68467  Biso   1.000  F
  F148     1.0000 0.39933  0.24767  0.14867  Biso   1.000  F
  F149     1.0000 0.75233  0.15167  0.14867  Biso   1.000  F
  F150     1.0000 0.84833  0.60067  0.14867  Biso   1.000  F
  F151     1.0000 0.41900  0.93400  0.98200  Biso   1.000  F
  F152     1.0000 0.06600  0.48500  0.98200  Biso   1.000  F
  F153     1.0000 0.51500  0.58100  0.98200  Biso   1.000  F
  F154     1.0000 0.93400  0.41900  0.51800  Biso   1.000  F
  F155     1.0000 0.58100  0.51500  0.51800  Biso   1.000  F
  F156     1.0000 0.48500  0.06600  0.51800  Biso   1.000  F
  F157     1.0000 0.08567  0.26733  0.31533  Biso   1.000  F
  F158     1.0000 0.73267  0.81833  0.31533  Biso   1.000  F
  F159     1.0000 0.18167  0.91433  0.31533  Biso   1.000  F
  F160     1.0000 0.60067  0.75233  0.85133  Biso   1.000  F
  F161     1.0000 0.24767  0.84833  0.85133  Biso   1.000  F
  F162     1.0000 0.15167  0.39933  0.85133  Biso   1.000  F
  F163     1.0000 0.75233  0.60067  0.64867  Biso   1.000  F
  F164     1.0000 0.39933  0.15167  0.64867  Biso   1.000  F
  F165     1.0000 0.84833  0.24767  0.64867  Biso   1.000  F
  F166     1.0000 0.26733  0.08567  0.18467  Biso   1.000  F
  F167     1.0000 0.91433  0.18167  0.18467  Biso   1.000  F
  F168     1.0000 0.81833  0.73267  0.18467  Biso   1.000  F
  F169     1.0000 0.59700  0.06900  0.06400  Biso   1.000  F
  F170     1.0000 0.93100  0.52800  0.06400  Biso   1.000  F
  F171     1.0000 0.47200  0.40300  0.06400  Biso   1.000  F
  F172     1.0000 0.06900  0.59700  0.43600  Biso   1.000  F
  F173     1.0000 0.40300  0.47200  0.43600  Biso   1.000  F
  F174     1.0000 0.52800  0.93100  0.43600  Biso   1.000  F
  F175     1.0000 0.26367  0.40233  0.39733  Biso   1.000  F
  F176     1.0000 0.59767  0.86133  0.39733  Biso   1.000  F
  F177     1.0000 0.13867  0.73633  0.39733  Biso   1.000  F
  F178     1.0000 0.73567  0.93033  0.76933  Biso   1.000  F
  F179     1.0000 0.06967  0.80533  0.76933  Biso   1.000  F
  F180     1.0000 0.19467  0.26433  0.76933  Biso   1.000  F
  F181     1.0000 0.93033  0.73567  0.73067  Biso   1.000  F
  F182     1.0000 0.26433  0.19467  0.73067  Biso   1.000  F
  F183     1.0000 0.80533  0.06967  0.73067  Biso   1.000  F
  F184     1.0000 0.40233  0.26367  0.10267  Biso   1.000  F
  F185     1.0000 0.73633  0.13867  0.10267  Biso   1.000  F
  F186     1.0000 0.86133  0.59767  0.10267  Biso   1.000  F
  F187     1.0000 0.40300  0.93100  0.93600  Biso   1.000  F
  F188     1.0000 0.06900  0.47200  0.93600  Biso   1.000  F
  F189     1.0000 0.52800  0.59700  0.93600  Biso   1.000  F
  F190     1.0000 0.93100  0.40300  0.56400  Biso   1.000  F
  F191     1.0000 0.59700  0.52800  0.56400  Biso   1.000  F
  F192     1.0000 0.47200  0.06900  0.56400  Biso   1.000  F
  F193     1.0000 0.06967  0.26433  0.26933  Biso   1.000  F
  F194     1.0000 0.73567  0.80533  0.26933  Biso   1.000  F
  F195     1.0000 0.19467  0.93033  0.26933  Biso   1.000  F
  F196     1.0000 0.59767  0.73633  0.89733  Biso   1.000  F
  F197     1.0000 0.26367  0.86133  0.89733  Biso   1.000  F
  F198     1.0000 0.13867  0.40233  0.89733  Biso   1.000  F
  F199     1.0000 0.73633  0.59767  0.60267  Biso   1.000  F
  F200     1.0000 0.40233  0.13867  0.60267  Biso   1.000  F
  F201     1.0000 0.86133  0.26367  0.60267  Biso   1.000  F
  F202     1.0000 0.26433  0.06967  0.23067  Biso   1.000  F
  F203     1.0000 0.93033  0.19467  0.23067  Biso   1.000  F
  F204     1.0000 0.80533  0.73567  0.23067  Biso   1.000  F
  F205     1.0000 0.61000  0.97100  0.03750  Biso   1.000  F
  F206     1.0000 0.02900  0.63900  0.03750  Biso   1.000  F
  F207     1.0000 0.36100  0.39000  0.03750  Biso   1.000  F
  F208     1.0000 0.97100  0.61000  0.46250  Biso   1.000  F
  F209     1.0000 0.39000  0.36100  0.46250  Biso   1.000  F
  F210     1.0000 0.63900  0.02900  0.46250  Biso   1.000  F
  F211     1.0000 0.27667  0.30433  0.37083  Biso   1.000  F
  F212     1.0000 0.69567  0.97233  0.37083  Biso   1.000  F
  F213     1.0000 0.02767  0.72333  0.37083  Biso   1.000  F
  F214     1.0000 0.63767  0.94333  0.79583  Biso   1.000  F
  F215     1.0000 0.05667  0.69433  0.79583  Biso   1.000  F
  F216     1.0000 0.30567  0.36233  0.79583  Biso   1.000  F
  F217     1.0000 0.94333  0.63767  0.70417  Biso   1.000  F
  F218     1.0000 0.36233  0.30567  0.70417  Biso   1.000  F
  F219     1.0000 0.69433  0.05667  0.70417  Biso   1.000  F
  F220     1.0000 0.30433  0.27667  0.12917  Biso   1.000  F
  F221     1.0000 0.72333  0.02767  0.12917  Biso   1.000  F
  F222     1.0000 0.97233  0.69567  0.12917  Biso   1.000  F
  F223     1.0000 0.39000  0.02900  0.96250  Biso   1.000  F
  F224     1.0000 0.97100  0.36100  0.96250  Biso   1.000  F
  F225     1.0000 0.63900  0.61000  0.96250  Biso   1.000  F
  F226     1.0000 0.02900  0.39000  0.53750  Biso   1.000  F
  F227     1.0000 0.61000  0.63900  0.53750  Biso   1.000  F
  F228     1.0000 0.36100  0.97100  0.53750  Biso   1.000  F
  F229     1.0000 0.05667  0.36233  0.29583  Biso   1.000  F
  F230     1.0000 0.63767  0.69433  0.29583  Biso   1.000  F
  F231     1.0000 0.30567  0.94333  0.29583  Biso   1.000  F
  F232     1.0000 0.69567  0.72333  0.87083  Biso   1.000  F
  F233     1.0000 0.27667  0.97233  0.87083  Biso   1.000  F
  F234     1.0000 0.02767  0.30433  0.87083  Biso   1.000  F
  F235     1.0000 0.72333  0.69567  0.62917  Biso   1.000  F
  F236     1.0000 0.30433  0.02767  0.62917  Biso   1.000  F
  F237     1.0000 0.97233  0.27667  0.62917  Biso   1.000  F
  F238     1.0000 0.36233  0.05667  0.20417  Biso   1.000  F
  F239     1.0000 0.94333  0.30567  0.20417  Biso   1.000  F
  F240     1.0000 0.69433  0.63767  0.20417  Biso   1.000  F
  B25      1.0000 0.56650  0.01610  0.04120  Biso   1.000  B
  B26      1.0000 0.98390  0.55040  0.04120  Biso   1.000  B
  B27      1.0000 0.44960  0.43350  0.04120  Biso   1.000  B
  B28      1.0000 0.01610  0.56650  0.45880  Biso   1.000  B
  B29      1.0000 0.43350  0.44960  0.45880  Biso   1.000  B
  B30      1.0000 0.55040  0.98390  0.45880  Biso   1.000  B
  B31      1.0000 0.23317  0.34943  0.37453  Biso   1.000  B
  B32      1.0000 0.65057  0.88373  0.37453  Biso   1.000  B
  B33      1.0000 0.11627  0.76683  0.37453  Biso   1.000  B
  B34      1.0000 0.68277  0.89983  0.79213  Biso   1.000  B
  B35      1.0000 0.10017  0.78293  0.79213  Biso   1.000  B
  B36      1.0000 0.21707  0.31723  0.79213  Biso   1.000  B
  B37      1.0000 0.89983  0.68277  0.70787  Biso   1.000  B
  B38      1.0000 0.31723  0.21707  0.70787  Biso   1.000  B
  B39      1.0000 0.78293  0.10017  0.70787  Biso   1.000  B
  B40      1.0000 0.34943  0.23317  0.12547  Biso   1.000  B
  B41      1.0000 0.76683  0.11627  0.12547  Biso   1.000  B
  B42      1.0000 0.88373  0.65057  0.12547  Biso   1.000  B
  B43      1.0000 0.43350  0.98390  0.95880  Biso   1.000  B
  B44      1.0000 0.01610  0.44960  0.95880  Biso   1.000  B
  B45      1.0000 0.55040  0.56650  0.95880  Biso   1.000  B
  B46      1.0000 0.98390  0.43350  0.54120  Biso   1.000  B
  B47      1.0000 0.56650  0.55040  0.54120  Biso   1.000  B
  B48      1.0000 0.44960  0.01610  0.54120  Biso   1.000  B
  B49      1.0000 0.10017  0.31723  0.29213  Biso   1.000  B
  B50      1.0000 0.68277  0.78293  0.29213  Biso   1.000  B
  B51      1.0000 0.21707  0.89983  0.29213  Biso   1.000  B
  B52      1.0000 0.65057  0.76683  0.87453  Biso   1.000  B
  B53      1.0000 0.23317  0.88373  0.87453  Biso   1.000  B
  B54      1.0000 0.11627  0.34943  0.87453  Biso   1.000  B
  B55      1.0000 0.76683  0.65057  0.62547  Biso   1.000  B
  B56      1.0000 0.34943  0.11627  0.62547  Biso   1.000  B
  B57      1.0000 0.88373  0.23317  0.62547  Biso   1.000  B
  B58      1.0000 0.31723  0.10017  0.20787  Biso   1.000  B
  B59      1.0000 0.89983  0.21707  0.20787  Biso   1.000  B
  B60      1.0000 0.78293  0.68277  0.20787  Biso   1.000  B
