data_image0
_cell_length_a       11.2179
_cell_length_b       11.2179
_cell_length_c       62.4758
_cell_angle_alpha    90
_cell_angle_beta     90
_cell_angle_gamma    120

_symmetry_space_group_name_H-M    "P 1"
_symmetry_int_tables_number       1

loop_
  _symmetry_equiv_pos_as_xyz
  'x, y, z'

loop_
  _atom_site_label
  _atom_site_occupancy
  _atom_site_fract_x
  _atom_site_fract_y
  _atom_site_fract_z
  _atom_site_thermal_displace_type
  _atom_site_B_iso_or_equiv
  _atom_site_type_symbol
  Cu1      1.0000 0.78254  0.00000  0.00000  Biso   1.000  Cu
  Cu2      1.0000 0.00000  0.78254  0.33333  Biso   1.000  Cu
  Cu3      1.0000 0.21746  0.21746  0.66667  Biso   1.000  Cu
  Cu4      1.0000 0.21746  0.00000  0.50000  Biso   1.000  Cu
  Cu5      1.0000 0.00000  0.21746  0.83333  Biso   1.000  Cu
  Cu6      1.0000 0.78254  0.78254  0.16667  Biso   1.000  Cu
  C1       1.0000 0.07010  0.94260  0.06296  Biso   1.000  C
  C2       1.0000 0.05740  0.12750  0.39629  Biso   1.000  C
  C3       1.0000 0.87250  0.92990  0.72963  Biso   1.000  C
  C4       1.0000 0.92990  0.05740  0.56296  Biso   1.000  C
  C5       1.0000 0.94260  0.87250  0.89629  Biso   1.000  C
  C6       1.0000 0.12750  0.07010  0.22963  Biso   1.000  C
  C7       1.0000 0.94260  0.07010  0.27037  Biso   1.000  C
  C8       1.0000 0.12750  0.05740  0.93704  Biso   1.000  C
  C9       1.0000 0.92990  0.87250  0.60371  Biso   1.000  C
  C10      1.0000 0.05740  0.92990  0.77037  Biso   1.000  C
  C11      1.0000 0.87250  0.94260  0.43704  Biso   1.000  C
  C12      1.0000 0.07010  0.12750  0.10371  Biso   1.000  C
  C13      1.0000 0.19790  0.06690  0.05668  Biso   1.000  C
  C14      1.0000 0.93310  0.13100  0.39001  Biso   1.000  C
  C15      1.0000 0.86900  0.80210  0.72335  Biso   1.000  C
  C16      1.0000 0.80210  0.93310  0.55668  Biso   1.000  C
  C17      1.0000 0.06690  0.86900  0.89001  Biso   1.000  C
  C18      1.0000 0.13100  0.19790  0.22335  Biso   1.000  C
  C19      1.0000 0.06690  0.19790  0.27665  Biso   1.000  C
  C20      1.0000 0.13100  0.93310  0.94332  Biso   1.000  C
  C21      1.0000 0.80210  0.86900  0.60999  Biso   1.000  C
  C22      1.0000 0.93310  0.80210  0.77665  Biso   1.000  C
  C23      1.0000 0.86900  0.06690  0.44332  Biso   1.000  C
  C24      1.0000 0.19790  0.13100  0.10999  Biso   1.000  C
  C25      1.0000 0.32600  0.07550  0.06082  Biso   1.000  C
  C26      1.0000 0.92450  0.25050  0.39415  Biso   1.000  C
  C27      1.0000 0.74950  0.67400  0.72749  Biso   1.000  C
  C28      1.0000 0.67400  0.92450  0.56082  Biso   1.000  C
  C29      1.0000 0.07550  0.74950  0.89415  Biso   1.000  C
  C30      1.0000 0.25050  0.32600  0.22749  Biso   1.000  C
  C31      1.0000 0.07550  0.32600  0.27251  Biso   1.000  C
  C32      1.0000 0.25050  0.92450  0.93918  Biso   1.000  C
  C33      1.0000 0.67400  0.74950  0.60585  Biso   1.000  C
  C34      1.0000 0.92450  0.67400  0.77251  Biso   1.000  C
  C35      1.0000 0.74950  0.07550  0.43918  Biso   1.000  C
  C36      1.0000 0.32600  0.25050  0.10585  Biso   1.000  C
  C37      1.0000 0.33280  0.96730  0.07100  Biso   1.000  C
  C38      1.0000 0.03270  0.36550  0.40433  Biso   1.000  C
  C39      1.0000 0.63450  0.66720  0.73767  Biso   1.000  C
  C40      1.0000 0.66720  0.03270  0.57100  Biso   1.000  C
  C41      1.0000 0.96730  0.63450  0.90433  Biso   1.000  C
  C42      1.0000 0.36550  0.33280  0.23767  Biso   1.000  C
  C43      1.0000 0.96730  0.33280  0.26233  Biso   1.000  C
  C44      1.0000 0.36550  0.03270  0.92900  Biso   1.000  C
  C45      1.0000 0.66720  0.63450  0.59567  Biso   1.000  C
  C46      1.0000 0.03270  0.66720  0.76233  Biso   1.000  C
  C47      1.0000 0.63450  0.96730  0.42900  Biso   1.000  C
  C48      1.0000 0.33280  0.36550  0.09567  Biso   1.000  C
  C49      1.0000 0.20600  0.84230  0.07749  Biso   1.000  C
  C50      1.0000 0.15770  0.36370  0.41082  Biso   1.000  C
  C51      1.0000 0.63630  0.79400  0.74416  Biso   1.000  C
  C52      1.0000 0.79400  0.15770  0.57749  Biso   1.000  C
  C53      1.0000 0.84230  0.63630  0.91082  Biso   1.000  C
  C54      1.0000 0.36370  0.20600  0.24416  Biso   1.000  C
  C55      1.0000 0.84230  0.20600  0.25584  Biso   1.000  C
  C56      1.0000 0.36370  0.15770  0.92251  Biso   1.000  C
  C57      1.0000 0.79400  0.63630  0.58918  Biso   1.000  C
  C58      1.0000 0.15770  0.79400  0.75584  Biso   1.000  C
  C59      1.0000 0.63630  0.84230  0.42251  Biso   1.000  C
  C60      1.0000 0.20600  0.36370  0.08918  Biso   1.000  C
  C61      1.0000 0.19340  0.17360  0.04634  Biso   1.000  C
  C62      1.0000 0.82640  0.01980  0.37967  Biso   1.000  C
  C63      1.0000 0.98020  0.80660  0.71301  Biso   1.000  C
  C64      1.0000 0.80660  0.82640  0.54634  Biso   1.000  C
  C65      1.0000 0.17360  0.98020  0.87967  Biso   1.000  C
  C66      1.0000 0.01980  0.19340  0.21301  Biso   1.000  C
  C67      1.0000 0.17360  0.19340  0.28699  Biso   1.000  C
  C68      1.0000 0.01980  0.82640  0.95366  Biso   1.000  C
  C69      1.0000 0.80660  0.98020  0.62033  Biso   1.000  C
  C70      1.0000 0.82640  0.80660  0.78699  Biso   1.000  C
  C71      1.0000 0.98020  0.17360  0.45366  Biso   1.000  C
  C72      1.0000 0.19340  0.01980  0.12033  Biso   1.000  C
  H1       1.0000 0.10720  0.16750  0.04360  Biso   1.000  H
  H2       1.0000 0.83250  0.93970  0.37693  Biso   1.000  H
  H3       1.0000 0.06030  0.89280  0.71027  Biso   1.000  H
  H4       1.0000 0.89280  0.83250  0.54360  Biso   1.000  H
  H5       1.0000 0.16750  0.06030  0.87693  Biso   1.000  H
  H6       1.0000 0.93970  0.10720  0.21027  Biso   1.000  H
  H7       1.0000 0.16750  0.10720  0.28973  Biso   1.000  H
  H8       1.0000 0.93970  0.83250  0.95640  Biso   1.000  H
  H9       1.0000 0.89280  0.06030  0.62307  Biso   1.000  H
  H10      1.0000 0.83250  0.89280  0.78973  Biso   1.000  H
  H11      1.0000 0.06030  0.16750  0.45640  Biso   1.000  H
  H12      1.0000 0.10720  0.93970  0.12307  Biso   1.000  H
  C73      1.0000 0.31570  0.29070  0.03997  Biso   1.000  C
  C74      1.0000 0.70930  0.02500  0.37330  Biso   1.000  C
  C75      1.0000 0.97500  0.68430  0.70664  Biso   1.000  C
  C76      1.0000 0.68430  0.70930  0.53997  Biso   1.000  C
  C77      1.0000 0.29070  0.97500  0.87330  Biso   1.000  C
  C78      1.0000 0.02500  0.31570  0.20664  Biso   1.000  C
  C79      1.0000 0.29070  0.31570  0.29336  Biso   1.000  C
  C80      1.0000 0.02500  0.70930  0.96003  Biso   1.000  C
  C81      1.0000 0.68430  0.97500  0.62670  Biso   1.000  C
  C82      1.0000 0.70930  0.68430  0.79336  Biso   1.000  C
  C83      1.0000 0.97500  0.29070  0.46003  Biso   1.000  C
  C84      1.0000 0.31570  0.02500  0.12670  Biso   1.000  C
  H13      1.0000 0.31170  0.36360  0.03290  Biso   1.000  H
  H14      1.0000 0.63640  0.94810  0.36623  Biso   1.000  H
  H15      1.0000 0.05190  0.68830  0.69957  Biso   1.000  H
  H16      1.0000 0.68830  0.63640  0.53290  Biso   1.000  H
  H17      1.0000 0.36360  0.05190  0.86623  Biso   1.000  H
  H18      1.0000 0.94810  0.31170  0.19957  Biso   1.000  H
  H19      1.0000 0.36360  0.31170  0.30043  Biso   1.000  H
  H20      1.0000 0.94810  0.63640  0.96710  Biso   1.000  H
  H21      1.0000 0.68830  0.05190  0.63377  Biso   1.000  H
  H22      1.0000 0.63640  0.68830  0.80043  Biso   1.000  H
  H23      1.0000 0.05190  0.36360  0.46710  Biso   1.000  H
  H24      1.0000 0.31170  0.94810  0.13377  Biso   1.000  H
  C85      1.0000 0.44040  0.30140  0.04376  Biso   1.000  C
  C86      1.0000 0.69860  0.13900  0.37709  Biso   1.000  C
  C87      1.0000 0.86100  0.55960  0.71043  Biso   1.000  C
  C88      1.0000 0.55960  0.69860  0.54376  Biso   1.000  C
  C89      1.0000 0.30140  0.86100  0.87709  Biso   1.000  C
  C90      1.0000 0.13900  0.44040  0.21043  Biso   1.000  C
  C91      1.0000 0.30140  0.44040  0.28957  Biso   1.000  C
  C92      1.0000 0.13900  0.69860  0.95624  Biso   1.000  C
  C93      1.0000 0.55960  0.86100  0.62291  Biso   1.000  C
  C94      1.0000 0.69860  0.55960  0.78957  Biso   1.000  C
  C95      1.0000 0.86100  0.30140  0.45624  Biso   1.000  C
  C96      1.0000 0.44040  0.13900  0.12291  Biso   1.000  C
  H25      1.0000 0.52210  0.38160  0.03930  Biso   1.000  H
  H26      1.0000 0.61840  0.14050  0.37263  Biso   1.000  H
  H27      1.0000 0.85950  0.47790  0.70597  Biso   1.000  H
  H28      1.0000 0.47790  0.61840  0.53930  Biso   1.000  H
  H29      1.0000 0.38160  0.85950  0.87263  Biso   1.000  H
  H30      1.0000 0.14050  0.52210  0.20597  Biso   1.000  H
  H31      1.0000 0.38160  0.52210  0.29403  Biso   1.000  H
  H32      1.0000 0.14050  0.61840  0.96070  Biso   1.000  H
  H33      1.0000 0.47790  0.85950  0.62737  Biso   1.000  H
  H34      1.0000 0.61840  0.47790  0.79403  Biso   1.000  H
  H35      1.0000 0.85950  0.38160  0.46070  Biso   1.000  H
  H36      1.0000 0.52210  0.14050  0.12737  Biso   1.000  H
  C97      1.0000 0.44960  0.19440  0.05424  Biso   1.000  C
  C98      1.0000 0.80560  0.25520  0.38757  Biso   1.000  C
  C99      1.0000 0.74480  0.55040  0.72091  Biso   1.000  C
  C100     1.0000 0.55040  0.80560  0.55424  Biso   1.000  C
  C101     1.0000 0.19440  0.74480  0.88757  Biso   1.000  C
  C102     1.0000 0.25520  0.44960  0.22091  Biso   1.000  C
  C103     1.0000 0.19440  0.44960  0.27909  Biso   1.000  C
  C104     1.0000 0.25520  0.80560  0.94576  Biso   1.000  C
  C105     1.0000 0.55040  0.74480  0.61243  Biso   1.000  C
  C106     1.0000 0.80560  0.55040  0.77909  Biso   1.000  C
  C107     1.0000 0.74480  0.19440  0.44576  Biso   1.000  C
  C108     1.0000 0.44960  0.25520  0.11243  Biso   1.000  C
  C109     1.0000 0.57640  0.20090  0.05858  Biso   1.000  C
  C110     1.0000 0.79910  0.37550  0.39191  Biso   1.000  C
  C111     1.0000 0.62450  0.42360  0.72525  Biso   1.000  C
  C112     1.0000 0.42360  0.79910  0.55858  Biso   1.000  C
  C113     1.0000 0.20090  0.62450  0.89191  Biso   1.000  C
  C114     1.0000 0.37550  0.57640  0.22525  Biso   1.000  C
  C115     1.0000 0.20090  0.57640  0.27475  Biso   1.000  C
  C116     1.0000 0.37550  0.79910  0.94142  Biso   1.000  C
  C117     1.0000 0.42360  0.62450  0.60809  Biso   1.000  C
  C118     1.0000 0.79910  0.42360  0.77475  Biso   1.000  C
  C119     1.0000 0.62450  0.20090  0.44142  Biso   1.000  C
  C120     1.0000 0.57640  0.37550  0.10809  Biso   1.000  C
  H37      1.0000 0.66000  0.28060  0.05460  Biso   1.000  H
  H38      1.0000 0.71940  0.37940  0.38793  Biso   1.000  H
  H39      1.0000 0.62060  0.34000  0.72127  Biso   1.000  H
  H40      1.0000 0.34000  0.71940  0.55460  Biso   1.000  H
  H41      1.0000 0.28060  0.62060  0.88793  Biso   1.000  H
  H42      1.0000 0.37940  0.66000  0.22127  Biso   1.000  H
  H43      1.0000 0.28060  0.66000  0.27873  Biso   1.000  H
  H44      1.0000 0.37940  0.71940  0.94540  Biso   1.000  H
  H45      1.0000 0.34000  0.62060  0.61207  Biso   1.000  H
  H46      1.0000 0.71940  0.34000  0.77873  Biso   1.000  H
  H47      1.0000 0.62060  0.28060  0.44540  Biso   1.000  H
  H48      1.0000 0.66000  0.37940  0.11207  Biso   1.000  H
  C121     1.0000 0.58050  0.09510  0.06836  Biso   1.000  C
  C122     1.0000 0.90490  0.48540  0.40169  Biso   1.000  C
  C123     1.0000 0.51460  0.41950  0.73503  Biso   1.000  C
  C124     1.0000 0.41950  0.90490  0.56836  Biso   1.000  C
  C125     1.0000 0.09510  0.51460  0.90169  Biso   1.000  C
  C126     1.0000 0.48540  0.58050  0.23503  Biso   1.000  C
  C127     1.0000 0.09510  0.58050  0.26497  Biso   1.000  C
  C128     1.0000 0.48540  0.90490  0.93164  Biso   1.000  C
  C129     1.0000 0.41950  0.51460  0.59831  Biso   1.000  C
  C130     1.0000 0.90490  0.41950  0.76497  Biso   1.000  C
  C131     1.0000 0.51460  0.09510  0.43164  Biso   1.000  C
  C132     1.0000 0.58050  0.48540  0.09831  Biso   1.000  C
  H49      1.0000 0.66680  0.10100  0.07090  Biso   1.000  H
  H50      1.0000 0.89900  0.56580  0.40423  Biso   1.000  H
  H51      1.0000 0.43420  0.33320  0.73757  Biso   1.000  H
  H52      1.0000 0.33320  0.89900  0.57090  Biso   1.000  H
  H53      1.0000 0.10100  0.43420  0.90423  Biso   1.000  H
  H54      1.0000 0.56580  0.66680  0.23757  Biso   1.000  H
  H55      1.0000 0.10100  0.66680  0.26243  Biso   1.000  H
  H56      1.0000 0.56580  0.89900  0.92910  Biso   1.000  H
  H57      1.0000 0.33320  0.43420  0.59577  Biso   1.000  H
  H58      1.0000 0.89900  0.33320  0.76243  Biso   1.000  H
  H59      1.0000 0.43420  0.10100  0.42910  Biso   1.000  H
  H60      1.0000 0.66680  0.56580  0.09577  Biso   1.000  H
  C133     1.0000 0.45830  0.97670  0.07480  Biso   1.000  C
  C134     1.0000 0.02330  0.48160  0.40813  Biso   1.000  C
  C135     1.0000 0.51840  0.54170  0.74147  Biso   1.000  C
  C136     1.0000 0.54170  0.02330  0.57480  Biso   1.000  C
  C137     1.0000 0.97670  0.51840  0.90813  Biso   1.000  C
  C138     1.0000 0.48160  0.45830  0.24147  Biso   1.000  C
  C139     1.0000 0.97670  0.45830  0.25853  Biso   1.000  C
  C140     1.0000 0.48160  0.02330  0.92520  Biso   1.000  C
  C141     1.0000 0.54170  0.51840  0.59187  Biso   1.000  C
  C142     1.0000 0.02330  0.54170  0.75853  Biso   1.000  C
  C143     1.0000 0.51840  0.97670  0.42520  Biso   1.000  C
  C144     1.0000 0.45830  0.48160  0.09187  Biso   1.000  C
  H61      1.0000 0.46230  0.90350  0.08170  Biso   1.000  H
  H62      1.0000 0.09650  0.55880  0.41503  Biso   1.000  H
  H63      1.0000 0.44120  0.53770  0.74837  Biso   1.000  H
  H64      1.0000 0.53770  0.09650  0.58170  Biso   1.000  H
  H65      1.0000 0.90350  0.44120  0.91503  Biso   1.000  H
  H66      1.0000 0.55880  0.46230  0.24837  Biso   1.000  H
  H67      1.0000 0.90350  0.46230  0.25163  Biso   1.000  H
  H68      1.0000 0.55880  0.09650  0.91830  Biso   1.000  H
  H69      1.0000 0.53770  0.44120  0.58497  Biso   1.000  H
  H70      1.0000 0.09650  0.53770  0.75163  Biso   1.000  H
  H71      1.0000 0.44120  0.90350  0.41830  Biso   1.000  H
  H72      1.0000 0.46230  0.55880  0.08497  Biso   1.000  H
  C145     1.0000 0.95350  0.70820  0.07765  Biso   1.000  C
  C146     1.0000 0.29180  0.24530  0.41098  Biso   1.000  C
  C147     1.0000 0.75470  0.04650  0.74432  Biso   1.000  C
  C148     1.0000 0.04650  0.29180  0.57765  Biso   1.000  C
  C149     1.0000 0.70820  0.75470  0.91098  Biso   1.000  C
  C150     1.0000 0.24530  0.95350  0.24432  Biso   1.000  C
  C151     1.0000 0.70820  0.95350  0.25568  Biso   1.000  C
  C152     1.0000 0.24530  0.29180  0.92235  Biso   1.000  C
  C153     1.0000 0.04650  0.75470  0.58902  Biso   1.000  C
  C154     1.0000 0.29180  0.04650  0.75568  Biso   1.000  C
  C155     1.0000 0.75470  0.70820  0.42235  Biso   1.000  C
  C156     1.0000 0.95350  0.24530  0.08902  Biso   1.000  C
  H73      1.0000 0.87770  0.72690  0.08060  Biso   1.000  H
  H74      1.0000 0.27310  0.15080  0.41393  Biso   1.000  H
  H75      1.0000 0.84920  0.12230  0.74727  Biso   1.000  H
  H76      1.0000 0.12230  0.27310  0.58060  Biso   1.000  H
  H77      1.0000 0.72690  0.84920  0.91393  Biso   1.000  H
  H78      1.0000 0.15080  0.87770  0.24727  Biso   1.000  H
  H79      1.0000 0.72690  0.87770  0.25273  Biso   1.000  H
  H80      1.0000 0.15080  0.27310  0.91940  Biso   1.000  H
  H81      1.0000 0.12230  0.84920  0.58607  Biso   1.000  H
  H82      1.0000 0.27310  0.12230  0.75273  Biso   1.000  H
  H83      1.0000 0.84920  0.72690  0.41940  Biso   1.000  H
  H84      1.0000 0.87770  0.15080  0.08607  Biso   1.000  H
  H85      1.0000 0.96610  0.66340  0.09040  Biso   1.000  H
  H86      1.0000 0.33660  0.30270  0.42373  Biso   1.000  H
  H87      1.0000 0.69730  0.03390  0.75707  Biso   1.000  H
  H88      1.0000 0.03390  0.33660  0.59040  Biso   1.000  H
  H89      1.0000 0.66340  0.69730  0.92373  Biso   1.000  H
  H90      1.0000 0.30270  0.96610  0.25707  Biso   1.000  H
  H91      1.0000 0.66340  0.96610  0.24293  Biso   1.000  H
  H92      1.0000 0.30270  0.33660  0.90960  Biso   1.000  H
  H93      1.0000 0.03390  0.69730  0.57627  Biso   1.000  H
  H94      1.0000 0.33660  0.03390  0.74293  Biso   1.000  H
  H95      1.0000 0.69730  0.66340  0.40960  Biso   1.000  H
  H96      1.0000 0.96610  0.30270  0.07627  Biso   1.000  H
  C157     1.0000 0.91830  0.61520  0.05863  Biso   1.000  C
  C158     1.0000 0.38480  0.30310  0.39196  Biso   1.000  C
  C159     1.0000 0.69690  0.08170  0.72530  Biso   1.000  C
  C160     1.0000 0.08170  0.38480  0.55863  Biso   1.000  C
  C161     1.0000 0.61520  0.69690  0.89196  Biso   1.000  C
  C162     1.0000 0.30310  0.91830  0.22530  Biso   1.000  C
  C163     1.0000 0.61520  0.91830  0.27470  Biso   1.000  C
  C164     1.0000 0.30310  0.38480  0.94137  Biso   1.000  C
  C165     1.0000 0.08170  0.69690  0.60804  Biso   1.000  C
  C166     1.0000 0.38480  0.08170  0.77470  Biso   1.000  C
  C167     1.0000 0.69690  0.61520  0.44137  Biso   1.000  C
  C168     1.0000 0.91830  0.30310  0.10804  Biso   1.000  C
  C169     1.0000 0.98370  0.55010  0.05044  Biso   1.000  C
  C170     1.0000 0.44990  0.43360  0.38377  Biso   1.000  C
  C171     1.0000 0.56640  0.01630  0.71711  Biso   1.000  C
  C172     1.0000 0.01630  0.44990  0.55044  Biso   1.000  C
  C173     1.0000 0.55010  0.56640  0.88377  Biso   1.000  C
  C174     1.0000 0.43360  0.98370  0.21711  Biso   1.000  C
  C175     1.0000 0.55010  0.98370  0.28289  Biso   1.000  C
  C176     1.0000 0.43360  0.44990  0.94956  Biso   1.000  C
  C177     1.0000 0.01630  0.56640  0.61623  Biso   1.000  C
  C178     1.0000 0.44990  0.01630  0.78289  Biso   1.000  C
  C179     1.0000 0.56640  0.55010  0.44956  Biso   1.000  C
  C180     1.0000 0.98370  0.43360  0.11623  Biso   1.000  C
  H97      1.0000 0.05710  0.54300  0.05670  Biso   1.000  H
  H98      1.0000 0.45700  0.51410  0.39003  Biso   1.000  H
  H99      1.0000 0.48590  0.94290  0.72337  Biso   1.000  H
  H100     1.0000 0.94290  0.45700  0.55670  Biso   1.000  H
  H101     1.0000 0.54300  0.48590  0.89003  Biso   1.000  H
  H102     1.0000 0.51410  0.05710  0.22337  Biso   1.000  H
  H103     1.0000 0.54300  0.05710  0.27663  Biso   1.000  H
  H104     1.0000 0.51410  0.45700  0.94330  Biso   1.000  H
  H105     1.0000 0.94290  0.48590  0.60997  Biso   1.000  H
  H106     1.0000 0.45700  0.94290  0.77663  Biso   1.000  H
  H107     1.0000 0.48590  0.54300  0.44330  Biso   1.000  H
  H108     1.0000 0.05710  0.51410  0.10997  Biso   1.000  H
  C181     1.0000 0.95130  0.42700  0.01462  Biso   1.000  C
  C182     1.0000 0.57300  0.52430  0.34795  Biso   1.000  C
  C183     1.0000 0.47570  0.04870  0.68129  Biso   1.000  C
  C184     1.0000 0.04870  0.57300  0.51462  Biso   1.000  C
  C185     1.0000 0.42700  0.47570  0.84795  Biso   1.000  C
  C186     1.0000 0.52430  0.95130  0.18129  Biso   1.000  C
  C187     1.0000 0.42700  0.95130  0.31871  Biso   1.000  C
  C188     1.0000 0.52430  0.57300  0.98538  Biso   1.000  C
  C189     1.0000 0.04870  0.47570  0.65205  Biso   1.000  C
  C190     1.0000 0.57300  0.04870  0.81871  Biso   1.000  C
  C191     1.0000 0.47570  0.42700  0.48538  Biso   1.000  C
  C192     1.0000 0.95130  0.52430  0.15205  Biso   1.000  C
  H109     1.0000 0.90280  0.43350  0.00160  Biso   1.000  H
  H110     1.0000 0.56650  0.46930  0.33493  Biso   1.000  H
  H111     1.0000 0.53070  0.09720  0.66827  Biso   1.000  H
  H112     1.0000 0.09720  0.56650  0.50160  Biso   1.000  H
  H113     1.0000 0.43350  0.53070  0.83493  Biso   1.000  H
  H114     1.0000 0.46930  0.90280  0.16827  Biso   1.000  H
  H115     1.0000 0.43350  0.90280  0.33173  Biso   1.000  H
  H116     1.0000 0.46930  0.56650  0.99840  Biso   1.000  H
  H117     1.0000 0.09720  0.53070  0.66507  Biso   1.000  H
  H118     1.0000 0.56650  0.09720  0.83173  Biso   1.000  H
  H119     1.0000 0.53070  0.43350  0.49840  Biso   1.000  H
  H120     1.0000 0.90280  0.46930  0.16507  Biso   1.000  H
  C193     1.0000 0.10290  0.49480  0.00833  Biso   1.000  C
  C194     1.0000 0.50520  0.60810  0.34166  Biso   1.000  C
  C195     1.0000 0.39190  0.89710  0.67500  Biso   1.000  C
  C196     1.0000 0.89710  0.50520  0.50833  Biso   1.000  C
  C197     1.0000 0.49480  0.39190  0.84166  Biso   1.000  C
  C198     1.0000 0.60810  0.10290  0.17500  Biso   1.000  C
  C199     1.0000 0.49480  0.10290  0.32500  Biso   1.000  C
  C200     1.0000 0.60810  0.50520  0.99167  Biso   1.000  C
  C201     1.0000 0.89710  0.39190  0.65834  Biso   1.000  C
  C202     1.0000 0.50520  0.89710  0.82500  Biso   1.000  C
  C203     1.0000 0.39190  0.49480  0.49167  Biso   1.000  C
  C204     1.0000 0.10290  0.60810  0.15834  Biso   1.000  C
  H121     1.0000 0.11300  0.46300  0.99400  Biso   1.000  H
  H122     1.0000 0.53700  0.65000  0.32733  Biso   1.000  H
  H123     1.0000 0.35000  0.88700  0.66067  Biso   1.000  H
  H124     1.0000 0.88700  0.53700  0.49400  Biso   1.000  H
  H125     1.0000 0.46300  0.35000  0.82733  Biso   1.000  H
  H126     1.0000 0.65000  0.11300  0.16067  Biso   1.000  H
  H127     1.0000 0.46300  0.11300  0.33933  Biso   1.000  H
  H128     1.0000 0.65000  0.53700  0.00600  Biso   1.000  H
  H129     1.0000 0.88700  0.35000  0.67267  Biso   1.000  H
  H130     1.0000 0.53700  0.88700  0.83933  Biso   1.000  H
  H131     1.0000 0.35000  0.46300  0.50600  Biso   1.000  H
  H132     1.0000 0.11300  0.65000  0.17267  Biso   1.000  H
  H133     1.0000 0.14530  0.59630  0.00800  Biso   1.000  H
  H134     1.0000 0.40370  0.54900  0.34133  Biso   1.000  H
  H135     1.0000 0.45100  0.85470  0.67467  Biso   1.000  H
  H136     1.0000 0.85470  0.40370  0.50800  Biso   1.000  H
  H137     1.0000 0.59630  0.45100  0.84133  Biso   1.000  H
  H138     1.0000 0.54900  0.14530  0.17467  Biso   1.000  H
  H139     1.0000 0.59630  0.14530  0.32533  Biso   1.000  H
  H140     1.0000 0.54900  0.40370  0.99200  Biso   1.000  H
  H141     1.0000 0.85470  0.45100  0.65867  Biso   1.000  H
  H142     1.0000 0.40370  0.85470  0.82533  Biso   1.000  H
  H143     1.0000 0.45100  0.59630  0.49200  Biso   1.000  H
  H144     1.0000 0.14530  0.54900  0.15867  Biso   1.000  H
  O1       1.0000 0.16440  0.45480  0.02393  Biso   1.000  O
  O2       1.0000 0.54520  0.70960  0.35726  Biso   1.000  O
  O3       1.0000 0.29040  0.83560  0.69060  Biso   1.000  O
  O4       1.0000 0.83560  0.54520  0.52393  Biso   1.000  O
  O5       1.0000 0.45480  0.29040  0.85726  Biso   1.000  O
  O6       1.0000 0.70960  0.16440  0.19060  Biso   1.000  O
  O7       1.0000 0.45480  0.16440  0.30940  Biso   1.000  O
  O8       1.0000 0.70960  0.54520  0.97607  Biso   1.000  O
  O9       1.0000 0.83560  0.29040  0.64274  Biso   1.000  O
  O10      1.0000 0.54520  0.83560  0.80940  Biso   1.000  O
  O11      1.0000 0.29040  0.45480  0.47607  Biso   1.000  O
  O12      1.0000 0.16440  0.70960  0.14274  Biso   1.000  O
  H145     1.0000 0.23260  0.52070  0.02990  Biso   1.000  H
  H146     1.0000 0.47930  0.71190  0.36323  Biso   1.000  H
  H147     1.0000 0.28810  0.76740  0.69657  Biso   1.000  H
  H148     1.0000 0.76740  0.47930  0.52990  Biso   1.000  H
  H149     1.0000 0.52070  0.28810  0.86323  Biso   1.000  H
  H150     1.0000 0.71190  0.23260  0.19657  Biso   1.000  H
  H151     1.0000 0.52070  0.23260  0.30343  Biso   1.000  H
  H152     1.0000 0.71190  0.47930  0.97010  Biso   1.000  H
  H153     1.0000 0.76740  0.28810  0.63677  Biso   1.000  H
  H154     1.0000 0.47930  0.76740  0.80343  Biso   1.000  H
  H155     1.0000 0.28810  0.52070  0.47010  Biso   1.000  H
  H156     1.0000 0.23260  0.71190  0.13677  Biso   1.000  H
  C205     1.0000 0.88550  0.27230  0.01932  Biso   1.000  C
  C206     1.0000 0.72770  0.61320  0.35265  Biso   1.000  C
  C207     1.0000 0.38680  0.11450  0.68599  Biso   1.000  C
  C208     1.0000 0.11450  0.72770  0.51932  Biso   1.000  C
  C209     1.0000 0.27230  0.38680  0.85265  Biso   1.000  C
  C210     1.0000 0.61320  0.88550  0.18599  Biso   1.000  C
  C211     1.0000 0.27230  0.88550  0.31401  Biso   1.000  C
  C212     1.0000 0.61320  0.72770  0.98068  Biso   1.000  C
  C213     1.0000 0.11450  0.38680  0.64735  Biso   1.000  C
  C214     1.0000 0.72770  0.11450  0.81401  Biso   1.000  C
  C215     1.0000 0.38680  0.27230  0.48068  Biso   1.000  C
  C216     1.0000 0.88550  0.61320  0.14735  Biso   1.000  C
  C217     1.0000 0.97400  0.89220  0.00752  Biso   1.000  C
  C218     1.0000 0.10780  0.08180  0.34085  Biso   1.000  C
  C219     1.0000 0.91820  0.02600  0.67419  Biso   1.000  C
  C220     1.0000 0.02600  0.10780  0.50752  Biso   1.000  C
  C221     1.0000 0.89220  0.91820  0.84085  Biso   1.000  C
  C222     1.0000 0.08180  0.97400  0.17419  Biso   1.000  C
  C223     1.0000 0.89220  0.97400  0.32581  Biso   1.000  C
  C224     1.0000 0.08180  0.10780  0.99248  Biso   1.000  C
  C225     1.0000 0.02600  0.91820  0.65915  Biso   1.000  C
  C226     1.0000 0.10780  0.02600  0.82581  Biso   1.000  C
  C227     1.0000 0.91820  0.89220  0.49248  Biso   1.000  C
  C228     1.0000 0.97400  0.08180  0.15915  Biso   1.000  C
  H157     1.0000 0.89290  0.81510  0.01290  Biso   1.000  H
  H158     1.0000 0.18490  0.07780  0.34623  Biso   1.000  H
  H159     1.0000 0.92220  0.10710  0.67957  Biso   1.000  H
  H160     1.0000 0.10710  0.18490  0.51290  Biso   1.000  H
  H161     1.0000 0.81510  0.92220  0.84623  Biso   1.000  H
  H162     1.0000 0.07780  0.89290  0.17957  Biso   1.000  H
  H163     1.0000 0.81510  0.89290  0.32043  Biso   1.000  H
  H164     1.0000 0.07780  0.18490  0.98710  Biso   1.000  H
  H165     1.0000 0.10710  0.92220  0.65377  Biso   1.000  H
  H166     1.0000 0.18490  0.10710  0.82043  Biso   1.000  H
  H167     1.0000 0.92220  0.81510  0.48710  Biso   1.000  H
  H168     1.0000 0.89290  0.07780  0.15377  Biso   1.000  H
  C229     1.0000 0.09640  0.88860  0.00774  Biso   1.000  C
  C230     1.0000 0.11140  0.20780  0.34107  Biso   1.000  C
  C231     1.0000 0.79220  0.90360  0.67441  Biso   1.000  C
  C232     1.0000 0.90360  0.11140  0.50774  Biso   1.000  C
  C233     1.0000 0.88860  0.79220  0.84107  Biso   1.000  C
  C234     1.0000 0.20780  0.09640  0.17441  Biso   1.000  C
  C235     1.0000 0.88860  0.09640  0.32559  Biso   1.000  C
  C236     1.0000 0.20780  0.11140  0.99226  Biso   1.000  C
  C237     1.0000 0.90360  0.79220  0.65893  Biso   1.000  C
  C238     1.0000 0.11140  0.90360  0.82559  Biso   1.000  C
  C239     1.0000 0.79220  0.88860  0.49226  Biso   1.000  C
  C240     1.0000 0.09640  0.20780  0.15893  Biso   1.000  C
  H169     1.0000 0.09730  0.81000  0.01320  Biso   1.000  H
  H170     1.0000 0.19000  0.28730  0.34653  Biso   1.000  H
  H171     1.0000 0.71270  0.90270  0.67987  Biso   1.000  H
  H172     1.0000 0.90270  0.19000  0.51320  Biso   1.000  H
  H173     1.0000 0.81000  0.71270  0.84653  Biso   1.000  H
  H174     1.0000 0.28730  0.09730  0.17987  Biso   1.000  H
  H175     1.0000 0.81000  0.09730  0.32013  Biso   1.000  H
  H176     1.0000 0.28730  0.19000  0.98680  Biso   1.000  H
  H177     1.0000 0.90270  0.71270  0.65347  Biso   1.000  H
  H178     1.0000 0.19000  0.90270  0.82013  Biso   1.000  H
  H179     1.0000 0.71270  0.81000  0.48680  Biso   1.000  H
  H180     1.0000 0.09730  0.28730  0.15347  Biso   1.000  H
  C241     1.0000 0.21740  0.00000  0.00000  Biso   1.000  C
  C242     1.0000 0.00000  0.21740  0.33333  Biso   1.000  C
  C243     1.0000 0.78260  0.78260  0.66667  Biso   1.000  C
  C244     1.0000 0.78260  0.00000  0.50000  Biso   1.000  C
  C245     1.0000 0.00000  0.78260  0.83333  Biso   1.000  C
  C246     1.0000 0.21740  0.21740  0.16667  Biso   1.000  C
  C247     1.0000 0.35060  0.00000  0.00000  Biso   1.000  C
  C248     1.0000 0.00000  0.35060  0.33333  Biso   1.000  C
  C249     1.0000 0.64940  0.64940  0.66667  Biso   1.000  C
  C250     1.0000 0.64940  0.00000  0.50000  Biso   1.000  C
  C251     1.0000 0.00000  0.64940  0.83333  Biso   1.000  C
  C252     1.0000 0.35060  0.35060  0.16667  Biso   1.000  C
  C253     1.0000 0.37740  0.92390  0.01479  Biso   1.000  C
  C254     1.0000 0.07610  0.45350  0.34812  Biso   1.000  C
  C255     1.0000 0.54650  0.62260  0.68146  Biso   1.000  C
  C256     1.0000 0.62260  0.07610  0.51479  Biso   1.000  C
  C257     1.0000 0.92390  0.54650  0.84812  Biso   1.000  C
  C258     1.0000 0.45350  0.37740  0.18146  Biso   1.000  C
  C259     1.0000 0.92390  0.37740  0.31854  Biso   1.000  C
  C260     1.0000 0.45350  0.07610  0.98521  Biso   1.000  C
  C261     1.0000 0.62260  0.54650  0.65188  Biso   1.000  C
  C262     1.0000 0.07610  0.62260  0.81854  Biso   1.000  C
  C263     1.0000 0.54650  0.92390  0.48521  Biso   1.000  C
  C264     1.0000 0.37740  0.45350  0.15188  Biso   1.000  C
  H181     1.0000 0.31020  0.87000  0.02520  Biso   1.000  H
  H182     1.0000 0.13000  0.44020  0.35853  Biso   1.000  H
  H183     1.0000 0.55980  0.68980  0.69187  Biso   1.000  H
  H184     1.0000 0.68980  0.13000  0.52520  Biso   1.000  H
  H185     1.0000 0.87000  0.55980  0.85853  Biso   1.000  H
  H186     1.0000 0.44020  0.31020  0.19187  Biso   1.000  H
  H187     1.0000 0.87000  0.31020  0.30813  Biso   1.000  H
  H188     1.0000 0.44020  0.13000  0.97480  Biso   1.000  H
  H189     1.0000 0.68980  0.55980  0.64147  Biso   1.000  H
  H190     1.0000 0.13000  0.68980  0.80813  Biso   1.000  H
  H191     1.0000 0.55980  0.87000  0.47480  Biso   1.000  H
  H192     1.0000 0.31020  0.44020  0.14147  Biso   1.000  H
  C265     1.0000 0.50140  0.92680  0.01432  Biso   1.000  C
  C266     1.0000 0.07320  0.57460  0.34765  Biso   1.000  C
  C267     1.0000 0.42540  0.49860  0.68099  Biso   1.000  C
  C268     1.0000 0.49860  0.07320  0.51432  Biso   1.000  C
  C269     1.0000 0.92680  0.42540  0.84765  Biso   1.000  C
  C270     1.0000 0.57460  0.50140  0.18099  Biso   1.000  C
  C271     1.0000 0.92680  0.50140  0.31901  Biso   1.000  C
  C272     1.0000 0.57460  0.07320  0.98568  Biso   1.000  C
  C273     1.0000 0.49860  0.42540  0.65235  Biso   1.000  C
  C274     1.0000 0.07320  0.49860  0.81901  Biso   1.000  C
  C275     1.0000 0.42540  0.92680  0.48568  Biso   1.000  C
  C276     1.0000 0.50140  0.57460  0.15235  Biso   1.000  C
  H193     1.0000 0.51770  0.87440  0.02460  Biso   1.000  H
  H194     1.0000 0.12560  0.64330  0.35793  Biso   1.000  H
  H195     1.0000 0.35670  0.48230  0.69127  Biso   1.000  H
  H196     1.0000 0.48230  0.12560  0.52460  Biso   1.000  H
  H197     1.0000 0.87440  0.35670  0.85793  Biso   1.000  H
  H198     1.0000 0.64330  0.51770  0.19127  Biso   1.000  H
  H199     1.0000 0.87440  0.51770  0.30873  Biso   1.000  H
  H200     1.0000 0.64330  0.12560  0.97540  Biso   1.000  H
  H201     1.0000 0.48230  0.35670  0.64207  Biso   1.000  H
  H202     1.0000 0.12560  0.48230  0.80873  Biso   1.000  H
  H203     1.0000 0.35670  0.87440  0.47540  Biso   1.000  H
  H204     1.0000 0.51770  0.64330  0.14207  Biso   1.000  H
  N1       1.0000 0.08200  0.83900  0.07318  Biso   1.000  N
  N2       1.0000 0.16100  0.24300  0.40651  Biso   1.000  N
  N3       1.0000 0.75700  0.91800  0.73985  Biso   1.000  N
  N4       1.0000 0.91800  0.16100  0.57318  Biso   1.000  N
  N5       1.0000 0.83900  0.75700  0.90651  Biso   1.000  N
  N6       1.0000 0.24300  0.08200  0.23985  Biso   1.000  N
  N7       1.0000 0.83900  0.08200  0.26015  Biso   1.000  N
  N8       1.0000 0.24300  0.16100  0.92682  Biso   1.000  N
  N9       1.0000 0.91800  0.75700  0.59349  Biso   1.000  N
  N10      1.0000 0.16100  0.91800  0.76015  Biso   1.000  N
  N11      1.0000 0.75700  0.83900  0.42682  Biso   1.000  N
  N12      1.0000 0.08200  0.24300  0.09349  Biso   1.000  N
  N13      1.0000 0.81790  0.59820  0.04475  Biso   1.000  N
  N14      1.0000 0.40180  0.21970  0.37808  Biso   1.000  N
  N15      1.0000 0.78030  0.18210  0.71142  Biso   1.000  N
  N16      1.0000 0.18210  0.40180  0.54475  Biso   1.000  N
  N17      1.0000 0.59820  0.78030  0.87808  Biso   1.000  N
  N18      1.0000 0.21970  0.81790  0.21142  Biso   1.000  N
  N19      1.0000 0.59820  0.81790  0.28858  Biso   1.000  N
  N20      1.0000 0.21970  0.40180  0.95525  Biso   1.000  N
  N21      1.0000 0.18210  0.78030  0.62192  Biso   1.000  N
  N22      1.0000 0.40180  0.18210  0.78858  Biso   1.000  N
  N23      1.0000 0.78030  0.59820  0.45525  Biso   1.000  N
  N24      1.0000 0.81790  0.21970  0.12192  Biso   1.000  N
  N25      1.0000 0.82010  0.52640  0.02818  Biso   1.000  N
  N26      1.0000 0.47360  0.29370  0.36151  Biso   1.000  N
  N27      1.0000 0.70630  0.17990  0.69485  Biso   1.000  N
  N28      1.0000 0.17990  0.47360  0.52818  Biso   1.000  N
  N29      1.0000 0.52640  0.70630  0.86151  Biso   1.000  N
  N30      1.0000 0.29370  0.82010  0.19485  Biso   1.000  N
  N31      1.0000 0.52640  0.82010  0.30515  Biso   1.000  N
  N32      1.0000 0.29370  0.47360  0.97182  Biso   1.000  N
  N33      1.0000 0.17990  0.70630  0.63849  Biso   1.000  N
  N34      1.0000 0.47360  0.17990  0.80515  Biso   1.000  N
  N35      1.0000 0.70630  0.52640  0.47182  Biso   1.000  N
  N36      1.0000 0.82010  0.29370  0.13849  Biso   1.000  N
  N37      1.0000 0.92150  0.49830  0.03152  Biso   1.000  N
  N38      1.0000 0.50170  0.42320  0.36485  Biso   1.000  N
  N39      1.0000 0.57680  0.07850  0.69819  Biso   1.000  N
  N40      1.0000 0.07850  0.50170  0.53152  Biso   1.000  N
  N41      1.0000 0.49830  0.57680  0.86485  Biso   1.000  N
  N42      1.0000 0.42320  0.92150  0.19819  Biso   1.000  N
  N43      1.0000 0.49830  0.92150  0.30181  Biso   1.000  N
  N44      1.0000 0.42320  0.50170  0.96848  Biso   1.000  N
  N45      1.0000 0.07850  0.57680  0.63515  Biso   1.000  N
  N46      1.0000 0.50170  0.07850  0.80181  Biso   1.000  N
  N47      1.0000 0.57680  0.49830  0.46848  Biso   1.000  N
  N48      1.0000 0.92150  0.42320  0.13515  Biso   1.000  N
  N49      1.0000 0.96590  0.00000  0.00000  Biso   1.000  N
  N50      1.0000 0.00000  0.96590  0.33333  Biso   1.000  N
  N51      1.0000 0.03410  0.03410  0.66667  Biso   1.000  N
  N52      1.0000 0.03410  0.00000  0.50000  Biso   1.000  N
  N53      1.0000 0.00000  0.03410  0.83333  Biso   1.000  N
  N54      1.0000 0.96590  0.96590  0.16667  Biso   1.000  N
  N55      1.0000 0.60020  0.00000  0.00000  Biso   1.000  N
  N56      1.0000 0.00000  0.60020  0.33333  Biso   1.000  N
  N57      1.0000 0.39980  0.39980  0.66667  Biso   1.000  N
  N58      1.0000 0.39980  0.00000  0.50000  Biso   1.000  N
  N59      1.0000 0.00000  0.39980  0.83333  Biso   1.000  N
  N60      1.0000 0.60020  0.60020  0.16667  Biso   1.000  N
  O13      1.0000 0.95640  0.92650  0.05930  Biso   1.000  O
  O14      1.0000 0.07350  0.02990  0.39263  Biso   1.000  O
  O15      1.0000 0.97010  0.04360  0.72597  Biso   1.000  O
  O16      1.0000 0.04360  0.07350  0.55930  Biso   1.000  O
  O17      1.0000 0.92650  0.97010  0.89263  Biso   1.000  O
  O18      1.0000 0.02990  0.95640  0.22597  Biso   1.000  O
  O19      1.0000 0.92650  0.95640  0.27403  Biso   1.000  O
  O20      1.0000 0.02990  0.07350  0.94070  Biso   1.000  O
  O21      1.0000 0.04360  0.97010  0.60737  Biso   1.000  O
  O22      1.0000 0.07350  0.04360  0.77403  Biso   1.000  O
  O23      1.0000 0.97010  0.92650  0.44070  Biso   1.000  O
  O24      1.0000 0.95640  0.02990  0.10737  Biso   1.000  O
  O25      1.0000 0.20330  0.74270  0.08589  Biso   1.000  O
  O26      1.0000 0.25730  0.46060  0.41922  Biso   1.000  O
  O27      1.0000 0.53940  0.79670  0.75256  Biso   1.000  O
  O28      1.0000 0.79670  0.25730  0.58589  Biso   1.000  O
  O29      1.0000 0.74270  0.53940  0.91922  Biso   1.000  O
  O30      1.0000 0.46060  0.20330  0.25256  Biso   1.000  O
  O31      1.0000 0.74270  0.20330  0.24744  Biso   1.000  O
  O32      1.0000 0.46060  0.25730  0.91411  Biso   1.000  O
  O33      1.0000 0.79670  0.53940  0.58078  Biso   1.000  O
  O34      1.0000 0.25730  0.79670  0.74744  Biso   1.000  O
  O35      1.0000 0.53940  0.74270  0.41411  Biso   1.000  O
  O36      1.0000 0.20330  0.46060  0.08078  Biso   1.000  O
  O37      1.0000 0.88130  0.20319  0.00288  Biso   1.000  O
  O38      1.0000 0.79681  0.67811  0.33621  Biso   1.000  O
  O39      1.0000 0.32189  0.11870  0.66955  Biso   1.000  O
  O40      1.0000 0.11870  0.79681  0.50288  Biso   1.000  O
  O41      1.0000 0.20319  0.32189  0.83621  Biso   1.000  O
  O42      1.0000 0.67811  0.88130  0.16955  Biso   1.000  O
  O43      1.0000 0.20319  0.88130  0.33045  Biso   1.000  O
  O44      1.0000 0.67811  0.79681  0.99712  Biso   1.000  O
  O45      1.0000 0.11870  0.32189  0.66379  Biso   1.000  O
  O46      1.0000 0.79681  0.11870  0.83045  Biso   1.000  O
  O47      1.0000 0.32189  0.20319  0.49712  Biso   1.000  O
  O48      1.0000 0.88130  0.67811  0.16379  Biso   1.000  O
  O49      1.0000 0.84670  0.22980  0.03753  Biso   1.000  O
  O50      1.0000 0.77020  0.61690  0.37086  Biso   1.000  O
  O51      1.0000 0.38310  0.15330  0.70420  Biso   1.000  O
  O52      1.0000 0.15330  0.77020  0.53753  Biso   1.000  O
  O53      1.0000 0.22980  0.38310  0.87086  Biso   1.000  O
  O54      1.0000 0.61690  0.84670  0.20420  Biso   1.000  O
  O55      1.0000 0.22980  0.84670  0.29580  Biso   1.000  O
  O56      1.0000 0.61690  0.77020  0.96247  Biso   1.000  O
  O57      1.0000 0.15330  0.38310  0.62914  Biso   1.000  O
  O58      1.0000 0.77020  0.15330  0.79580  Biso   1.000  O
  O59      1.0000 0.38310  0.22980  0.46247  Biso   1.000  O
  O60      1.0000 0.84670  0.61690  0.12914  Biso   1.000  O
  O61      1.0000 0.76100  0.96170  0.03791  Biso   1.000  O
  O62      1.0000 0.03830  0.79930  0.37124  Biso   1.000  O
  O63      1.0000 0.20070  0.23900  0.70458  Biso   1.000  O
  O64      1.0000 0.23900  0.03830  0.53791  Biso   1.000  O
  O65      1.0000 0.96170  0.20070  0.87124  Biso   1.000  O
  O66      1.0000 0.79930  0.76100  0.20458  Biso   1.000  O
  O67      1.0000 0.96170  0.76100  0.29542  Biso   1.000  O
  O68      1.0000 0.79930  0.03830  0.96209  Biso   1.000  O
  O69      1.0000 0.23900  0.20070  0.62876  Biso   1.000  O
  O70      1.0000 0.03830  0.23900  0.79542  Biso   1.000  O
  O71      1.0000 0.20070  0.96170  0.46209  Biso   1.000  O
  O72      1.0000 0.76100  0.79930  0.12876  Biso   1.000  O
  H205     1.0000 0.79100  0.04300  0.03940  Biso   1.000  H
  H206     1.0000 0.95700  0.74800  0.37273  Biso   1.000  H
  H207     1.0000 0.25200  0.20900  0.70607  Biso   1.000  H
  H208     1.0000 0.20900  0.95700  0.53940  Biso   1.000  H
  H209     1.0000 0.04300  0.25200  0.87273  Biso   1.000  H
  H210     1.0000 0.74800  0.79100  0.20607  Biso   1.000  H
  H211     1.0000 0.04300  0.79100  0.29393  Biso   1.000  H
  H212     1.0000 0.74800  0.95700  0.96060  Biso   1.000  H
  H213     1.0000 0.20900  0.25200  0.62727  Biso   1.000  H
  H214     1.0000 0.95700  0.20900  0.79393  Biso   1.000  H
  H215     1.0000 0.25200  0.04300  0.46060  Biso   1.000  H
  H216     1.0000 0.79100  0.74800  0.12727  Biso   1.000  H
  H217     1.0000 0.82200  0.95600  0.04360  Biso   1.000  H
  H218     1.0000 0.04400  0.86600  0.37693  Biso   1.000  H
  H219     1.0000 0.13400  0.17800  0.71027  Biso   1.000  H
  H220     1.0000 0.17800  0.04400  0.54360  Biso   1.000  H
  H221     1.0000 0.95600  0.13400  0.87693  Biso   1.000  H
  H222     1.0000 0.86600  0.82200  0.21027  Biso   1.000  H
  H223     1.0000 0.95600  0.82200  0.28973  Biso   1.000  H
  H224     1.0000 0.86600  0.04400  0.95640  Biso   1.000  H
  H225     1.0000 0.17800  0.13400  0.62307  Biso   1.000  H
  H226     1.0000 0.04400  0.17800  0.78973  Biso   1.000  H
  H227     1.0000 0.13400  0.95600  0.45640  Biso   1.000  H
  H228     1.0000 0.82200  0.86600  0.12307  Biso   1.000  H
  O73      1.0000 0.35920  0.69560  0.11845  Biso   1.000  O
  O74      1.0000 0.30440  0.66360  0.45178  Biso   1.000  O
  O75      1.0000 0.33640  0.64080  0.78512  Biso   1.000  O
  O76      1.0000 0.64080  0.30440  0.61845  Biso   1.000  O
  O77      1.0000 0.69560  0.33640  0.95178  Biso   1.000  O
  O78      1.0000 0.66360  0.35920  0.28512  Biso   1.000  O
  O79      1.0000 0.69560  0.35920  0.21488  Biso   1.000  O
  O80      1.0000 0.66360  0.30440  0.88155  Biso   1.000  O
  O81      1.0000 0.64080  0.33640  0.54822  Biso   1.000  O
  O82      1.0000 0.30440  0.64080  0.71488  Biso   1.000  O
  O83      1.0000 0.33640  0.69560  0.38155  Biso   1.000  O
  O84      1.0000 0.35920  0.66360  0.04822  Biso   1.000  O
  H229     1.0000 0.32180  0.69010  0.10660  Biso   1.000  H
  H230     1.0000 0.30990  0.63170  0.43993  Biso   1.000  H
  H231     1.0000 0.36830  0.67820  0.77327  Biso   1.000  H
  H232     1.0000 0.67820  0.30990  0.60660  Biso   1.000  H
  H233     1.0000 0.69010  0.36830  0.93993  Biso   1.000  H
  H234     1.0000 0.63170  0.32180  0.27327  Biso   1.000  H
  H235     1.0000 0.69010  0.32180  0.22673  Biso   1.000  H
  H236     1.0000 0.63170  0.30990  0.89340  Biso   1.000  H
  H237     1.0000 0.67820  0.36830  0.56007  Biso   1.000  H
  H238     1.0000 0.30990  0.67820  0.72673  Biso   1.000  H
  H239     1.0000 0.36830  0.69010  0.39340  Biso   1.000  H
  H240     1.0000 0.32180  0.63170  0.06007  Biso   1.000  H
  H241     1.0000 0.42470  0.77720  0.11870  Biso   1.000  H
  H242     1.0000 0.22280  0.64750  0.45203  Biso   1.000  H
  H243     1.0000 0.35250  0.57530  0.78537  Biso   1.000  H
  H244     1.0000 0.57530  0.22280  0.61870  Biso   1.000  H
  H245     1.0000 0.77720  0.35250  0.95203  Biso   1.000  H
  H246     1.0000 0.64750  0.42470  0.28537  Biso   1.000  H
  H247     1.0000 0.77720  0.42470  0.21463  Biso   1.000  H
  H248     1.0000 0.64750  0.22280  0.88130  Biso   1.000  H
  H249     1.0000 0.57530  0.35250  0.54797  Biso   1.000  H
  H250     1.0000 0.22280  0.57530  0.71463  Biso   1.000  H
  H251     1.0000 0.35250  0.77720  0.38130  Biso   1.000  H
  H252     1.0000 0.42470  0.64750  0.04797  Biso   1.000  H
  O85      1.0000 0.58930  0.94310  0.12929  Biso   1.000  O
  O86      1.0000 0.05690  0.64620  0.46262  Biso   1.000  O
  O87      1.0000 0.35380  0.41070  0.79596  Biso   1.000  O
  O88      1.0000 0.41070  0.05690  0.62929  Biso   1.000  O
  O89      1.0000 0.94310  0.35380  0.96262  Biso   1.000  O
  O90      1.0000 0.64620  0.58930  0.29596  Biso   1.000  O
  O91      1.0000 0.94310  0.58930  0.20404  Biso   1.000  O
  O92      1.0000 0.64620  0.05690  0.87071  Biso   1.000  O
  O93      1.0000 0.41070  0.35380  0.53738  Biso   1.000  O
  O94      1.0000 0.05690  0.41070  0.70404  Biso   1.000  O
  O95      1.0000 0.35380  0.94310  0.37071  Biso   1.000  O
  O96      1.0000 0.58930  0.64620  0.03738  Biso   1.000  O
  O97      1.0000 0.63440  0.81720  0.08330  Biso   1.000  O
  O98      1.0000 0.18280  0.81720  0.41663  Biso   1.000  O
  O99      1.0000 0.18280  0.36560  0.74997  Biso   1.000  O
  O100     1.0000 0.36560  0.18280  0.58330  Biso   1.000  O
  O101     1.0000 0.81720  0.18280  0.91663  Biso   1.000  O
  O102     1.0000 0.81720  0.63440  0.24997  Biso   1.000  O
  C277     1.0000 0.10490  0.47430  0.01605  Biso   1.000  C
  C278     1.0000 0.52570  0.63060  0.34938  Biso   1.000  C
  C279     1.0000 0.36940  0.89510  0.68272  Biso   1.000  C
  C280     1.0000 0.89510  0.52570  0.51605  Biso   1.000  C
  C281     1.0000 0.47430  0.36940  0.84938  Biso   1.000  C
  C282     1.0000 0.63060  0.10490  0.18272  Biso   1.000  C
  C283     1.0000 0.47430  0.10490  0.31728  Biso   1.000  C
  C284     1.0000 0.63060  0.52570  0.98395  Biso   1.000  C
  C285     1.0000 0.89510  0.36940  0.65062  Biso   1.000  C
  C286     1.0000 0.52570  0.89510  0.81728  Biso   1.000  C
  C287     1.0000 0.36940  0.47430  0.48395  Biso   1.000  C
  C288     1.0000 0.10490  0.63060  0.15062  Biso   1.000  C
  H253     1.0000 0.92520  0.44480  0.00020  Biso   1.000  H
  H254     1.0000 0.55520  0.48040  0.33353  Biso   1.000  H
  H255     1.0000 0.51960  0.07480  0.66687  Biso   1.000  H
  H256     1.0000 0.07480  0.55520  0.50020  Biso   1.000  H
  H257     1.0000 0.44480  0.51960  0.83353  Biso   1.000  H
  H258     1.0000 0.48040  0.92520  0.16687  Biso   1.000  H
  H259     1.0000 0.44480  0.92520  0.33313  Biso   1.000  H
  H260     1.0000 0.48040  0.55520  0.99980  Biso   1.000  H
  H261     1.0000 0.07480  0.51960  0.66647  Biso   1.000  H
  H262     1.0000 0.55520  0.07480  0.83313  Biso   1.000  H
  H263     1.0000 0.51960  0.44480  0.49980  Biso   1.000  H
  H264     1.0000 0.92520  0.48040  0.16647  Biso   1.000  H
  H265     1.0000 0.12340  0.44360  0.02990  Biso   1.000  H
  H266     1.0000 0.55640  0.67980  0.36323  Biso   1.000  H
  H267     1.0000 0.32020  0.87660  0.69657  Biso   1.000  H
  H268     1.0000 0.87660  0.55640  0.52990  Biso   1.000  H
  H269     1.0000 0.44360  0.32020  0.86323  Biso   1.000  H
  H270     1.0000 0.67980  0.12340  0.19657  Biso   1.000  H
  H271     1.0000 0.44360  0.12340  0.30343  Biso   1.000  H
  H272     1.0000 0.67980  0.55640  0.97010  Biso   1.000  H
  H273     1.0000 0.87660  0.32020  0.63677  Biso   1.000  H
  H274     1.0000 0.55640  0.87660  0.80343  Biso   1.000  H
  H275     1.0000 0.32020  0.44360  0.47010  Biso   1.000  H
  H276     1.0000 0.12340  0.67980  0.13677  Biso   1.000  H
  H277     1.0000 0.12890  0.42970  0.00450  Biso   1.000  H
  H278     1.0000 0.57030  0.69920  0.33783  Biso   1.000  H
  H279     1.0000 0.30080  0.87110  0.67117  Biso   1.000  H
  H280     1.0000 0.87110  0.57030  0.50450  Biso   1.000  H
  H281     1.0000 0.42970  0.30080  0.83783  Biso   1.000  H
  H282     1.0000 0.69920  0.12890  0.17117  Biso   1.000  H
  H283     1.0000 0.42970  0.12890  0.32883  Biso   1.000  H
  H284     1.0000 0.69920  0.57030  0.99550  Biso   1.000  H
  H285     1.0000 0.87110  0.30080  0.66217  Biso   1.000  H
  H286     1.0000 0.57030  0.87110  0.82883  Biso   1.000  H
  H287     1.0000 0.30080  0.42970  0.49550  Biso   1.000  H
  H288     1.0000 0.12890  0.69920  0.16217  Biso   1.000  H
  H289     1.0000 0.25920  0.64630  0.02210  Biso   1.000  H
  H290     1.0000 0.35370  0.61290  0.35543  Biso   1.000  H
  H291     1.0000 0.38710  0.74080  0.68877  Biso   1.000  H
  H292     1.0000 0.74080  0.35370  0.52210  Biso   1.000  H
  H293     1.0000 0.64630  0.38710  0.85543  Biso   1.000  H
  H294     1.0000 0.61290  0.25920  0.18877  Biso   1.000  H
  H295     1.0000 0.64630  0.25920  0.31123  Biso   1.000  H
  H296     1.0000 0.61290  0.35370  0.97790  Biso   1.000  H
  H297     1.0000 0.74080  0.38710  0.64457  Biso   1.000  H
  H298     1.0000 0.35370  0.74080  0.81123  Biso   1.000  H
  H299     1.0000 0.38710  0.64630  0.47790  Biso   1.000  H
  H300     1.0000 0.25920  0.61290  0.14457  Biso   1.000  H
  O103     1.0000 0.60980  0.92500  0.11780  Biso   1.000  O
  O104     1.0000 0.07500  0.68480  0.45113  Biso   1.000  O
  O105     1.0000 0.31520  0.39020  0.78447  Biso   1.000  O
  O106     1.0000 0.39020  0.07500  0.61780  Biso   1.000  O
  O107     1.0000 0.92500  0.31520  0.95113  Biso   1.000  O
  O108     1.0000 0.68480  0.60980  0.28447  Biso   1.000  O
  O109     1.0000 0.92500  0.60980  0.21553  Biso   1.000  O
  O110     1.0000 0.68480  0.07500  0.88220  Biso   1.000  O
  O111     1.0000 0.39020  0.31520  0.54887  Biso   1.000  O
  O112     1.0000 0.07500  0.39020  0.71553  Biso   1.000  O
  O113     1.0000 0.31520  0.92500  0.38220  Biso   1.000  O
  O114     1.0000 0.60980  0.68480  0.04887  Biso   1.000  O
  O115     1.0000 0.18880  0.61680  0.01437  Biso   1.000  O
  O116     1.0000 0.38320  0.57200  0.34770  Biso   1.000  O
  O117     1.0000 0.42800  0.81120  0.68104  Biso   1.000  O
  O118     1.0000 0.81120  0.38320  0.51437  Biso   1.000  O
  O119     1.0000 0.61680  0.42800  0.84770  Biso   1.000  O
  O120     1.0000 0.57200  0.18880  0.18104  Biso   1.000  O
  O121     1.0000 0.61680  0.18880  0.31896  Biso   1.000  O
  O122     1.0000 0.57200  0.38320  0.98563  Biso   1.000  O
  O123     1.0000 0.81120  0.42800  0.65230  Biso   1.000  O
  O124     1.0000 0.38320  0.81120  0.81896  Biso   1.000  O
  O125     1.0000 0.42800  0.61680  0.48563  Biso   1.000  O
  O126     1.0000 0.18880  0.57200  0.15230  Biso   1.000  O
