data_image0
_cell_length_a       18.775
_cell_length_b       18.775
_cell_length_c       19.672
_cell_angle_alpha    90
_cell_angle_beta     90
_cell_angle_gamma    90

_symmetry_space_group_name_H-M    "P 1"
_symmetry_int_tables_number       1

loop_
  _symmetry_equiv_pos_as_xyz
  'x, y, z'

loop_
  _atom_site_label
  _atom_site_occupancy
  _atom_site_fract_x
  _atom_site_fract_y
  _atom_site_fract_z
  _atom_site_thermal_displace_type
  _atom_site_B_iso_or_equiv
  _atom_site_type_symbol
  I1       1.0000 0.68190  0.81350  0.37271  Biso   1.000  I
  I2       1.0000 0.93650  0.93190  0.62271  Biso   1.000  I
  I3       1.0000 0.31810  0.68650  0.37271  Biso   1.000  I
  I4       1.0000 0.06350  0.56810  0.62271  Biso   1.000  I
  I5       1.0000 0.18190  0.31350  0.87271  Biso   1.000  I
  I6       1.0000 0.43650  0.43190  0.12271  Biso   1.000  I
  I7       1.0000 0.81810  0.18650  0.87271  Biso   1.000  I
  I8       1.0000 0.56350  0.06810  0.12271  Biso   1.000  I
  I9       1.0000 0.31810  0.18650  0.62729  Biso   1.000  I
  I10      1.0000 0.56350  0.56810  0.87729  Biso   1.000  I
  I11      1.0000 0.68190  0.31350  0.62729  Biso   1.000  I
  I12      1.0000 0.43650  0.93190  0.87729  Biso   1.000  I
  I13      1.0000 0.81810  0.68650  0.12729  Biso   1.000  I
  I14      1.0000 0.06350  0.06810  0.37729  Biso   1.000  I
  I15      1.0000 0.18190  0.81350  0.12729  Biso   1.000  I
  I16      1.0000 0.93650  0.43190  0.37729  Biso   1.000  I
  I17      1.0000 0.90294  0.49378  0.86430  Biso   1.000  I
  I18      1.0000 0.25622  0.15294  0.11430  Biso   1.000  I
  I19      1.0000 0.09706  0.00622  0.86430  Biso   1.000  I
  I20      1.0000 0.74378  0.34706  0.11430  Biso   1.000  I
  I21      1.0000 0.40294  0.99378  0.36430  Biso   1.000  I
  I22      1.0000 0.75622  0.65294  0.61430  Biso   1.000  I
  I23      1.0000 0.59706  0.50622  0.36430  Biso   1.000  I
  I24      1.0000 0.24378  0.84706  0.61430  Biso   1.000  I
  I25      1.0000 0.09706  0.50622  0.13570  Biso   1.000  I
  I26      1.0000 0.24378  0.34706  0.38570  Biso   1.000  I
  I27      1.0000 0.90294  0.99378  0.13570  Biso   1.000  I
  I28      1.0000 0.75622  0.15294  0.38570  Biso   1.000  I
  I29      1.0000 0.59706  0.00622  0.63570  Biso   1.000  I
  I30      1.0000 0.74378  0.84706  0.88570  Biso   1.000  I
  I31      1.0000 0.40294  0.49378  0.63570  Biso   1.000  I
  I32      1.0000 0.25622  0.65294  0.88570  Biso   1.000  I
  Cu1      1.0000 0.50000  0.25000  0.44259  Biso   1.000  Cu
  Cu2      1.0000 0.50000  0.75000  0.69259  Biso   1.000  Cu
  Cu3      1.0000 0.00000  0.75000  0.94259  Biso   1.000  Cu
  Cu4      1.0000 0.00000  0.25000  0.19259  Biso   1.000  Cu
  Cu5      1.0000 0.50000  0.75000  0.55741  Biso   1.000  Cu
  Cu6      1.0000 0.00000  0.75000  0.80741  Biso   1.000  Cu
  Cu7      1.0000 0.00000  0.25000  0.05741  Biso   1.000  Cu
  Cu8      1.0000 0.50000  0.25000  0.30741  Biso   1.000  Cu
  Cu9      1.0000 0.50000  0.25000  0.80814  Biso   1.000  Cu
  Cu10     1.0000 0.50000  0.75000  0.05814  Biso   1.000  Cu
  Cu11     1.0000 0.00000  0.75000  0.30814  Biso   1.000  Cu
  Cu12     1.0000 0.00000  0.25000  0.55814  Biso   1.000  Cu
  Cu13     1.0000 0.50000  0.75000  0.19186  Biso   1.000  Cu
  Cu14     1.0000 0.00000  0.75000  0.44186  Biso   1.000  Cu
  Cu15     1.0000 0.00000  0.25000  0.69186  Biso   1.000  Cu
  Cu16     1.0000 0.50000  0.25000  0.94186  Biso   1.000  Cu
  O1       1.0000 0.53850  0.15340  0.43650  Biso   1.000  O
  O2       1.0000 0.59660  0.78850  0.68650  Biso   1.000  O
  O3       1.0000 0.46150  0.34660  0.43650  Biso   1.000  O
  O4       1.0000 0.40340  0.71150  0.68650  Biso   1.000  O
  O5       1.0000 0.03850  0.65340  0.93650  Biso   1.000  O
  O6       1.0000 0.09660  0.28850  0.18650  Biso   1.000  O
  O7       1.0000 0.96150  0.84660  0.93650  Biso   1.000  O
  O8       1.0000 0.90340  0.21150  0.18650  Biso   1.000  O
  O9       1.0000 0.46150  0.84660  0.56350  Biso   1.000  O
  O10      1.0000 0.90340  0.71150  0.81350  Biso   1.000  O
  O11      1.0000 0.53850  0.65340  0.56350  Biso   1.000  O
  O12      1.0000 0.09660  0.78850  0.81350  Biso   1.000  O
  O13      1.0000 0.96150  0.34660  0.06350  Biso   1.000  O
  O14      1.0000 0.40340  0.21150  0.31350  Biso   1.000  O
  O15      1.0000 0.03850  0.15340  0.06350  Biso   1.000  O
  O16      1.0000 0.59660  0.28850  0.31350  Biso   1.000  O
  O17      1.0000 0.53880  0.15330  0.32200  Biso   1.000  O
  O18      1.0000 0.59670  0.78880  0.57200  Biso   1.000  O
  O19      1.0000 0.46120  0.34670  0.32200  Biso   1.000  O
  O20      1.0000 0.40330  0.71120  0.57200  Biso   1.000  O
  O21      1.0000 0.03880  0.65330  0.82200  Biso   1.000  O
  O22      1.0000 0.09670  0.28880  0.07200  Biso   1.000  O
  O23      1.0000 0.96120  0.84670  0.82200  Biso   1.000  O
  O24      1.0000 0.90330  0.21120  0.07200  Biso   1.000  O
  O25      1.0000 0.46120  0.84670  0.67800  Biso   1.000  O
  O26      1.0000 0.90330  0.71120  0.92800  Biso   1.000  O
  O27      1.0000 0.53880  0.65330  0.67800  Biso   1.000  O
  O28      1.0000 0.09670  0.78880  0.92800  Biso   1.000  O
  O29      1.0000 0.96120  0.34670  0.17800  Biso   1.000  O
  O30      1.0000 0.40330  0.21120  0.42800  Biso   1.000  O
  O31      1.0000 0.03880  0.15330  0.17800  Biso   1.000  O
  O32      1.0000 0.59670  0.28880  0.42800  Biso   1.000  O
  O33      1.0000 0.58950  0.30080  0.82020  Biso   1.000  O
  O34      1.0000 0.44920  0.83950  0.07020  Biso   1.000  O
  O35      1.0000 0.41050  0.19920  0.82020  Biso   1.000  O
  O36      1.0000 0.55080  0.66050  0.07020  Biso   1.000  O
  O37      1.0000 0.08950  0.80080  0.32020  Biso   1.000  O
  O38      1.0000 0.94920  0.33950  0.57020  Biso   1.000  O
  O39      1.0000 0.91050  0.69920  0.32020  Biso   1.000  O
  O40      1.0000 0.05080  0.16050  0.57020  Biso   1.000  O
  O41      1.0000 0.41050  0.69920  0.17980  Biso   1.000  O
  O42      1.0000 0.05080  0.66050  0.42980  Biso   1.000  O
  O43      1.0000 0.58950  0.80080  0.17980  Biso   1.000  O
  O44      1.0000 0.94920  0.83950  0.42980  Biso   1.000  O
  O45      1.0000 0.91050  0.19920  0.67980  Biso   1.000  O
  O46      1.0000 0.55080  0.16050  0.92980  Biso   1.000  O
  O47      1.0000 0.08950  0.30080  0.67980  Biso   1.000  O
  O48      1.0000 0.44920  0.33950  0.92980  Biso   1.000  O
  O49      1.0000 0.58980  0.30170  0.93310  Biso   1.000  O
  O50      1.0000 0.44830  0.83980  0.18310  Biso   1.000  O
  O51      1.0000 0.41020  0.19830  0.93310  Biso   1.000  O
  O52      1.0000 0.55170  0.66020  0.18310  Biso   1.000  O
  O53      1.0000 0.08980  0.80170  0.43310  Biso   1.000  O
  O54      1.0000 0.94830  0.33980  0.68310  Biso   1.000  O
  O55      1.0000 0.91020  0.69830  0.43310  Biso   1.000  O
  O56      1.0000 0.05170  0.16020  0.68310  Biso   1.000  O
  O57      1.0000 0.41020  0.69830  0.06690  Biso   1.000  O
  O58      1.0000 0.05170  0.66020  0.31690  Biso   1.000  O
  O59      1.0000 0.58980  0.80170  0.06690  Biso   1.000  O
  O60      1.0000 0.94830  0.83980  0.31690  Biso   1.000  O
  O61      1.0000 0.91020  0.19830  0.56690  Biso   1.000  O
  O62      1.0000 0.55170  0.16020  0.81690  Biso   1.000  O
  O63      1.0000 0.08980  0.30170  0.56690  Biso   1.000  O
  O64      1.0000 0.44830  0.33980  0.81690  Biso   1.000  O
  N1       1.0000 0.50000  0.25000  0.55460  Biso   1.000  N
  N2       1.0000 0.50000  0.75000  0.80460  Biso   1.000  N
  N3       1.0000 0.00000  0.75000  0.05460  Biso   1.000  N
  N4       1.0000 0.00000  0.25000  0.30460  Biso   1.000  N
  N5       1.0000 0.50000  0.75000  0.44540  Biso   1.000  N
  N6       1.0000 0.00000  0.75000  0.69540  Biso   1.000  N
  N7       1.0000 0.00000  0.25000  0.94540  Biso   1.000  N
  N8       1.0000 0.50000  0.25000  0.19540  Biso   1.000  N
  N9       1.0000 0.50000  0.25000  0.69570  Biso   1.000  N
  N10      1.0000 0.50000  0.75000  0.94570  Biso   1.000  N
  N11      1.0000 0.00000  0.75000  0.19570  Biso   1.000  N
  N12      1.0000 0.00000  0.25000  0.44570  Biso   1.000  N
  N13      1.0000 0.50000  0.75000  0.30430  Biso   1.000  N
  N14      1.0000 0.00000  0.75000  0.55430  Biso   1.000  N
  N15      1.0000 0.00000  0.25000  0.80430  Biso   1.000  N
  N16      1.0000 0.50000  0.25000  0.05430  Biso   1.000  N
  C1       1.0000 0.54880  0.12510  0.37900  Biso   1.000  C
  C2       1.0000 0.62490  0.79880  0.62900  Biso   1.000  C
  C3       1.0000 0.45120  0.37490  0.37900  Biso   1.000  C
  C4       1.0000 0.37510  0.70120  0.62900  Biso   1.000  C
  C5       1.0000 0.04880  0.62510  0.87900  Biso   1.000  C
  C6       1.0000 0.12490  0.29880  0.12900  Biso   1.000  C
  C7       1.0000 0.95120  0.87490  0.87900  Biso   1.000  C
  C8       1.0000 0.87510  0.20120  0.12900  Biso   1.000  C
  C9       1.0000 0.45120  0.87490  0.62100  Biso   1.000  C
  C10      1.0000 0.87510  0.70120  0.87100  Biso   1.000  C
  C11      1.0000 0.54880  0.62510  0.62100  Biso   1.000  C
  C12      1.0000 0.12490  0.79880  0.87100  Biso   1.000  C
  C13      1.0000 0.95120  0.37490  0.12100  Biso   1.000  C
  C14      1.0000 0.37510  0.20120  0.37100  Biso   1.000  C
  C15      1.0000 0.04880  0.12510  0.12100  Biso   1.000  C
  C16      1.0000 0.62490  0.29880  0.37100  Biso   1.000  C
  C17      1.0000 0.57810  0.05130  0.37850  Biso   1.000  C
  C18      1.0000 0.69870  0.82810  0.62850  Biso   1.000  C
  C19      1.0000 0.42190  0.44870  0.37850  Biso   1.000  C
  C20      1.0000 0.30130  0.67190  0.62850  Biso   1.000  C
  C21      1.0000 0.07810  0.55130  0.87850  Biso   1.000  C
  C22      1.0000 0.19870  0.32810  0.12850  Biso   1.000  C
  C23      1.0000 0.92190  0.94870  0.87850  Biso   1.000  C
  C24      1.0000 0.80130  0.17190  0.12850  Biso   1.000  C
  C25      1.0000 0.42190  0.94870  0.62150  Biso   1.000  C
  C26      1.0000 0.80130  0.67190  0.87150  Biso   1.000  C
  C27      1.0000 0.57810  0.55130  0.62150  Biso   1.000  C
  C28      1.0000 0.19870  0.82810  0.87150  Biso   1.000  C
  C29      1.0000 0.92190  0.44870  0.12150  Biso   1.000  C
  C30      1.0000 0.30130  0.17190  0.37150  Biso   1.000  C
  C31      1.0000 0.07810  0.05130  0.12150  Biso   1.000  C
  C32      1.0000 0.69870  0.32810  0.37150  Biso   1.000  C
  C33      1.0000 0.59470  0.01610  0.43830  Biso   1.000  C
  C34      1.0000 0.73390  0.84470  0.68830  Biso   1.000  C
  C35      1.0000 0.40530  0.48390  0.43830  Biso   1.000  C
  C36      1.0000 0.26610  0.65530  0.68830  Biso   1.000  C
  C37      1.0000 0.09470  0.51610  0.93830  Biso   1.000  C
  C38      1.0000 0.23390  0.34470  0.18830  Biso   1.000  C
  C39      1.0000 0.90530  0.98390  0.93830  Biso   1.000  C
  C40      1.0000 0.76610  0.15530  0.18830  Biso   1.000  C
  C41      1.0000 0.40530  0.98390  0.56170  Biso   1.000  C
  C42      1.0000 0.76610  0.65530  0.81170  Biso   1.000  C
  C43      1.0000 0.59470  0.51610  0.56170  Biso   1.000  C
  C44      1.0000 0.23390  0.84470  0.81170  Biso   1.000  C
  C45      1.0000 0.90530  0.48390  0.06170  Biso   1.000  C
  C46      1.0000 0.26610  0.15530  0.31170  Biso   1.000  C
  C47      1.0000 0.09470  0.01610  0.06170  Biso   1.000  C
  C48      1.0000 0.73390  0.34470  0.31170  Biso   1.000  C
  H1       1.0000 0.58720  0.03950  0.48050  Biso   1.000  H
  H2       1.0000 0.71050  0.83720  0.73050  Biso   1.000  H
  H3       1.0000 0.41280  0.46050  0.48050  Biso   1.000  H
  H4       1.0000 0.28950  0.66280  0.73050  Biso   1.000  H
  H5       1.0000 0.08720  0.53950  0.98050  Biso   1.000  H
  H6       1.0000 0.21050  0.33720  0.23050  Biso   1.000  H
  H7       1.0000 0.91280  0.96050  0.98050  Biso   1.000  H
  H8       1.0000 0.78950  0.16280  0.23050  Biso   1.000  H
  H9       1.0000 0.41280  0.96050  0.51950  Biso   1.000  H
  H10      1.0000 0.78950  0.66280  0.76950  Biso   1.000  H
  H11      1.0000 0.58720  0.53950  0.51950  Biso   1.000  H
  H12      1.0000 0.21050  0.83720  0.76950  Biso   1.000  H
  H13      1.0000 0.91280  0.46050  0.01950  Biso   1.000  H
  H14      1.0000 0.28950  0.16280  0.26950  Biso   1.000  H
  H15      1.0000 0.08720  0.03950  0.01950  Biso   1.000  H
  H16      1.0000 0.71050  0.33720  0.26950  Biso   1.000  H
  C49      1.0000 0.62250  0.94670  0.43790  Biso   1.000  C
  C50      1.0000 0.80330  0.87250  0.68790  Biso   1.000  C
  C51      1.0000 0.37750  0.55330  0.43790  Biso   1.000  C
  C52      1.0000 0.19670  0.62750  0.68790  Biso   1.000  C
  C53      1.0000 0.12250  0.44670  0.93790  Biso   1.000  C
  C54      1.0000 0.30330  0.37250  0.18790  Biso   1.000  C
  C55      1.0000 0.87750  0.05330  0.93790  Biso   1.000  C
  C56      1.0000 0.69670  0.12750  0.18790  Biso   1.000  C
  C57      1.0000 0.37750  0.05330  0.56210  Biso   1.000  C
  C58      1.0000 0.69670  0.62750  0.81210  Biso   1.000  C
  C59      1.0000 0.62250  0.44670  0.56210  Biso   1.000  C
  C60      1.0000 0.30330  0.87250  0.81210  Biso   1.000  C
  C61      1.0000 0.87750  0.55330  0.06210  Biso   1.000  C
  C62      1.0000 0.19670  0.12750  0.31210  Biso   1.000  C
  C63      1.0000 0.12250  0.94670  0.06210  Biso   1.000  C
  C64      1.0000 0.80330  0.37250  0.31210  Biso   1.000  C
  H17      1.0000 0.63220  0.92220  0.47920  Biso   1.000  H
  H18      1.0000 0.82780  0.88220  0.72920  Biso   1.000  H
  H19      1.0000 0.36780  0.57780  0.47920  Biso   1.000  H
  H20      1.0000 0.17220  0.61780  0.72920  Biso   1.000  H
  H21      1.0000 0.13220  0.42220  0.97920  Biso   1.000  H
  H22      1.0000 0.32780  0.38220  0.22920  Biso   1.000  H
  H23      1.0000 0.86780  0.07780  0.97920  Biso   1.000  H
  H24      1.0000 0.67220  0.11780  0.22920  Biso   1.000  H
  H25      1.0000 0.36780  0.07780  0.52080  Biso   1.000  H
  H26      1.0000 0.67220  0.61780  0.77080  Biso   1.000  H
  H27      1.0000 0.63220  0.42220  0.52080  Biso   1.000  H
  H28      1.0000 0.32780  0.88220  0.77080  Biso   1.000  H
  H29      1.0000 0.86780  0.57780  0.02080  Biso   1.000  H
  H30      1.0000 0.17220  0.11780  0.27080  Biso   1.000  H
  H31      1.0000 0.13220  0.92220  0.02080  Biso   1.000  H
  H32      1.0000 0.82780  0.38220  0.27080  Biso   1.000  H
  C65      1.0000 0.63500  0.91520  0.37600  Biso   1.000  C
  C66      1.0000 0.83480  0.88500  0.62600  Biso   1.000  C
  C67      1.0000 0.36500  0.58480  0.37600  Biso   1.000  C
  C68      1.0000 0.16520  0.61500  0.62600  Biso   1.000  C
  C69      1.0000 0.13500  0.41520  0.87600  Biso   1.000  C
  C70      1.0000 0.33480  0.38500  0.12600  Biso   1.000  C
  C71      1.0000 0.86500  0.08480  0.87600  Biso   1.000  C
  C72      1.0000 0.66520  0.11500  0.12600  Biso   1.000  C
  C73      1.0000 0.36500  0.08480  0.62400  Biso   1.000  C
  C74      1.0000 0.66520  0.61500  0.87400  Biso   1.000  C
  C75      1.0000 0.63500  0.41520  0.62400  Biso   1.000  C
  C76      1.0000 0.33480  0.88500  0.87400  Biso   1.000  C
  C77      1.0000 0.86500  0.58480  0.12400  Biso   1.000  C
  C78      1.0000 0.16520  0.11500  0.37400  Biso   1.000  C
  C79      1.0000 0.13500  0.91520  0.12400  Biso   1.000  C
  C80      1.0000 0.83480  0.38500  0.37400  Biso   1.000  C
  C81      1.0000 0.61680  0.94660  0.31600  Biso   1.000  C
  C82      1.0000 0.80340  0.86680  0.56600  Biso   1.000  C
  C83      1.0000 0.38320  0.55340  0.31600  Biso   1.000  C
  C84      1.0000 0.19660  0.63320  0.56600  Biso   1.000  C
  C85      1.0000 0.11680  0.44660  0.81600  Biso   1.000  C
  C86      1.0000 0.30340  0.36680  0.06600  Biso   1.000  C
  C87      1.0000 0.88320  0.05340  0.81600  Biso   1.000  C
  C88      1.0000 0.69660  0.13320  0.06600  Biso   1.000  C
  C89      1.0000 0.38320  0.05340  0.68400  Biso   1.000  C
  C90      1.0000 0.69660  0.63320  0.93400  Biso   1.000  C
  C91      1.0000 0.61680  0.44660  0.68400  Biso   1.000  C
  C92      1.0000 0.30340  0.86680  0.93400  Biso   1.000  C
  C93      1.0000 0.88320  0.55340  0.18400  Biso   1.000  C
  C94      1.0000 0.19660  0.13320  0.43400  Biso   1.000  C
  C95      1.0000 0.11680  0.94660  0.18400  Biso   1.000  C
  C96      1.0000 0.80340  0.36680  0.43400  Biso   1.000  C
  H33      1.0000 0.62320  0.92210  0.27420  Biso   1.000  H
  H34      1.0000 0.82790  0.87320  0.52420  Biso   1.000  H
  H35      1.0000 0.37680  0.57790  0.27420  Biso   1.000  H
  H36      1.0000 0.17210  0.62680  0.52420  Biso   1.000  H
  H37      1.0000 0.12320  0.42210  0.77420  Biso   1.000  H
  H38      1.0000 0.32790  0.37320  0.02420  Biso   1.000  H
  H39      1.0000 0.87680  0.07790  0.77420  Biso   1.000  H
  H40      1.0000 0.67210  0.12680  0.02420  Biso   1.000  H
  H41      1.0000 0.37680  0.07790  0.72580  Biso   1.000  H
  H42      1.0000 0.67210  0.62680  0.97580  Biso   1.000  H
  H43      1.0000 0.62320  0.42210  0.72580  Biso   1.000  H
  H44      1.0000 0.32790  0.87320  0.97580  Biso   1.000  H
  H45      1.0000 0.87680  0.57790  0.22580  Biso   1.000  H
  H46      1.0000 0.17210  0.12680  0.47580  Biso   1.000  H
  H47      1.0000 0.12320  0.92210  0.22580  Biso   1.000  H
  H48      1.0000 0.82790  0.37320  0.47580  Biso   1.000  H
  C97      1.0000 0.58880  0.01510  0.31710  Biso   1.000  C
  C98      1.0000 0.73490  0.83880  0.56710  Biso   1.000  C
  C99      1.0000 0.41120  0.48490  0.31710  Biso   1.000  C
  C100     1.0000 0.26510  0.66120  0.56710  Biso   1.000  C
  C101     1.0000 0.08880  0.51510  0.81710  Biso   1.000  C
  C102     1.0000 0.23490  0.33880  0.06710  Biso   1.000  C
  C103     1.0000 0.91120  0.98490  0.81710  Biso   1.000  C
  C104     1.0000 0.76510  0.16120  0.06710  Biso   1.000  C
  C105     1.0000 0.41120  0.98490  0.68290  Biso   1.000  C
  C106     1.0000 0.76510  0.66120  0.93290  Biso   1.000  C
  C107     1.0000 0.58880  0.51510  0.68290  Biso   1.000  C
  C108     1.0000 0.23490  0.83880  0.93290  Biso   1.000  C
  C109     1.0000 0.91120  0.48490  0.18290  Biso   1.000  C
  C110     1.0000 0.26510  0.16120  0.43290  Biso   1.000  C
  C111     1.0000 0.08880  0.01510  0.18290  Biso   1.000  C
  C112     1.0000 0.73490  0.33880  0.43290  Biso   1.000  C
  H49      1.0000 0.57670  0.03780  0.27550  Biso   1.000  H
  H50      1.0000 0.71220  0.82670  0.52550  Biso   1.000  H
  H51      1.0000 0.42330  0.46220  0.27550  Biso   1.000  H
  H52      1.0000 0.28780  0.67330  0.52550  Biso   1.000  H
  H53      1.0000 0.07670  0.53780  0.77550  Biso   1.000  H
  H54      1.0000 0.21220  0.32670  0.02550  Biso   1.000  H
  H55      1.0000 0.92330  0.96220  0.77550  Biso   1.000  H
  H56      1.0000 0.78780  0.17330  0.02550  Biso   1.000  H
  H57      1.0000 0.42330  0.96220  0.72450  Biso   1.000  H
  H58      1.0000 0.78780  0.67330  0.97450  Biso   1.000  H
  H59      1.0000 0.57670  0.53780  0.72450  Biso   1.000  H
  H60      1.0000 0.21220  0.82670  0.97450  Biso   1.000  H
  H61      1.0000 0.92330  0.46220  0.22450  Biso   1.000  H
  H62      1.0000 0.28780  0.17330  0.47450  Biso   1.000  H
  H63      1.0000 0.07670  0.03780  0.22450  Biso   1.000  H
  H64      1.0000 0.71220  0.32670  0.47450  Biso   1.000  H
  C113     1.0000 0.51470  0.19150  0.59050  Biso   1.000  C
  C114     1.0000 0.55850  0.76470  0.84050  Biso   1.000  C
  C115     1.0000 0.48530  0.30850  0.59050  Biso   1.000  C
  C116     1.0000 0.44150  0.73530  0.84050  Biso   1.000  C
  C117     1.0000 0.01470  0.69150  0.09050  Biso   1.000  C
  C118     1.0000 0.05850  0.26470  0.34050  Biso   1.000  C
  C119     1.0000 0.98530  0.80850  0.09050  Biso   1.000  C
  C120     1.0000 0.94150  0.23530  0.34050  Biso   1.000  C
  C121     1.0000 0.48530  0.80850  0.40950  Biso   1.000  C
  C122     1.0000 0.94150  0.73530  0.65950  Biso   1.000  C
  C123     1.0000 0.51470  0.69150  0.40950  Biso   1.000  C
  C124     1.0000 0.05850  0.76470  0.65950  Biso   1.000  C
  C125     1.0000 0.98530  0.30850  0.90950  Biso   1.000  C
  C126     1.0000 0.44150  0.23530  0.15950  Biso   1.000  C
  C127     1.0000 0.01470  0.19150  0.90950  Biso   1.000  C
  C128     1.0000 0.55850  0.26470  0.15950  Biso   1.000  C
  H65      1.0000 0.52490  0.14850  0.56710  Biso   1.000  H
  H66      1.0000 0.60150  0.77490  0.81710  Biso   1.000  H
  H67      1.0000 0.47510  0.35150  0.56710  Biso   1.000  H
  H68      1.0000 0.39850  0.72510  0.81710  Biso   1.000  H
  H69      1.0000 0.02490  0.64850  0.06710  Biso   1.000  H
  H70      1.0000 0.10150  0.27490  0.31710  Biso   1.000  H
  H71      1.0000 0.97510  0.85150  0.06710  Biso   1.000  H
  H72      1.0000 0.89850  0.22510  0.31710  Biso   1.000  H
  H73      1.0000 0.47510  0.85150  0.43290  Biso   1.000  H
  H74      1.0000 0.89850  0.72510  0.68290  Biso   1.000  H
  H75      1.0000 0.52490  0.64850  0.43290  Biso   1.000  H
  H76      1.0000 0.10150  0.77490  0.68290  Biso   1.000  H
  H77      1.0000 0.97510  0.35150  0.93290  Biso   1.000  H
  H78      1.0000 0.39850  0.22510  0.18290  Biso   1.000  H
  H79      1.0000 0.02490  0.14850  0.93290  Biso   1.000  H
  H80      1.0000 0.60150  0.27490  0.18290  Biso   1.000  H
  C129     1.0000 0.51540  0.19170  0.66140  Biso   1.000  C
  C130     1.0000 0.55830  0.76540  0.91140  Biso   1.000  C
  C131     1.0000 0.48460  0.30830  0.66140  Biso   1.000  C
  C132     1.0000 0.44170  0.73460  0.91140  Biso   1.000  C
  C133     1.0000 0.01540  0.69170  0.16140  Biso   1.000  C
  C134     1.0000 0.05830  0.26540  0.41140  Biso   1.000  C
  C135     1.0000 0.98460  0.80830  0.16140  Biso   1.000  C
  C136     1.0000 0.94170  0.23460  0.41140  Biso   1.000  C
  C137     1.0000 0.48460  0.80830  0.33860  Biso   1.000  C
  C138     1.0000 0.94170  0.73460  0.58860  Biso   1.000  C
  C139     1.0000 0.51540  0.69170  0.33860  Biso   1.000  C
  C140     1.0000 0.05830  0.76540  0.58860  Biso   1.000  C
  C141     1.0000 0.98460  0.30830  0.83860  Biso   1.000  C
  C142     1.0000 0.44170  0.23460  0.08860  Biso   1.000  C
  C143     1.0000 0.01540  0.19170  0.83860  Biso   1.000  C
  C144     1.0000 0.55830  0.26540  0.08860  Biso   1.000  C
  H81      1.0000 0.52720  0.14930  0.68520  Biso   1.000  H
  H82      1.0000 0.60070  0.77720  0.93520  Biso   1.000  H
  H83      1.0000 0.47280  0.35070  0.68520  Biso   1.000  H
  H84      1.0000 0.39930  0.72280  0.93520  Biso   1.000  H
  H85      1.0000 0.02720  0.64930  0.18520  Biso   1.000  H
  H86      1.0000 0.10070  0.27720  0.43520  Biso   1.000  H
  H87      1.0000 0.97280  0.85070  0.18520  Biso   1.000  H
  H88      1.0000 0.89930  0.22280  0.43520  Biso   1.000  H
  H89      1.0000 0.47280  0.85070  0.31480  Biso   1.000  H
  H90      1.0000 0.89930  0.72280  0.56480  Biso   1.000  H
  H91      1.0000 0.52720  0.64930  0.31480  Biso   1.000  H
  H92      1.0000 0.10070  0.77720  0.56480  Biso   1.000  H
  H93      1.0000 0.97280  0.35070  0.81480  Biso   1.000  H
  H94      1.0000 0.39930  0.22280  0.06480  Biso   1.000  H
  H95      1.0000 0.02720  0.14930  0.81480  Biso   1.000  H
  H96      1.0000 0.60070  0.27720  0.06480  Biso   1.000  H
  C145     1.0000 0.61600  0.31670  0.87690  Biso   1.000  C
  C146     1.0000 0.43330  0.86600  0.12690  Biso   1.000  C
  C147     1.0000 0.38400  0.18330  0.87690  Biso   1.000  C
  C148     1.0000 0.56670  0.63400  0.12690  Biso   1.000  C
  C149     1.0000 0.11600  0.81670  0.37690  Biso   1.000  C
  C150     1.0000 0.93330  0.36600  0.62690  Biso   1.000  C
  C151     1.0000 0.88400  0.68330  0.37690  Biso   1.000  C
  C152     1.0000 0.06670  0.13400  0.62690  Biso   1.000  C
  C153     1.0000 0.38400  0.68330  0.12310  Biso   1.000  C
  C154     1.0000 0.06670  0.63400  0.37310  Biso   1.000  C
  C155     1.0000 0.61600  0.81670  0.12310  Biso   1.000  C
  C156     1.0000 0.93330  0.86600  0.37310  Biso   1.000  C
  C157     1.0000 0.88400  0.18330  0.62310  Biso   1.000  C
  C158     1.0000 0.56670  0.13400  0.87310  Biso   1.000  C
  C159     1.0000 0.11600  0.31670  0.62310  Biso   1.000  C
  C160     1.0000 0.43330  0.36600  0.87310  Biso   1.000  C
  C161     1.0000 0.68450  0.35650  0.87210  Biso   1.000  C
  C162     1.0000 0.39350  0.93450  0.12210  Biso   1.000  C
  C163     1.0000 0.31550  0.14350  0.87210  Biso   1.000  C
  C164     1.0000 0.60650  0.56550  0.12210  Biso   1.000  C
  C165     1.0000 0.18450  0.85650  0.37210  Biso   1.000  C
  C166     1.0000 0.89350  0.43450  0.62210  Biso   1.000  C
  C167     1.0000 0.81550  0.64350  0.37210  Biso   1.000  C
  C168     1.0000 0.10650  0.06550  0.62210  Biso   1.000  C
  C169     1.0000 0.31550  0.64350  0.12790  Biso   1.000  C
  C170     1.0000 0.10650  0.56550  0.37790  Biso   1.000  C
  C171     1.0000 0.68450  0.85650  0.12790  Biso   1.000  C
  C172     1.0000 0.89350  0.93450  0.37790  Biso   1.000  C
  C173     1.0000 0.81550  0.14350  0.62790  Biso   1.000  C
  C174     1.0000 0.60650  0.06550  0.87790  Biso   1.000  C
  C175     1.0000 0.18450  0.35650  0.62790  Biso   1.000  C
  C176     1.0000 0.39350  0.43450  0.87790  Biso   1.000  C
  C177     1.0000 0.73440  0.34180  0.82180  Biso   1.000  C
  C178     1.0000 0.40820  0.98440  0.07180  Biso   1.000  C
  C179     1.0000 0.26560  0.15820  0.82180  Biso   1.000  C
  C180     1.0000 0.59180  0.51560  0.07180  Biso   1.000  C
  C181     1.0000 0.23440  0.84180  0.32180  Biso   1.000  C
  C182     1.0000 0.90820  0.48440  0.57180  Biso   1.000  C
  C183     1.0000 0.76560  0.65820  0.32180  Biso   1.000  C
  C184     1.0000 0.09180  0.01560  0.57180  Biso   1.000  C
  C185     1.0000 0.26560  0.65820  0.17820  Biso   1.000  C
  C186     1.0000 0.09180  0.51560  0.42820  Biso   1.000  C
  C187     1.0000 0.73440  0.84180  0.17820  Biso   1.000  C
  C188     1.0000 0.90820  0.98440  0.42820  Biso   1.000  C
  C189     1.0000 0.76560  0.15820  0.67820  Biso   1.000  C
  C190     1.0000 0.59180  0.01560  0.92820  Biso   1.000  C
  C191     1.0000 0.23440  0.34180  0.67820  Biso   1.000  C
  C192     1.0000 0.40820  0.48440  0.92820  Biso   1.000  C
  H97      1.0000 0.72560  0.30490  0.78980  Biso   1.000  H
  H98      1.0000 0.44510  0.97560  0.03980  Biso   1.000  H
  H99      1.0000 0.27440  0.19510  0.78980  Biso   1.000  H
  H100     1.0000 0.55490  0.52440  0.03980  Biso   1.000  H
  H101     1.0000 0.22560  0.80490  0.28980  Biso   1.000  H
  H102     1.0000 0.94510  0.47560  0.53980  Biso   1.000  H
  H103     1.0000 0.77440  0.69510  0.28980  Biso   1.000  H
  H104     1.0000 0.05490  0.02440  0.53980  Biso   1.000  H
  H105     1.0000 0.27440  0.69510  0.21020  Biso   1.000  H
  H106     1.0000 0.05490  0.52440  0.46020  Biso   1.000  H
  H107     1.0000 0.72560  0.80490  0.21020  Biso   1.000  H
  H108     1.0000 0.94510  0.97560  0.46020  Biso   1.000  H
  H109     1.0000 0.77440  0.19510  0.71020  Biso   1.000  H
  H110     1.0000 0.55490  0.02440  0.96020  Biso   1.000  H
  H111     1.0000 0.22560  0.30490  0.71020  Biso   1.000  H
  H112     1.0000 0.44510  0.47560  0.96020  Biso   1.000  H
  C193     1.0000 0.79710  0.38090  0.81830  Biso   1.000  C
  C194     1.0000 0.36910  0.04710  0.06830  Biso   1.000  C
  C195     1.0000 0.20290  0.11910  0.81830  Biso   1.000  C
  C196     1.0000 0.63090  0.45290  0.06830  Biso   1.000  C
  C197     1.0000 0.29710  0.88090  0.31830  Biso   1.000  C
  C198     1.0000 0.86910  0.54710  0.56830  Biso   1.000  C
  C199     1.0000 0.70290  0.61910  0.31830  Biso   1.000  C
  C200     1.0000 0.13090  0.95290  0.56830  Biso   1.000  C
  C201     1.0000 0.20290  0.61910  0.18170  Biso   1.000  C
  C202     1.0000 0.13090  0.45290  0.43170  Biso   1.000  C
  C203     1.0000 0.79710  0.88090  0.18170  Biso   1.000  C
  C204     1.0000 0.86910  0.04710  0.43170  Biso   1.000  C
  C205     1.0000 0.70290  0.11910  0.68170  Biso   1.000  C
  C206     1.0000 0.63090  0.95290  0.93170  Biso   1.000  C
  C207     1.0000 0.29710  0.38090  0.68170  Biso   1.000  C
  C208     1.0000 0.36910  0.54710  0.93170  Biso   1.000  C
  H113     1.0000 0.83120  0.37090  0.78400  Biso   1.000  H
  H114     1.0000 0.37910  0.08120  0.03400  Biso   1.000  H
  H115     1.0000 0.16880  0.12910  0.78400  Biso   1.000  H
  H116     1.0000 0.62090  0.41880  0.03400  Biso   1.000  H
  H117     1.0000 0.33120  0.87090  0.28400  Biso   1.000  H
  H118     1.0000 0.87910  0.58120  0.53400  Biso   1.000  H
  H119     1.0000 0.66880  0.62910  0.28400  Biso   1.000  H
  H120     1.0000 0.12090  0.91880  0.53400  Biso   1.000  H
  H121     1.0000 0.16880  0.62910  0.21600  Biso   1.000  H
  H122     1.0000 0.12090  0.41880  0.46600  Biso   1.000  H
  H123     1.0000 0.83120  0.87090  0.21600  Biso   1.000  H
  H124     1.0000 0.87910  0.08120  0.46600  Biso   1.000  H
  H125     1.0000 0.66880  0.12910  0.71600  Biso   1.000  H
  H126     1.0000 0.62090  0.91880  0.96600  Biso   1.000  H
  H127     1.0000 0.33120  0.37090  0.71600  Biso   1.000  H
  H128     1.0000 0.37910  0.58120  0.96600  Biso   1.000  H
  C209     1.0000 0.81000  0.43490  0.86520  Biso   1.000  C
  C210     1.0000 0.31510  0.06000  0.11520  Biso   1.000  C
  C211     1.0000 0.19000  0.06510  0.86520  Biso   1.000  C
  C212     1.0000 0.68490  0.44000  0.11520  Biso   1.000  C
  C213     1.0000 0.31000  0.93490  0.36520  Biso   1.000  C
  C214     1.0000 0.81510  0.56000  0.61520  Biso   1.000  C
  C215     1.0000 0.69000  0.56510  0.36520  Biso   1.000  C
  C216     1.0000 0.18490  0.94000  0.61520  Biso   1.000  C
  C217     1.0000 0.19000  0.56510  0.13480  Biso   1.000  C
  C218     1.0000 0.18490  0.44000  0.38480  Biso   1.000  C
  C219     1.0000 0.81000  0.93490  0.13480  Biso   1.000  C
  C220     1.0000 0.81510  0.06000  0.38480  Biso   1.000  C
  C221     1.0000 0.69000  0.06510  0.63480  Biso   1.000  C
  C222     1.0000 0.68490  0.94000  0.88480  Biso   1.000  C
  C223     1.0000 0.31000  0.43490  0.63480  Biso   1.000  C
  C224     1.0000 0.31510  0.56000  0.88480  Biso   1.000  C
  C225     1.0000 0.76010  0.44960  0.91550  Biso   1.000  C
  C226     1.0000 0.30040  0.01010  0.16550  Biso   1.000  C
  C227     1.0000 0.23990  0.05040  0.91550  Biso   1.000  C
  C228     1.0000 0.69960  0.48990  0.16550  Biso   1.000  C
  C229     1.0000 0.26010  0.94960  0.41550  Biso   1.000  C
  C230     1.0000 0.80040  0.51010  0.66550  Biso   1.000  C
  C231     1.0000 0.73990  0.55040  0.41550  Biso   1.000  C
  C232     1.0000 0.19960  0.98990  0.66550  Biso   1.000  C
  C233     1.0000 0.23990  0.55040  0.08450  Biso   1.000  C
  C234     1.0000 0.19960  0.48990  0.33450  Biso   1.000  C
  C235     1.0000 0.76010  0.94960  0.08450  Biso   1.000  C
  C236     1.0000 0.80040  0.01010  0.33450  Biso   1.000  C
  C237     1.0000 0.73990  0.05040  0.58450  Biso   1.000  C
  C238     1.0000 0.69960  0.98990  0.83450  Biso   1.000  C
  C239     1.0000 0.26010  0.44960  0.58450  Biso   1.000  C
  C240     1.0000 0.30040  0.51010  0.83450  Biso   1.000  C
  H129     1.0000 0.76890  0.48640  0.94750  Biso   1.000  H
  H130     1.0000 0.26360  0.01890  0.19750  Biso   1.000  H
  H131     1.0000 0.23110  0.01360  0.94750  Biso   1.000  H
  H132     1.0000 0.73640  0.48110  0.19750  Biso   1.000  H
  H133     1.0000 0.26890  0.98640  0.44750  Biso   1.000  H
  H134     1.0000 0.76360  0.51890  0.69750  Biso   1.000  H
  H135     1.0000 0.73110  0.51360  0.44750  Biso   1.000  H
  H136     1.0000 0.23640  0.98110  0.69750  Biso   1.000  H
  H137     1.0000 0.23110  0.51360  0.05250  Biso   1.000  H
  H138     1.0000 0.23640  0.48110  0.30250  Biso   1.000  H
  H139     1.0000 0.76890  0.98640  0.05250  Biso   1.000  H
  H140     1.0000 0.76360  0.01890  0.30250  Biso   1.000  H
  H141     1.0000 0.73110  0.01360  0.55250  Biso   1.000  H
  H142     1.0000 0.73640  0.98110  0.80250  Biso   1.000  H
  H143     1.0000 0.26890  0.48640  0.55250  Biso   1.000  H
  H144     1.0000 0.26360  0.51890  0.80250  Biso   1.000  H
  C241     1.0000 0.69740  0.41040  0.91890  Biso   1.000  C
  C242     1.0000 0.33960  0.94740  0.16890  Biso   1.000  C
  C243     1.0000 0.30260  0.08960  0.91890  Biso   1.000  C
  C244     1.0000 0.66040  0.55260  0.16890  Biso   1.000  C
  C245     1.0000 0.19740  0.91040  0.41890  Biso   1.000  C
  C246     1.0000 0.83960  0.44740  0.66890  Biso   1.000  C
  C247     1.0000 0.80260  0.58960  0.41890  Biso   1.000  C
  C248     1.0000 0.16040  0.05260  0.66890  Biso   1.000  C
  C249     1.0000 0.30260  0.58960  0.08110  Biso   1.000  C
  C250     1.0000 0.16040  0.55260  0.33110  Biso   1.000  C
  C251     1.0000 0.69740  0.91040  0.08110  Biso   1.000  C
  C252     1.0000 0.83960  0.94740  0.33110  Biso   1.000  C
  C253     1.0000 0.80260  0.08960  0.58110  Biso   1.000  C
  C254     1.0000 0.66040  0.05260  0.83110  Biso   1.000  C
  C255     1.0000 0.19740  0.41040  0.58110  Biso   1.000  C
  C256     1.0000 0.33960  0.44740  0.83110  Biso   1.000  C
  H145     1.0000 0.66330  0.42050  0.95330  Biso   1.000  H
  H146     1.0000 0.32950  0.91330  0.20330  Biso   1.000  H
  H147     1.0000 0.33670  0.07950  0.95330  Biso   1.000  H
  H148     1.0000 0.67050  0.58670  0.20330  Biso   1.000  H
  H149     1.0000 0.16330  0.92050  0.45330  Biso   1.000  H
  H150     1.0000 0.82950  0.41330  0.70330  Biso   1.000  H
  H151     1.0000 0.83670  0.57950  0.45330  Biso   1.000  H
  H152     1.0000 0.17050  0.08670  0.70330  Biso   1.000  H
  H153     1.0000 0.33670  0.57950  0.04670  Biso   1.000  H
  H154     1.0000 0.17050  0.58670  0.29670  Biso   1.000  H
  H155     1.0000 0.66330  0.92050  0.04670  Biso   1.000  H
  H156     1.0000 0.82950  0.91330  0.29670  Biso   1.000  H
  H157     1.0000 0.83670  0.07950  0.54670  Biso   1.000  H
  H158     1.0000 0.67050  0.08670  0.79670  Biso   1.000  H
  H159     1.0000 0.16330  0.42050  0.54670  Biso   1.000  H
  H160     1.0000 0.32950  0.41330  0.79670  Biso   1.000  H
  C257     1.0000 0.68050  0.36340  0.88410  Biso   1.000  C
  C258     1.0000 0.38660  0.93050  0.13410  Biso   1.000  C
  C259     1.0000 0.31950  0.13660  0.88410  Biso   1.000  C
  C260     1.0000 0.61340  0.56950  0.13410  Biso   1.000  C
  C261     1.0000 0.18050  0.86340  0.38410  Biso   1.000  C
  C262     1.0000 0.88660  0.43050  0.63410  Biso   1.000  C
  C263     1.0000 0.81950  0.63660  0.38410  Biso   1.000  C
  C264     1.0000 0.11340  0.06950  0.63410  Biso   1.000  C
  C265     1.0000 0.31950  0.63660  0.11590  Biso   1.000  C
  C266     1.0000 0.11340  0.56950  0.36590  Biso   1.000  C
  C267     1.0000 0.68050  0.86340  0.11590  Biso   1.000  C
  C268     1.0000 0.88660  0.93050  0.36590  Biso   1.000  C
  C269     1.0000 0.81950  0.13660  0.61590  Biso   1.000  C
  C270     1.0000 0.61340  0.06950  0.86590  Biso   1.000  C
  C271     1.0000 0.18050  0.36340  0.61590  Biso   1.000  C
  C272     1.0000 0.38660  0.43050  0.86590  Biso   1.000  C
  C273     1.0000 0.68780  0.42260  0.84220  Biso   1.000  C
  C274     1.0000 0.32740  0.93780  0.09220  Biso   1.000  C
  C275     1.0000 0.31220  0.07740  0.84220  Biso   1.000  C
  C276     1.0000 0.67260  0.56220  0.09220  Biso   1.000  C
  C277     1.0000 0.18780  0.92260  0.34220  Biso   1.000  C
  C278     1.0000 0.82740  0.43780  0.59220  Biso   1.000  C
  C279     1.0000 0.81220  0.57740  0.34220  Biso   1.000  C
  C280     1.0000 0.17260  0.06220  0.59220  Biso   1.000  C
  C281     1.0000 0.31220  0.57740  0.15780  Biso   1.000  C
  C282     1.0000 0.17260  0.56220  0.40780  Biso   1.000  C
  C283     1.0000 0.68780  0.92260  0.15780  Biso   1.000  C
  C284     1.0000 0.82740  0.93780  0.40780  Biso   1.000  C
  C285     1.0000 0.81220  0.07740  0.65780  Biso   1.000  C
  C286     1.0000 0.67260  0.06220  0.90780  Biso   1.000  C
  C287     1.0000 0.18780  0.42260  0.65780  Biso   1.000  C
  C288     1.0000 0.32740  0.43780  0.90780  Biso   1.000  C
  C289     1.0000 0.75160  0.46020  0.84110  Biso   1.000  C
  C290     1.0000 0.28980  0.00160  0.09110  Biso   1.000  C
  C291     1.0000 0.24840  0.03980  0.84110  Biso   1.000  C
  C292     1.0000 0.71020  0.49840  0.09110  Biso   1.000  C
  C293     1.0000 0.25160  0.96020  0.34110  Biso   1.000  C
  C294     1.0000 0.78980  0.50160  0.59110  Biso   1.000  C
  C295     1.0000 0.74840  0.53980  0.34110  Biso   1.000  C
  C296     1.0000 0.21020  0.99840  0.59110  Biso   1.000  C
  C297     1.0000 0.24840  0.53980  0.15890  Biso   1.000  C
  C298     1.0000 0.21020  0.49840  0.40890  Biso   1.000  C
  C299     1.0000 0.75160  0.96020  0.15890  Biso   1.000  C
  C300     1.0000 0.78980  0.00160  0.40890  Biso   1.000  C
  C301     1.0000 0.74840  0.03980  0.65890  Biso   1.000  C
  C302     1.0000 0.71020  0.99840  0.90890  Biso   1.000  C
  C303     1.0000 0.25160  0.46020  0.65890  Biso   1.000  C
  C304     1.0000 0.28980  0.50160  0.90890  Biso   1.000  C
  C305     1.0000 0.80800  0.43870  0.88190  Biso   1.000  C
  C306     1.0000 0.31130  0.05800  0.13190  Biso   1.000  C
  C307     1.0000 0.19200  0.06130  0.88190  Biso   1.000  C
  C308     1.0000 0.68870  0.44200  0.13190  Biso   1.000  C
  C309     1.0000 0.30800  0.93870  0.38190  Biso   1.000  C
  C310     1.0000 0.81130  0.55800  0.63190  Biso   1.000  C
  C311     1.0000 0.69200  0.56130  0.38190  Biso   1.000  C
  C312     1.0000 0.18870  0.94200  0.63190  Biso   1.000  C
  C313     1.0000 0.19200  0.56130  0.11810  Biso   1.000  C
  C314     1.0000 0.18870  0.44200  0.36810  Biso   1.000  C
  C315     1.0000 0.80800  0.93870  0.11810  Biso   1.000  C
  C316     1.0000 0.81130  0.05800  0.36810  Biso   1.000  C
  C317     1.0000 0.69200  0.06130  0.61810  Biso   1.000  C
  C318     1.0000 0.68870  0.94200  0.86810  Biso   1.000  C
  C319     1.0000 0.30800  0.43870  0.61810  Biso   1.000  C
  C320     1.0000 0.31130  0.55800  0.86810  Biso   1.000  C
  C321     1.0000 0.80070  0.37960  0.92390  Biso   1.000  C
  C322     1.0000 0.37040  0.05070  0.17390  Biso   1.000  C
  C323     1.0000 0.19930  0.12040  0.92390  Biso   1.000  C
  C324     1.0000 0.62960  0.44930  0.17390  Biso   1.000  C
  C325     1.0000 0.30070  0.87960  0.42390  Biso   1.000  C
  C326     1.0000 0.87040  0.55070  0.67390  Biso   1.000  C
  C327     1.0000 0.69930  0.62040  0.42390  Biso   1.000  C
  C328     1.0000 0.12960  0.94930  0.67390  Biso   1.000  C
  C329     1.0000 0.19930  0.62040  0.07610  Biso   1.000  C
  C330     1.0000 0.12960  0.44930  0.32610  Biso   1.000  C
  C331     1.0000 0.80070  0.87960  0.07610  Biso   1.000  C
  C332     1.0000 0.87040  0.05070  0.32610  Biso   1.000  C
  C333     1.0000 0.69930  0.12040  0.57610  Biso   1.000  C
  C334     1.0000 0.62960  0.94930  0.82610  Biso   1.000  C
  C335     1.0000 0.30070  0.37960  0.57610  Biso   1.000  C
  C336     1.0000 0.37040  0.55070  0.82610  Biso   1.000  C
  C337     1.0000 0.73700  0.34190  0.92500  Biso   1.000  C
  C338     1.0000 0.40810  0.98700  0.17500  Biso   1.000  C
  C339     1.0000 0.26300  0.15810  0.92500  Biso   1.000  C
  C340     1.0000 0.59190  0.51300  0.17500  Biso   1.000  C
  C341     1.0000 0.23700  0.84190  0.42500  Biso   1.000  C
  C342     1.0000 0.90810  0.48700  0.67500  Biso   1.000  C
  C343     1.0000 0.76300  0.65810  0.42500  Biso   1.000  C
  C344     1.0000 0.09190  0.01300  0.67500  Biso   1.000  C
  C345     1.0000 0.26300  0.65810  0.07500  Biso   1.000  C
  C346     1.0000 0.09190  0.51300  0.32500  Biso   1.000  C
  C347     1.0000 0.73700  0.84190  0.07500  Biso   1.000  C
  C348     1.0000 0.90810  0.98700  0.32500  Biso   1.000  C
  C349     1.0000 0.76300  0.15810  0.57500  Biso   1.000  C
  C350     1.0000 0.59190  0.01300  0.82500  Biso   1.000  C
  C351     1.0000 0.23700  0.34190  0.57500  Biso   1.000  C
  C352     1.0000 0.40810  0.48700  0.82500  Biso   1.000  C
  H161     1.0000 0.64920  0.43730  0.81420  Biso   1.000  H
  H162     1.0000 0.31270  0.89920  0.06420  Biso   1.000  H
  H163     1.0000 0.35080  0.06270  0.81420  Biso   1.000  H
  H164     1.0000 0.68730  0.60080  0.06420  Biso   1.000  H
  H165     1.0000 0.14920  0.93730  0.31420  Biso   1.000  H
  H166     1.0000 0.81270  0.39920  0.56420  Biso   1.000  H
  H167     1.0000 0.85080  0.56270  0.31420  Biso   1.000  H
  H168     1.0000 0.18730  0.10080  0.56420  Biso   1.000  H
  H169     1.0000 0.35080  0.56270  0.18580  Biso   1.000  H
  H170     1.0000 0.18730  0.60080  0.43580  Biso   1.000  H
  H171     1.0000 0.64920  0.93730  0.18580  Biso   1.000  H
  H172     1.0000 0.81270  0.89920  0.43580  Biso   1.000  H
  H173     1.0000 0.85080  0.06270  0.68580  Biso   1.000  H
  H174     1.0000 0.68730  0.10080  0.93580  Biso   1.000  H
  H175     1.0000 0.14920  0.43730  0.68580  Biso   1.000  H
  H176     1.0000 0.31270  0.39920  0.93580  Biso   1.000  H
  H177     1.0000 0.75660  0.50060  0.81240  Biso   1.000  H
  H178     1.0000 0.24940  0.00660  0.06240  Biso   1.000  H
  H179     1.0000 0.24340  0.99940  0.81240  Biso   1.000  H
  H180     1.0000 0.75060  0.49340  0.06240  Biso   1.000  H
  H181     1.0000 0.25660  0.00060  0.31240  Biso   1.000  H
  H182     1.0000 0.74940  0.50660  0.56240  Biso   1.000  H
  H183     1.0000 0.74340  0.49940  0.31240  Biso   1.000  H
  H184     1.0000 0.25060  0.99340  0.56240  Biso   1.000  H
  H185     1.0000 0.24340  0.49940  0.18760  Biso   1.000  H
  H186     1.0000 0.25060  0.49340  0.43760  Biso   1.000  H
  H187     1.0000 0.75660  0.00060  0.18760  Biso   1.000  H
  H188     1.0000 0.74940  0.00660  0.43760  Biso   1.000  H
  H189     1.0000 0.74340  0.99940  0.68760  Biso   1.000  H
  H190     1.0000 0.75060  0.99340  0.93760  Biso   1.000  H
  H191     1.0000 0.25660  0.50060  0.68760  Biso   1.000  H
  H192     1.0000 0.24940  0.50660  0.93760  Biso   1.000  H
  H193     1.0000 0.83930  0.36490  0.95180  Biso   1.000  H
  H194     1.0000 0.38510  0.08930  0.20180  Biso   1.000  H
  H195     1.0000 0.16070  0.13510  0.95180  Biso   1.000  H
  H196     1.0000 0.61490  0.41070  0.20180  Biso   1.000  H
  H197     1.0000 0.33930  0.86490  0.45180  Biso   1.000  H
  H198     1.0000 0.88510  0.58930  0.70180  Biso   1.000  H
  H199     1.0000 0.66070  0.63510  0.45180  Biso   1.000  H
  H200     1.0000 0.11490  0.91070  0.70180  Biso   1.000  H
  H201     1.0000 0.16070  0.63510  0.04820  Biso   1.000  H
  H202     1.0000 0.11490  0.41070  0.29820  Biso   1.000  H
  H203     1.0000 0.83930  0.86490  0.04820  Biso   1.000  H
  H204     1.0000 0.88510  0.08930  0.29820  Biso   1.000  H
  H205     1.0000 0.66070  0.13510  0.54820  Biso   1.000  H
  H206     1.0000 0.61490  0.91070  0.79820  Biso   1.000  H
  H207     1.0000 0.33930  0.36490  0.54820  Biso   1.000  H
  H208     1.0000 0.38510  0.58930  0.79820  Biso   1.000  H
  H209     1.0000 0.73200  0.30150  0.95360  Biso   1.000  H
  H210     1.0000 0.44850  0.98200  0.20360  Biso   1.000  H
  H211     1.0000 0.26800  0.19850  0.95360  Biso   1.000  H
  H212     1.0000 0.55150  0.51800  0.20360  Biso   1.000  H
  H213     1.0000 0.23200  0.80150  0.45360  Biso   1.000  H
  H214     1.0000 0.94850  0.48200  0.70360  Biso   1.000  H
  H215     1.0000 0.76800  0.69850  0.45360  Biso   1.000  H
  H216     1.0000 0.05150  0.01800  0.70360  Biso   1.000  H
  H217     1.0000 0.26800  0.69850  0.04640  Biso   1.000  H
  H218     1.0000 0.05150  0.51800  0.29640  Biso   1.000  H
  H219     1.0000 0.73200  0.80150  0.04640  Biso   1.000  H
  H220     1.0000 0.94850  0.98200  0.29640  Biso   1.000  H
  H221     1.0000 0.76800  0.19850  0.54640  Biso   1.000  H
  H222     1.0000 0.55150  0.01800  0.79640  Biso   1.000  H
  H223     1.0000 0.23200  0.30150  0.54640  Biso   1.000  H
  H224     1.0000 0.44850  0.48200  0.79640  Biso   1.000  H
