data_image0
_cell_length_a       27.0187
_cell_length_b       18.508
_cell_length_c       15.4569
_cell_angle_alpha    90
_cell_angle_beta     124.91
_cell_angle_gamma    90

_symmetry_space_group_name_H-M    "P 1"
_symmetry_int_tables_number       1

loop_
  _symmetry_equiv_pos_as_xyz
  'x, y, z'

loop_
  _atom_site_label
  _atom_site_occupancy
  _atom_site_fract_x
  _atom_site_fract_y
  _atom_site_fract_z
  _atom_site_thermal_displace_type
  _atom_site_B_iso_or_equiv
  _atom_site_type_symbol
  O1       1.0000 0.75002  0.38360  0.61785  Biso   1.000  O
  O2       1.0000 0.24998  0.38360  0.88215  Biso   1.000  O
  O3       1.0000 0.25002  0.88360  0.61785  Biso   1.000  O
  O4       1.0000 0.74998  0.88360  0.88215  Biso   1.000  O
  O5       1.0000 0.24998  0.61640  0.38215  Biso   1.000  O
  O6       1.0000 0.75002  0.61640  0.11785  Biso   1.000  O
  O7       1.0000 0.74998  0.11640  0.38215  Biso   1.000  O
  O8       1.0000 0.25002  0.11640  0.11785  Biso   1.000  O
  N1       1.0000 0.75008  0.39739  0.69306  Biso   1.000  N
  N2       1.0000 0.24992  0.39739  0.80694  Biso   1.000  N
  N3       1.0000 0.25008  0.89739  0.69306  Biso   1.000  N
  N4       1.0000 0.74992  0.89739  0.80694  Biso   1.000  N
  N5       1.0000 0.24992  0.60261  0.30694  Biso   1.000  N
  N6       1.0000 0.75008  0.60261  0.19306  Biso   1.000  N
  N7       1.0000 0.74992  0.10261  0.30694  Biso   1.000  N
  N8       1.0000 0.25008  0.10261  0.19306  Biso   1.000  N
  O9       1.0000 0.80298  0.43589  0.76410  Biso   1.000  O
  O10      1.0000 0.19702  0.43589  0.73590  Biso   1.000  O
  O11      1.0000 0.30298  0.93589  0.76410  Biso   1.000  O
  O12      1.0000 0.69702  0.93589  0.73590  Biso   1.000  O
  O13      1.0000 0.19702  0.56411  0.23590  Biso   1.000  O
  O14      1.0000 0.80298  0.56411  0.26410  Biso   1.000  O
  O15      1.0000 0.69702  0.06411  0.23590  Biso   1.000  O
  O16      1.0000 0.30298  0.06411  0.26410  Biso   1.000  O
  N9       1.0000 0.71841  0.37281  0.72330  Biso   1.000  N
  N10      1.0000 0.28159  0.37281  0.77670  Biso   1.000  N
  N11      1.0000 0.21841  0.87281  0.72330  Biso   1.000  N
  N12      1.0000 0.78159  0.87281  0.77670  Biso   1.000  N
  N13      1.0000 0.28159  0.62719  0.27670  Biso   1.000  N
  N14      1.0000 0.71841  0.62719  0.22330  Biso   1.000  N
  N15      1.0000 0.78159  0.12719  0.27670  Biso   1.000  N
  N16      1.0000 0.21841  0.12719  0.22330  Biso   1.000  N
  O17      1.0000 0.70780  0.34350  0.84750  Biso   1.000  O
  O18      1.0000 0.29220  0.34350  0.65250  Biso   1.000  O
  O19      1.0000 0.20780  0.84350  0.84750  Biso   1.000  O
  O20      1.0000 0.79220  0.84350  0.65250  Biso   1.000  O
  O21      1.0000 0.29220  0.65650  0.15250  Biso   1.000  O
  O22      1.0000 0.70780  0.65650  0.34750  Biso   1.000  O
  O23      1.0000 0.79220  0.15650  0.15250  Biso   1.000  O
  O24      1.0000 0.20780  0.15650  0.34750  Biso   1.000  O
  O25      1.0000 0.80033  0.34684  0.89120  Biso   1.000  O
  O26      1.0000 0.19967  0.34684  0.60880  Biso   1.000  O
  O27      1.0000 0.30033  0.84684  0.89120  Biso   1.000  O
  O28      1.0000 0.69967  0.84684  0.60880  Biso   1.000  O
  O29      1.0000 0.19967  0.65316  0.10880  Biso   1.000  O
  O30      1.0000 0.80033  0.65316  0.39120  Biso   1.000  O
  O31      1.0000 0.69967  0.15316  0.10880  Biso   1.000  O
  O32      1.0000 0.30033  0.15316  0.39120  Biso   1.000  O
  N17      1.0000 0.74996  0.35494  0.83024  Biso   1.000  N
  N18      1.0000 0.25004  0.35494  0.66976  Biso   1.000  N
  N19      1.0000 0.24996  0.85494  0.83024  Biso   1.000  N
  N20      1.0000 0.75004  0.85494  0.66976  Biso   1.000  N
  N21      1.0000 0.25004  0.64506  0.16976  Biso   1.000  N
  N22      1.0000 0.74996  0.64506  0.33024  Biso   1.000  N
  N23      1.0000 0.75004  0.14506  0.16976  Biso   1.000  N
  N24      1.0000 0.24996  0.14506  0.33024  Biso   1.000  N
  N25      1.0000 0.78166  0.37278  0.78630  Biso   1.000  N
  N26      1.0000 0.21834  0.37278  0.71370  Biso   1.000  N
  N27      1.0000 0.28166  0.87278  0.78630  Biso   1.000  N
  N28      1.0000 0.71834  0.87278  0.71370  Biso   1.000  N
  N29      1.0000 0.21834  0.62722  0.21370  Biso   1.000  N
  N30      1.0000 0.78166  0.62722  0.28630  Biso   1.000  N
  N31      1.0000 0.71834  0.12722  0.21370  Biso   1.000  N
  N32      1.0000 0.28166  0.12722  0.28630  Biso   1.000  N
  O33      1.0000 0.69705  0.43565  0.65820  Biso   1.000  O
  O34      1.0000 0.30295  0.43565  0.84180  Biso   1.000  O
  O35      1.0000 0.19705  0.93565  0.65820  Biso   1.000  O
  O36      1.0000 0.80295  0.93565  0.84180  Biso   1.000  O
  O37      1.0000 0.30295  0.56435  0.34180  Biso   1.000  O
  O38      1.0000 0.69705  0.56435  0.15820  Biso   1.000  O
  O39      1.0000 0.80295  0.06435  0.34180  Biso   1.000  O
  O40      1.0000 0.19705  0.06435  0.15820  Biso   1.000  O
  O41      1.0000 0.69969  0.34670  0.79040  Biso   1.000  O
  O42      1.0000 0.30031  0.34670  0.70960  Biso   1.000  O
  O43      1.0000 0.19969  0.84670  0.79040  Biso   1.000  O
  O44      1.0000 0.80031  0.84670  0.70960  Biso   1.000  O
  O45      1.0000 0.30031  0.65330  0.20960  Biso   1.000  O
  O46      1.0000 0.69969  0.65330  0.29040  Biso   1.000  O
  O47      1.0000 0.80031  0.15330  0.20960  Biso   1.000  O
  O48      1.0000 0.19969  0.15330  0.29040  Biso   1.000  O
  O49      1.0000 0.79230  0.34370  0.93200  Biso   1.000  O
  O50      1.0000 0.20770  0.34370  0.56800  Biso   1.000  O
  O51      1.0000 0.29230  0.84370  0.93200  Biso   1.000  O
  O52      1.0000 0.70770  0.84370  0.56800  Biso   1.000  O
  O53      1.0000 0.20770  0.65630  0.06800  Biso   1.000  O
  O54      1.0000 0.79230  0.65630  0.43200  Biso   1.000  O
  O55      1.0000 0.70770  0.15630  0.06800  Biso   1.000  O
  O56      1.0000 0.29230  0.15630  0.43200  Biso   1.000  O
  O57      1.0000 0.75002  0.78579  0.17889  Biso   1.000  O
  O58      1.0000 0.24998  0.78579  0.32111  Biso   1.000  O
  O59      1.0000 0.25002  0.28579  0.17889  Biso   1.000  O
  O60      1.0000 0.74998  0.28579  0.32111  Biso   1.000  O
  O61      1.0000 0.24998  0.21421  0.82111  Biso   1.000  O
  O62      1.0000 0.75002  0.21421  0.67889  Biso   1.000  O
  O63      1.0000 0.74998  0.71421  0.82111  Biso   1.000  O
  O64      1.0000 0.25002  0.71421  0.67889  Biso   1.000  O
  O65      1.0000 0.74998  0.90603  0.37815  Biso   1.000  O
  O66      1.0000 0.25002  0.90603  0.12185  Biso   1.000  O
  O67      1.0000 0.24998  0.40603  0.37815  Biso   1.000  O
  O68      1.0000 0.75002  0.40603  0.12185  Biso   1.000  O
  O69      1.0000 0.25002  0.09397  0.62185  Biso   1.000  O
  O70      1.0000 0.74998  0.09397  0.87815  Biso   1.000  O
  O71      1.0000 0.75002  0.59397  0.62185  Biso   1.000  O
  O72      1.0000 0.24998  0.59397  0.87815  Biso   1.000  O
  N33      1.0000 0.75005  0.83843  0.22579  Biso   1.000  N
  N34      1.0000 0.24995  0.83843  0.27421  Biso   1.000  N
  N35      1.0000 0.25005  0.33843  0.22579  Biso   1.000  N
  N36      1.0000 0.74995  0.33843  0.27421  Biso   1.000  N
  N37      1.0000 0.24995  0.16157  0.77421  Biso   1.000  N
  N38      1.0000 0.75005  0.16157  0.72579  Biso   1.000  N
  N39      1.0000 0.74995  0.66157  0.77421  Biso   1.000  N
  N40      1.0000 0.25005  0.66157  0.72579  Biso   1.000  N
  N41      1.0000 0.71786  0.92002  0.28830  Biso   1.000  N
  N42      1.0000 0.28214  0.92002  0.21170  Biso   1.000  N
  N43      1.0000 0.21786  0.42002  0.28830  Biso   1.000  N
  N44      1.0000 0.78214  0.42002  0.21170  Biso   1.000  N
  N45      1.0000 0.28214  0.07998  0.71170  Biso   1.000  N
  N46      1.0000 0.71786  0.07998  0.78830  Biso   1.000  N
  N47      1.0000 0.78214  0.57998  0.71170  Biso   1.000  N
  N48      1.0000 0.21786  0.57998  0.78830  Biso   1.000  N
  O73      1.0000 0.68233  0.97151  0.25580  Biso   1.000  O
  O74      1.0000 0.31767  0.97151  0.24420  Biso   1.000  O
  O75      1.0000 0.18233  0.47151  0.25580  Biso   1.000  O
  O76      1.0000 0.81767  0.47151  0.24420  Biso   1.000  O
  O77      1.0000 0.31767  0.02849  0.74420  Biso   1.000  O
  O78      1.0000 0.68233  0.02849  0.75580  Biso   1.000  O
  O79      1.0000 0.81767  0.52849  0.74420  Biso   1.000  O
  O80      1.0000 0.18233  0.52849  0.75580  Biso   1.000  O
  N49      1.0000 0.70800  0.87440  0.20820  Biso   1.000  N
  N50      1.0000 0.29200  0.87440  0.29180  Biso   1.000  N
  N51      1.0000 0.20800  0.37440  0.20820  Biso   1.000  N
  N52      1.0000 0.79200  0.37440  0.29180  Biso   1.000  N
  N53      1.0000 0.29200  0.12560  0.79180  Biso   1.000  N
  N54      1.0000 0.70800  0.12560  0.70820  Biso   1.000  N
  N55      1.0000 0.79200  0.62560  0.79180  Biso   1.000  N
  N56      1.0000 0.20800  0.62560  0.70820  Biso   1.000  N
  O81      1.0000 0.81080  0.86070  0.30180  Biso   1.000  O
  O82      1.0000 0.18920  0.86070  0.19820  Biso   1.000  O
  O83      1.0000 0.31080  0.36070  0.30180  Biso   1.000  O
  O84      1.0000 0.68920  0.36070  0.19820  Biso   1.000  O
  O85      1.0000 0.18920  0.13930  0.69820  Biso   1.000  O
  O86      1.0000 0.81080  0.13930  0.80180  Biso   1.000  O
  O87      1.0000 0.68920  0.63930  0.69820  Biso   1.000  O
  O88      1.0000 0.31080  0.63930  0.80180  Biso   1.000  O
  O89      1.0000 0.68940  0.86090  0.18040  Biso   1.000  O
  O90      1.0000 0.31060  0.86090  0.31960  Biso   1.000  O
  O91      1.0000 0.18940  0.36090  0.18040  Biso   1.000  O
  O92      1.0000 0.81060  0.36090  0.31960  Biso   1.000  O
  O93      1.0000 0.31060  0.13910  0.81960  Biso   1.000  O
  O94      1.0000 0.68940  0.13910  0.68040  Biso   1.000  O
  O95      1.0000 0.81060  0.63910  0.81960  Biso   1.000  O
  O96      1.0000 0.18940  0.63910  0.68040  Biso   1.000  O
  N57      1.0000 0.79210  0.87430  0.29200  Biso   1.000  N
  N58      1.0000 0.20790  0.87430  0.20800  Biso   1.000  N
  N59      1.0000 0.29210  0.37430  0.29200  Biso   1.000  N
  N60      1.0000 0.70790  0.37430  0.20800  Biso   1.000  N
  N61      1.0000 0.20790  0.12570  0.70800  Biso   1.000  N
  N62      1.0000 0.79210  0.12570  0.79200  Biso   1.000  N
  N63      1.0000 0.70790  0.62570  0.70800  Biso   1.000  N
  N64      1.0000 0.29210  0.62570  0.79200  Biso   1.000  N
  O97      1.0000 0.81774  0.97161  0.39120  Biso   1.000  O
  O98      1.0000 0.18226  0.97161  0.10880  Biso   1.000  O
  O99      1.0000 0.31774  0.47161  0.39120  Biso   1.000  O
  O100     1.0000 0.68226  0.47161  0.10880  Biso   1.000  O
  O101     1.0000 0.18226  0.02839  0.60880  Biso   1.000  O
  O102     1.0000 0.81774  0.02839  0.89120  Biso   1.000  O
  O103     1.0000 0.68226  0.52839  0.60880  Biso   1.000  O
  O104     1.0000 0.31774  0.52839  0.89120  Biso   1.000  O
  N65      1.0000 0.78225  0.91986  0.35290  Biso   1.000  N
  N66      1.0000 0.21775  0.91986  0.14710  Biso   1.000  N
  N67      1.0000 0.28225  0.41986  0.35290  Biso   1.000  N
  N68      1.0000 0.71775  0.41986  0.14710  Biso   1.000  N
  N69      1.0000 0.21775  0.08014  0.64710  Biso   1.000  N
  N70      1.0000 0.78225  0.08014  0.85290  Biso   1.000  N
  N71      1.0000 0.71775  0.58014  0.64710  Biso   1.000  N
  N72      1.0000 0.28225  0.58014  0.85290  Biso   1.000  N
  Cu1      1.0000 0.00000  0.00000  0.00000  Biso   1.000  Cu
  Cu2      1.0000 0.00000  0.00000  0.50000  Biso   1.000  Cu
  Cu3      1.0000 0.50000  0.50000  0.00000  Biso   1.000  Cu
  Cu4      1.0000 0.50000  0.50000  0.50000  Biso   1.000  Cu
  Cu5      1.0000 0.00000  0.50000  0.50000  Biso   1.000  Cu
  Cu6      1.0000 0.00000  0.50000  0.00000  Biso   1.000  Cu
  Cu7      1.0000 0.50000  0.00000  0.50000  Biso   1.000  Cu
  Cu8      1.0000 0.50000  0.00000  0.00000  Biso   1.000  Cu
  N73      1.0000 0.05338  0.10886  0.02189  Biso   1.000  N
  N74      1.0000 0.94662  0.10886  0.47811  Biso   1.000  N
  N75      1.0000 0.55338  0.60886  0.02189  Biso   1.000  N
  N76      1.0000 0.44662  0.60886  0.47811  Biso   1.000  N
  N77      1.0000 0.94662  0.89114  0.97811  Biso   1.000  N
  N78      1.0000 0.05338  0.89114  0.52189  Biso   1.000  N
  N79      1.0000 0.44662  0.39114  0.97811  Biso   1.000  N
  N80      1.0000 0.55338  0.39114  0.52189  Biso   1.000  N
  N81      1.0000 0.93655  0.47498  0.52388  Biso   1.000  N
  N82      1.0000 0.06345  0.47498  0.97612  Biso   1.000  N
  N83      1.0000 0.43655  0.97498  0.52388  Biso   1.000  N
  N84      1.0000 0.56345  0.97498  0.97612  Biso   1.000  N
  N85      1.0000 0.06345  0.52502  0.47612  Biso   1.000  N
  N86      1.0000 0.93655  0.52502  0.02388  Biso   1.000  N
  N87      1.0000 0.56345  0.02502  0.47612  Biso   1.000  N
  N88      1.0000 0.43655  0.02502  0.02388  Biso   1.000  N
  N89      1.0000 0.56347  0.47495  0.15074  Biso   1.000  N
  N90      1.0000 0.43653  0.47495  0.34926  Biso   1.000  N
  N91      1.0000 0.06347  0.97495  0.15074  Biso   1.000  N
  N92      1.0000 0.93653  0.97495  0.34926  Biso   1.000  N
  N93      1.0000 0.43653  0.52505  0.84926  Biso   1.000  N
  N94      1.0000 0.56347  0.52505  0.65074  Biso   1.000  N
  N95      1.0000 0.93653  0.02505  0.84926  Biso   1.000  N
  N96      1.0000 0.06347  0.02505  0.65074  Biso   1.000  N
  N97      1.0000 0.09844  0.30919  0.70515  Biso   1.000  N
  N98      1.0000 0.90156  0.30919  0.79485  Biso   1.000  N
  N99      1.0000 0.59844  0.80919  0.70515  Biso   1.000  N
  N100     1.0000 0.40156  0.80919  0.79485  Biso   1.000  N
  N101     1.0000 0.90156  0.69081  0.29485  Biso   1.000  N
  N102     1.0000 0.09844  0.69081  0.20515  Biso   1.000  N
  N103     1.0000 0.40156  0.19081  0.29485  Biso   1.000  N
  N104     1.0000 0.59844  0.19081  0.20515  Biso   1.000  N
  N105     1.0000 0.09841  0.19080  0.99182  Biso   1.000  N
  N106     1.0000 0.90159  0.19080  0.50818  Biso   1.000  N
  N107     1.0000 0.59841  0.69080  0.99182  Biso   1.000  N
  N108     1.0000 0.40159  0.69080  0.50818  Biso   1.000  N
  N109     1.0000 0.90159  0.80920  0.00818  Biso   1.000  N
  N110     1.0000 0.09841  0.80920  0.49182  Biso   1.000  N
  N111     1.0000 0.40159  0.30920  0.00818  Biso   1.000  N
  N112     1.0000 0.59841  0.30920  0.49182  Biso   1.000  N
  N113     1.0000 0.05334  0.39112  0.58479  Biso   1.000  N
  N114     1.0000 0.94666  0.39112  0.91521  Biso   1.000  N
  N115     1.0000 0.55334  0.89112  0.58479  Biso   1.000  N
  N116     1.0000 0.44666  0.89112  0.91521  Biso   1.000  N
  N117     1.0000 0.94666  0.60888  0.41521  Biso   1.000  N
  N118     1.0000 0.05334  0.60888  0.08479  Biso   1.000  N
  N119     1.0000 0.44666  0.10888  0.41521  Biso   1.000  N
  N120     1.0000 0.55334  0.10888  0.08479  Biso   1.000  N
  N121     1.0000 0.90516  0.35999  0.24447  Biso   1.000  N
  N122     1.0000 0.09484  0.35999  0.25553  Biso   1.000  N
  N123     1.0000 0.40516  0.85999  0.24447  Biso   1.000  N
  N124     1.0000 0.59484  0.85999  0.25553  Biso   1.000  N
  N125     1.0000 0.09484  0.64001  0.75553  Biso   1.000  N
  N126     1.0000 0.90516  0.64001  0.74447  Biso   1.000  N
  N127     1.0000 0.59484  0.14001  0.75553  Biso   1.000  N
  N128     1.0000 0.40516  0.14001  0.74447  Biso   1.000  N
  N129     1.0000 0.61042  0.41487  0.29712  Biso   1.000  N
  N130     1.0000 0.38958  0.41487  0.20288  Biso   1.000  N
  N131     1.0000 0.11042  0.91487  0.29712  Biso   1.000  N
  N132     1.0000 0.88958  0.91487  0.20288  Biso   1.000  N
  N133     1.0000 0.38958  0.58513  0.70288  Biso   1.000  N
  N134     1.0000 0.61042  0.58513  0.79712  Biso   1.000  N
  N135     1.0000 0.88958  0.08513  0.70288  Biso   1.000  N
  N136     1.0000 0.11042  0.08513  0.79712  Biso   1.000  N
  N137     1.0000 0.90511  0.14005  0.06582  Biso   1.000  N
  N138     1.0000 0.09489  0.14005  0.43418  Biso   1.000  N
  N139     1.0000 0.40511  0.64005  0.06582  Biso   1.000  N
  N140     1.0000 0.59489  0.64005  0.43418  Biso   1.000  N
  N141     1.0000 0.09489  0.85995  0.93418  Biso   1.000  N
  N142     1.0000 0.90511  0.85995  0.56582  Biso   1.000  N
  N143     1.0000 0.59489  0.35995  0.93418  Biso   1.000  N
  N144     1.0000 0.40511  0.35995  0.56582  Biso   1.000  N
  N145     1.0000 0.88967  0.41485  0.57637  Biso   1.000  N
  N146     1.0000 0.11033  0.41485  0.92363  Biso   1.000  N
  N147     1.0000 0.38967  0.91485  0.57637  Biso   1.000  N
  N148     1.0000 0.61033  0.91485  0.92363  Biso   1.000  N
  N149     1.0000 0.11033  0.58515  0.42363  Biso   1.000  N
  N150     1.0000 0.88967  0.58515  0.07637  Biso   1.000  N
  N151     1.0000 0.61033  0.08515  0.42363  Biso   1.000  N
  N152     1.0000 0.38967  0.08515  0.07637  Biso   1.000  N
  C1       1.0000 0.09087  0.25005  0.84079  Biso   1.000  C
  C2       1.0000 0.90913  0.25005  0.65921  Biso   1.000  C
  C3       1.0000 0.59087  0.75005  0.84079  Biso   1.000  C
  C4       1.0000 0.40913  0.75005  0.65921  Biso   1.000  C
  C5       1.0000 0.90913  0.74995  0.15921  Biso   1.000  C
  C6       1.0000 0.09087  0.74995  0.34079  Biso   1.000  C
  C7       1.0000 0.40913  0.24995  0.15921  Biso   1.000  C
  C8       1.0000 0.59087  0.24995  0.34079  Biso   1.000  C
  H1       1.0000 0.06470  0.20890  0.79840  Biso   1.000  H
  H2       1.0000 0.93530  0.20890  0.70160  Biso   1.000  H
  H3       1.0000 0.56470  0.70890  0.79840  Biso   1.000  H
  H4       1.0000 0.43530  0.70890  0.70160  Biso   1.000  H
  H5       1.0000 0.93530  0.79110  0.20160  Biso   1.000  H
  H6       1.0000 0.06470  0.79110  0.29840  Biso   1.000  H
  H7       1.0000 0.43530  0.29110  0.20160  Biso   1.000  H
  H8       1.0000 0.56470  0.29110  0.29840  Biso   1.000  H
  H9       1.0000 0.06480  0.29140  0.83100  Biso   1.000  H
  H10      1.0000 0.93520  0.29140  0.66900  Biso   1.000  H
  H11      1.0000 0.56480  0.79140  0.83100  Biso   1.000  H
  H12      1.0000 0.43520  0.79140  0.66900  Biso   1.000  H
  H13      1.0000 0.93520  0.70860  0.16900  Biso   1.000  H
  H14      1.0000 0.06480  0.70860  0.33100  Biso   1.000  H
  H15      1.0000 0.43520  0.20860  0.16900  Biso   1.000  H
  H16      1.0000 0.56480  0.20860  0.33100  Biso   1.000  H
  N153     1.0000 0.86013  0.47691  0.53113  Biso   1.000  N
  N154     1.0000 0.13987  0.47691  0.96887  Biso   1.000  N
  N155     1.0000 0.36013  0.97691  0.53113  Biso   1.000  N
  N156     1.0000 0.63987  0.97691  0.96887  Biso   1.000  N
  N157     1.0000 0.13987  0.52309  0.46887  Biso   1.000  N
  N158     1.0000 0.86013  0.52309  0.03113  Biso   1.000  N
  N159     1.0000 0.63987  0.02309  0.46887  Biso   1.000  N
  N160     1.0000 0.36013  0.02309  0.03113  Biso   1.000  N
  N161     1.0000 0.63998  0.47693  0.31096  Biso   1.000  N
  N162     1.0000 0.36002  0.47693  0.18904  Biso   1.000  N
  N163     1.0000 0.13998  0.97693  0.31096  Biso   1.000  N
  N164     1.0000 0.86002  0.97693  0.18904  Biso   1.000  N
  N165     1.0000 0.36002  0.52307  0.68904  Biso   1.000  N
  N166     1.0000 0.63998  0.52307  0.81096  Biso   1.000  N
  N167     1.0000 0.86002  0.02307  0.68904  Biso   1.000  N
  N168     1.0000 0.13998  0.02307  0.81096  Biso   1.000  N
  N169     1.0000 0.95417  0.06032  0.04335  Biso   1.000  N
  N170     1.0000 0.04583  0.06032  0.45665  Biso   1.000  N
  N171     1.0000 0.45417  0.56032  0.04335  Biso   1.000  N
  N172     1.0000 0.54583  0.56032  0.45665  Biso   1.000  N
  N173     1.0000 0.04583  0.93968  0.95665  Biso   1.000  N
  N174     1.0000 0.95417  0.93968  0.54335  Biso   1.000  N
  N175     1.0000 0.54583  0.43968  0.95665  Biso   1.000  N
  N176     1.0000 0.45417  0.43968  0.54335  Biso   1.000  N
  N177     1.0000 0.95413  0.43970  0.36498  Biso   1.000  N
  N178     1.0000 0.04587  0.43970  0.13502  Biso   1.000  N
  N179     1.0000 0.45413  0.93970  0.36498  Biso   1.000  N
  N180     1.0000 0.54587  0.93970  0.13502  Biso   1.000  N
  N181     1.0000 0.04587  0.56030  0.63502  Biso   1.000  N
  N182     1.0000 0.95413  0.56030  0.86498  Biso   1.000  N
  N183     1.0000 0.54587  0.06030  0.63502  Biso   1.000  N
  N184     1.0000 0.45413  0.06030  0.86498  Biso   1.000  N
  N185     1.0000 0.91934  0.08627  0.13557  Biso   1.000  N
  N186     1.0000 0.08066  0.08627  0.36443  Biso   1.000  N
  N187     1.0000 0.41934  0.58627  0.13557  Biso   1.000  N
  N188     1.0000 0.58066  0.58627  0.36443  Biso   1.000  N
  N189     1.0000 0.08066  0.91373  0.86443  Biso   1.000  N
  N190     1.0000 0.91934  0.91373  0.63557  Biso   1.000  N
  N191     1.0000 0.58066  0.41373  0.86443  Biso   1.000  N
  N192     1.0000 0.41934  0.41373  0.63557  Biso   1.000  N
  N193     1.0000 0.94872  0.46169  0.27584  Biso   1.000  N
  N194     1.0000 0.05128  0.46169  0.22416  Biso   1.000  N
  N195     1.0000 0.44872  0.96169  0.27584  Biso   1.000  N
  N196     1.0000 0.55128  0.96169  0.22416  Biso   1.000  N
  N197     1.0000 0.05128  0.53831  0.72416  Biso   1.000  N
  N198     1.0000 0.94872  0.53831  0.77584  Biso   1.000  N
  N199     1.0000 0.55128  0.03831  0.72416  Biso   1.000  N
  N200     1.0000 0.44872  0.03831  0.77584  Biso   1.000  N
  N201     1.0000 0.94867  0.03836  0.12138  Biso   1.000  N
  N202     1.0000 0.05133  0.03836  0.37862  Biso   1.000  N
  N203     1.0000 0.44867  0.53836  0.12138  Biso   1.000  N
  N204     1.0000 0.55133  0.53836  0.37862  Biso   1.000  N
  N205     1.0000 0.05133  0.96164  0.87862  Biso   1.000  N
  N206     1.0000 0.94867  0.96164  0.62138  Biso   1.000  N
  N207     1.0000 0.55133  0.46164  0.87862  Biso   1.000  N
  N208     1.0000 0.44867  0.46164  0.62138  Biso   1.000  N
  N209     1.0000 0.08060  0.22205  0.04830  Biso   1.000  N
  N210     1.0000 0.91940  0.22205  0.45170  Biso   1.000  N
  N211     1.0000 0.58060  0.72205  0.04830  Biso   1.000  N
  N212     1.0000 0.41940  0.72205  0.45170  Biso   1.000  N
  N213     1.0000 0.91940  0.77795  0.95170  Biso   1.000  N
  N214     1.0000 0.08060  0.77795  0.54830  Biso   1.000  N
  N215     1.0000 0.41940  0.27795  0.95170  Biso   1.000  N
  N216     1.0000 0.58060  0.27795  0.54830  Biso   1.000  N
  N217     1.0000 0.91929  0.41375  0.20309  Biso   1.000  N
  N218     1.0000 0.08071  0.41375  0.29691  Biso   1.000  N
  N219     1.0000 0.41929  0.91375  0.20309  Biso   1.000  N
  N220     1.0000 0.58071  0.91375  0.29691  Biso   1.000  N
  N221     1.0000 0.08071  0.58625  0.79691  Biso   1.000  N
  N222     1.0000 0.91929  0.58625  0.70309  Biso   1.000  N
  N223     1.0000 0.58071  0.08625  0.79691  Biso   1.000  N
  N224     1.0000 0.41929  0.08625  0.70309  Biso   1.000  N
  N225     1.0000 0.08070  0.27792  0.61309  Biso   1.000  N
  N226     1.0000 0.91930  0.27792  0.88691  Biso   1.000  N
  N227     1.0000 0.58070  0.77792  0.61309  Biso   1.000  N
  N228     1.0000 0.41930  0.77792  0.88691  Biso   1.000  N
  N229     1.0000 0.91930  0.72208  0.38691  Biso   1.000  N
  N230     1.0000 0.08070  0.72208  0.11309  Biso   1.000  N
  N231     1.0000 0.41930  0.22208  0.38691  Biso   1.000  N
  N232     1.0000 0.58070  0.22208  0.11309  Biso   1.000  N
  N233     1.0000 0.56392  0.41375  0.19977  Biso   1.000  N
  N234     1.0000 0.43608  0.41375  0.30023  Biso   1.000  N
  N235     1.0000 0.06392  0.91375  0.19977  Biso   1.000  N
  N236     1.0000 0.93608  0.91375  0.30023  Biso   1.000  N
  N237     1.0000 0.43608  0.58625  0.80023  Biso   1.000  N
  N238     1.0000 0.56392  0.58625  0.69977  Biso   1.000  N
  N239     1.0000 0.93608  0.08625  0.80023  Biso   1.000  N
  N240     1.0000 0.06392  0.08625  0.69977  Biso   1.000  N
  C9       1.0000 0.87034  0.29765  0.17814  Biso   1.000  C
  C10      1.0000 0.12966  0.29765  0.32186  Biso   1.000  C
  C11      1.0000 0.37034  0.79765  0.17814  Biso   1.000  C
  C12      1.0000 0.62966  0.79765  0.32186  Biso   1.000  C
  C13      1.0000 0.12966  0.70235  0.82186  Biso   1.000  C
  C14      1.0000 0.87034  0.70235  0.67814  Biso   1.000  C
  C15      1.0000 0.62966  0.20235  0.82186  Biso   1.000  C
  C16      1.0000 0.37034  0.20235  0.67814  Biso   1.000  C
  H17      1.0000 0.83490  0.31480  0.10960  Biso   1.000  H
  H18      1.0000 0.16510  0.31480  0.39040  Biso   1.000  H
  H19      1.0000 0.33490  0.81480  0.10960  Biso   1.000  H
  H20      1.0000 0.66510  0.81480  0.39040  Biso   1.000  H
  H21      1.0000 0.16510  0.68520  0.89040  Biso   1.000  H
  H22      1.0000 0.83490  0.68520  0.60960  Biso   1.000  H
  H23      1.0000 0.66510  0.18520  0.89040  Biso   1.000  H
  H24      1.0000 0.33490  0.18520  0.60960  Biso   1.000  H
  H25      1.0000 0.85550  0.26910  0.21310  Biso   1.000  H
  H26      1.0000 0.14450  0.26910  0.28690  Biso   1.000  H
  H27      1.0000 0.35550  0.76910  0.21310  Biso   1.000  H
  H28      1.0000 0.64450  0.76910  0.28690  Biso   1.000  H
  H29      1.0000 0.14450  0.73090  0.78690  Biso   1.000  H
  H30      1.0000 0.85550  0.73090  0.71310  Biso   1.000  H
  H31      1.0000 0.64450  0.23090  0.78690  Biso   1.000  H
  H32      1.0000 0.35550  0.23090  0.71310  Biso   1.000  H
  C17      1.0000 0.87041  0.20235  0.06267  Biso   1.000  C
  C18      1.0000 0.12959  0.20235  0.43733  Biso   1.000  C
  C19      1.0000 0.37041  0.70235  0.06267  Biso   1.000  C
  C20      1.0000 0.62959  0.70235  0.43733  Biso   1.000  C
  C21      1.0000 0.12959  0.79765  0.93733  Biso   1.000  C
  C22      1.0000 0.87041  0.79765  0.56267  Biso   1.000  C
  C23      1.0000 0.62959  0.29765  0.93733  Biso   1.000  C
  C24      1.0000 0.37041  0.29765  0.56267  Biso   1.000  C
  H33      1.0000 0.83500  0.18520  0.06030  Biso   1.000  H
  H34      1.0000 0.16500  0.18520  0.43970  Biso   1.000  H
  H35      1.0000 0.33500  0.68520  0.06030  Biso   1.000  H
  H36      1.0000 0.66500  0.68520  0.43970  Biso   1.000  H
  H37      1.0000 0.16500  0.81480  0.93970  Biso   1.000  H
  H38      1.0000 0.83500  0.81480  0.56030  Biso   1.000  H
  H39      1.0000 0.66500  0.31480  0.93970  Biso   1.000  H
  H40      1.0000 0.33500  0.31480  0.56030  Biso   1.000  H
  H41      1.0000 0.85560  0.23090  0.99800  Biso   1.000  H
  H42      1.0000 0.14440  0.23090  0.50200  Biso   1.000  H
  H43      1.0000 0.35560  0.73090  0.99800  Biso   1.000  H
  H44      1.0000 0.64440  0.73090  0.50200  Biso   1.000  H
  H45      1.0000 0.14440  0.76910  0.00200  Biso   1.000  H
  H46      1.0000 0.85560  0.76910  0.49800  Biso   1.000  H
  H47      1.0000 0.64440  0.26910  0.00200  Biso   1.000  H
  H48      1.0000 0.35560  0.26910  0.49800  Biso   1.000  H
  C25      1.0000 0.75009  0.46735  0.42403  Biso   1.000  C
  C26      1.0000 0.24991  0.46735  0.07597  Biso   1.000  C
  C27      1.0000 0.25009  0.96735  0.42403  Biso   1.000  C
  C28      1.0000 0.74991  0.96735  0.07597  Biso   1.000  C
  C29      1.0000 0.24991  0.53265  0.57597  Biso   1.000  C
  C30      1.0000 0.75009  0.53265  0.92403  Biso   1.000  C
  C31      1.0000 0.74991  0.03265  0.57597  Biso   1.000  C
  C32      1.0000 0.25009  0.03265  0.92403  Biso   1.000  C
  H49      1.0000 0.75010  0.41390  0.42660  Biso   1.000  H
  H50      1.0000 0.24990  0.41390  0.07340  Biso   1.000  H
  H51      1.0000 0.25010  0.91390  0.42660  Biso   1.000  H
  H52      1.0000 0.74990  0.91390  0.07340  Biso   1.000  H
  H53      1.0000 0.24990  0.58610  0.57340  Biso   1.000  H
  H54      1.0000 0.75010  0.58610  0.92660  Biso   1.000  H
  H55      1.0000 0.74990  0.08610  0.57340  Biso   1.000  H
  H56      1.0000 0.25010  0.08610  0.92660  Biso   1.000  H
  H57      1.0000 0.75010  0.48210  0.36250  Biso   1.000  H
  H58      1.0000 0.24990  0.48210  0.13750  Biso   1.000  H
  H59      1.0000 0.25010  0.98210  0.36250  Biso   1.000  H
  H60      1.0000 0.74990  0.98210  0.13750  Biso   1.000  H
  H61      1.0000 0.24990  0.51790  0.63750  Biso   1.000  H
  H62      1.0000 0.75010  0.51790  0.86250  Biso   1.000  H
  H63      1.0000 0.74990  0.01790  0.63750  Biso   1.000  H
  H64      1.0000 0.25010  0.01790  0.86250  Biso   1.000  H
  N241     1.0000 0.93604  0.41382  0.57175  Biso   1.000  N
  N242     1.0000 0.06396  0.41382  0.92825  Biso   1.000  N
  N243     1.0000 0.43604  0.91382  0.57175  Biso   1.000  N
  N244     1.0000 0.56396  0.91382  0.92825  Biso   1.000  N
  N245     1.0000 0.06396  0.58618  0.42825  Biso   1.000  N
  N246     1.0000 0.93604  0.58618  0.07175  Biso   1.000  N
  N247     1.0000 0.56396  0.08618  0.42825  Biso   1.000  N
  N248     1.0000 0.43604  0.08618  0.07175  Biso   1.000  N
  C33      1.0000 0.13163  0.27072  0.80608  Biso   1.000  C
  C34      1.0000 0.86837  0.27072  0.69392  Biso   1.000  C
  C35      1.0000 0.63163  0.77072  0.80608  Biso   1.000  C
  C36      1.0000 0.36837  0.77072  0.69392  Biso   1.000  C
  C37      1.0000 0.86837  0.72928  0.19392  Biso   1.000  C
  C38      1.0000 0.13163  0.72928  0.30608  Biso   1.000  C
  C39      1.0000 0.36837  0.22928  0.19392  Biso   1.000  C
  C40      1.0000 0.63163  0.22928  0.30608  Biso   1.000  C
  H65      1.0000 0.16480  0.30180  0.86070  Biso   1.000  H
  H66      1.0000 0.83520  0.30180  0.63930  Biso   1.000  H
  H67      1.0000 0.66480  0.80180  0.86070  Biso   1.000  H
  H68      1.0000 0.33520  0.80180  0.63930  Biso   1.000  H
  H69      1.0000 0.83520  0.69820  0.13930  Biso   1.000  H
  H70      1.0000 0.16480  0.69820  0.36070  Biso   1.000  H
  H71      1.0000 0.33520  0.19820  0.13930  Biso   1.000  H
  H72      1.0000 0.66480  0.19820  0.36070  Biso   1.000  H
  H73      1.0000 0.14980  0.22650  0.79940  Biso   1.000  H
  H74      1.0000 0.85020  0.22650  0.70060  Biso   1.000  H
  H75      1.0000 0.64980  0.72650  0.79940  Biso   1.000  H
  H76      1.0000 0.35020  0.72650  0.70060  Biso   1.000  H
  H77      1.0000 0.85020  0.77350  0.20060  Biso   1.000  H
  H78      1.0000 0.14980  0.77350  0.29940  Biso   1.000  H
  H79      1.0000 0.35020  0.27350  0.20060  Biso   1.000  H
  H80      1.0000 0.64980  0.27350  0.29940  Biso   1.000  H
  C41      1.0000 0.13168  0.22914  0.95729  Biso   1.000  C
  C42      1.0000 0.86832  0.22914  0.54271  Biso   1.000  C
  C43      1.0000 0.63168  0.72914  0.95729  Biso   1.000  C
  C44      1.0000 0.36832  0.72914  0.54271  Biso   1.000  C
  C45      1.0000 0.86832  0.77086  0.04271  Biso   1.000  C
  C46      1.0000 0.13168  0.77086  0.45729  Biso   1.000  C
  C47      1.0000 0.36832  0.27086  0.04271  Biso   1.000  C
  C48      1.0000 0.63168  0.27086  0.45729  Biso   1.000  C
  H81      1.0000 0.16480  0.19790  0.96890  Biso   1.000  H
  H82      1.0000 0.83520  0.19790  0.53110  Biso   1.000  H
  H83      1.0000 0.66480  0.69790  0.96890  Biso   1.000  H
  H84      1.0000 0.33520  0.69790  0.53110  Biso   1.000  H
  H85      1.0000 0.83520  0.80210  0.03110  Biso   1.000  H
  H86      1.0000 0.16480  0.80210  0.46890  Biso   1.000  H
  H87      1.0000 0.33520  0.30210  0.03110  Biso   1.000  H
  H88      1.0000 0.66480  0.30210  0.46890  Biso   1.000  H
  H89      1.0000 0.15000  0.27330  0.00040  Biso   1.000  H
  H90      1.0000 0.85000  0.27330  0.49960  Biso   1.000  H
  H91      1.0000 0.65000  0.77330  0.00040  Biso   1.000  H
  H92      1.0000 0.35000  0.77330  0.49960  Biso   1.000  H
  H93      1.0000 0.85000  0.72670  0.99960  Biso   1.000  H
  H94      1.0000 0.15000  0.72670  0.50040  Biso   1.000  H
  H95      1.0000 0.35000  0.22670  0.99960  Biso   1.000  H
  H96      1.0000 0.65000  0.22670  0.50040  Biso   1.000  H
  N249     1.0000 0.05373  0.32754  0.54124  Biso   1.000  N
  N250     1.0000 0.94627  0.32754  0.95876  Biso   1.000  N
  N251     1.0000 0.55373  0.82754  0.54124  Biso   1.000  N
  N252     1.0000 0.44627  0.82754  0.95876  Biso   1.000  N
  N253     1.0000 0.94627  0.67246  0.45876  Biso   1.000  N
  N254     1.0000 0.05373  0.67246  0.04124  Biso   1.000  N
  N255     1.0000 0.44627  0.17246  0.45876  Biso   1.000  N
  N256     1.0000 0.55373  0.17246  0.04124  Biso   1.000  N
  C49      1.0000 0.61104  0.51310  0.22097  Biso   1.000  C
  C50      1.0000 0.38896  0.51310  0.27903  Biso   1.000  C
  C51      1.0000 0.11104  0.01310  0.22097  Biso   1.000  C
  C52      1.0000 0.88896  0.01310  0.27903  Biso   1.000  C
  C53      1.0000 0.38896  0.48690  0.77903  Biso   1.000  C
  C54      1.0000 0.61104  0.48690  0.72097  Biso   1.000  C
  C55      1.0000 0.88896  0.98690  0.77903  Biso   1.000  C
  C56      1.0000 0.11104  0.98690  0.72097  Biso   1.000  C
  H97      1.0000 0.62250  0.55850  0.20910  Biso   1.000  H
  H98      1.0000 0.37750  0.55850  0.29090  Biso   1.000  H
  H99      1.0000 0.12250  0.05850  0.20910  Biso   1.000  H
  H100     1.0000 0.87750  0.05850  0.29090  Biso   1.000  H
  H101     1.0000 0.37750  0.44150  0.79090  Biso   1.000  H
  H102     1.0000 0.62250  0.44150  0.70910  Biso   1.000  H
  H103     1.0000 0.87750  0.94150  0.79090  Biso   1.000  H
  H104     1.0000 0.12250  0.94150  0.70910  Biso   1.000  H
  C57      1.0000 0.88891  0.51303  0.49887  Biso   1.000  C
  C58      1.0000 0.11109  0.51303  0.00113  Biso   1.000  C
  C59      1.0000 0.38891  0.01303  0.49887  Biso   1.000  C
  C60      1.0000 0.61109  0.01303  0.00113  Biso   1.000  C
  C61      1.0000 0.11109  0.48697  0.50113  Biso   1.000  C
  C62      1.0000 0.88891  0.48697  0.99887  Biso   1.000  C
  C63      1.0000 0.61109  0.98697  0.50113  Biso   1.000  C
  C64      1.0000 0.38891  0.98697  0.99887  Biso   1.000  C
  H105     1.0000 0.87730  0.55840  0.46380  Biso   1.000  H
  H106     1.0000 0.12270  0.55840  0.03620  Biso   1.000  H
  H107     1.0000 0.37730  0.05840  0.46380  Biso   1.000  H
  H108     1.0000 0.62270  0.05840  0.03620  Biso   1.000  H
  H109     1.0000 0.12270  0.44160  0.53620  Biso   1.000  H
  H110     1.0000 0.87730  0.44160  0.96380  Biso   1.000  H
  H111     1.0000 0.62270  0.94160  0.53620  Biso   1.000  H
  H112     1.0000 0.37730  0.94160  0.96380  Biso   1.000  H
  N257     1.0000 0.05363  0.17249  0.06609  Biso   1.000  N
  N258     1.0000 0.94637  0.17249  0.43391  Biso   1.000  N
  N259     1.0000 0.55363  0.67249  0.06609  Biso   1.000  N
  N260     1.0000 0.44637  0.67249  0.43391  Biso   1.000  N
  N261     1.0000 0.94637  0.82751  0.93391  Biso   1.000  N
  N262     1.0000 0.05363  0.82751  0.56609  Biso   1.000  N
  N263     1.0000 0.44637  0.32751  0.93391  Biso   1.000  N
  N264     1.0000 0.55363  0.32751  0.56609  Biso   1.000  N
  C65      1.0000 0.92669  0.37655  0.34344  Biso   1.000  C
  C66      1.0000 0.07331  0.37655  0.15656  Biso   1.000  C
  C67      1.0000 0.42669  0.87655  0.34344  Biso   1.000  C
  C68      1.0000 0.57331  0.87655  0.15656  Biso   1.000  C
  C69      1.0000 0.07331  0.62345  0.65656  Biso   1.000  C
  C70      1.0000 0.92669  0.62345  0.84344  Biso   1.000  C
  C71      1.0000 0.57331  0.12345  0.65656  Biso   1.000  C
  C72      1.0000 0.42669  0.12345  0.84344  Biso   1.000  C
  H113     1.0000 0.92300  0.34800  0.39060  Biso   1.000  H
  H114     1.0000 0.07700  0.34800  0.10940  Biso   1.000  H
  H115     1.0000 0.42300  0.84800  0.39060  Biso   1.000  H
  H116     1.0000 0.57700  0.84800  0.10940  Biso   1.000  H
  H117     1.0000 0.07700  0.65200  0.60940  Biso   1.000  H
  H118     1.0000 0.92300  0.65200  0.89060  Biso   1.000  H
  H119     1.0000 0.57700  0.15200  0.60940  Biso   1.000  H
  H120     1.0000 0.42300  0.15200  0.89060  Biso   1.000  H
  C73      1.0000 0.92678  0.12352  0.00999  Biso   1.000  C
  C74      1.0000 0.07322  0.12352  0.49001  Biso   1.000  C
  C75      1.0000 0.42678  0.62352  0.00999  Biso   1.000  C
  C76      1.0000 0.57322  0.62352  0.49001  Biso   1.000  C
  C77      1.0000 0.07322  0.87648  0.99001  Biso   1.000  C
  C78      1.0000 0.92678  0.87648  0.50999  Biso   1.000  C
  C79      1.0000 0.57322  0.37648  0.99001  Biso   1.000  C
  C80      1.0000 0.42678  0.37648  0.50999  Biso   1.000  C
  H121     1.0000 0.92320  0.15210  0.95560  Biso   1.000  H
  H122     1.0000 0.07680  0.15210  0.54440  Biso   1.000  H
  H123     1.0000 0.42320  0.65210  0.95560  Biso   1.000  H
  H124     1.0000 0.57680  0.65210  0.54440  Biso   1.000  H
  H125     1.0000 0.07680  0.84790  0.04440  Biso   1.000  H
  H126     1.0000 0.92320  0.84790  0.45560  Biso   1.000  H
  H127     1.0000 0.57680  0.34790  0.04440  Biso   1.000  H
  H128     1.0000 0.42320  0.34790  0.45560  Biso   1.000  H
  C81      1.0000 0.90966  0.25006  0.15972  Biso   1.000  C
  C82      1.0000 0.09034  0.25006  0.34028  Biso   1.000  C
  C83      1.0000 0.40966  0.75006  0.15972  Biso   1.000  C
  C84      1.0000 0.59034  0.75006  0.34028  Biso   1.000  C
  C85      1.0000 0.09034  0.74994  0.84028  Biso   1.000  C
  C86      1.0000 0.90966  0.74994  0.65972  Biso   1.000  C
  C87      1.0000 0.59034  0.24994  0.84028  Biso   1.000  C
  C88      1.0000 0.40966  0.24994  0.65972  Biso   1.000  C
  H129     1.0000 0.93590  0.21930  0.22240  Biso   1.000  H
  H130     1.0000 0.06410  0.21930  0.27760  Biso   1.000  H
  H131     1.0000 0.43590  0.71930  0.22240  Biso   1.000  H
  H132     1.0000 0.56410  0.71930  0.27760  Biso   1.000  H
  H133     1.0000 0.06410  0.78070  0.77760  Biso   1.000  H
  H134     1.0000 0.93590  0.78070  0.72240  Biso   1.000  H
  H135     1.0000 0.56410  0.28070  0.77760  Biso   1.000  H
  H136     1.0000 0.43590  0.28070  0.72240  Biso   1.000  H
  H137     1.0000 0.93590  0.28090  0.14950  Biso   1.000  H
  H138     1.0000 0.06410  0.28090  0.35050  Biso   1.000  H
  H139     1.0000 0.43590  0.78090  0.14950  Biso   1.000  H
  H140     1.0000 0.56410  0.78090  0.35050  Biso   1.000  H
  H141     1.0000 0.06410  0.71910  0.85050  Biso   1.000  H
  H142     1.0000 0.93590  0.71910  0.64950  Biso   1.000  H
  H143     1.0000 0.56410  0.21910  0.85050  Biso   1.000  H
  H144     1.0000 0.43590  0.21910  0.64950  Biso   1.000  H
  C89      1.0000 0.80554  0.49676  0.52429  Biso   1.000  C
  C90      1.0000 0.19446  0.49676  0.97571  Biso   1.000  C
  C91      1.0000 0.30554  0.99676  0.52429  Biso   1.000  C
  C92      1.0000 0.69446  0.99676  0.97571  Biso   1.000  C
  C93      1.0000 0.19446  0.50324  0.47571  Biso   1.000  C
  C94      1.0000 0.80554  0.50324  0.02429  Biso   1.000  C
  C95      1.0000 0.69446  0.00324  0.47571  Biso   1.000  C
  C96      1.0000 0.30554  0.00324  0.02429  Biso   1.000  C
  H145     1.0000 0.80270  0.55000  0.52540  Biso   1.000  H
  H146     1.0000 0.19730  0.55000  0.97460  Biso   1.000  H
  H147     1.0000 0.30270  0.05000  0.52540  Biso   1.000  H
  H148     1.0000 0.69730  0.05000  0.97460  Biso   1.000  H
  H149     1.0000 0.19730  0.45000  0.47460  Biso   1.000  H
  H150     1.0000 0.80270  0.45000  0.02540  Biso   1.000  H
  H151     1.0000 0.69730  0.95000  0.47460  Biso   1.000  H
  H152     1.0000 0.30270  0.95000  0.02540  Biso   1.000  H
  H153     1.0000 0.80780  0.47710  0.58610  Biso   1.000  H
  H154     1.0000 0.19220  0.47710  0.91390  Biso   1.000  H
  H155     1.0000 0.30780  0.97710  0.58610  Biso   1.000  H
  H156     1.0000 0.69220  0.97710  0.91390  Biso   1.000  H
  H157     1.0000 0.19220  0.52290  0.41390  Biso   1.000  H
  H158     1.0000 0.80780  0.52290  0.08610  Biso   1.000  H
  H159     1.0000 0.69220  0.02290  0.41390  Biso   1.000  H
  H160     1.0000 0.30780  0.02290  0.08610  Biso   1.000  H
  C97      1.0000 0.69447  0.49674  0.41323  Biso   1.000  C
  C98      1.0000 0.30553  0.49674  0.08677  Biso   1.000  C
  C99      1.0000 0.19447  0.99674  0.41323  Biso   1.000  C
  C100     1.0000 0.80553  0.99674  0.08677  Biso   1.000  C
  C101     1.0000 0.30553  0.50326  0.58677  Biso   1.000  C
  C102     1.0000 0.69447  0.50326  0.91323  Biso   1.000  C
  C103     1.0000 0.80553  0.00326  0.58677  Biso   1.000  C
  C104     1.0000 0.19447  0.00326  0.91323  Biso   1.000  C
  H161     1.0000 0.69730  0.55000  0.42010  Biso   1.000  H
  H162     1.0000 0.30270  0.55000  0.07990  Biso   1.000  H
  H163     1.0000 0.19730  0.05000  0.42010  Biso   1.000  H
  H164     1.0000 0.80270  0.05000  0.07990  Biso   1.000  H
  H165     1.0000 0.30270  0.45000  0.57990  Biso   1.000  H
  H166     1.0000 0.69730  0.45000  0.92010  Biso   1.000  H
  H167     1.0000 0.80270  0.95000  0.57990  Biso   1.000  H
  H168     1.0000 0.19730  0.95000  0.92010  Biso   1.000  H
  H169     1.0000 0.69220  0.47710  0.47040  Biso   1.000  H
  H170     1.0000 0.30780  0.47710  0.02960  Biso   1.000  H
  H171     1.0000 0.19220  0.97710  0.47040  Biso   1.000  H
  H172     1.0000 0.80780  0.97710  0.02960  Biso   1.000  H
  H173     1.0000 0.30780  0.52290  0.52960  Biso   1.000  H
  H174     1.0000 0.69220  0.52290  0.97040  Biso   1.000  H
  H175     1.0000 0.80780  0.02290  0.52960  Biso   1.000  H
  H176     1.0000 0.19220  0.02290  0.97040  Biso   1.000  H
  C105     1.0000 0.08148  0.12224  0.97718  Biso   1.000  C
  C106     1.0000 0.91852  0.12224  0.52282  Biso   1.000  C
  C107     1.0000 0.58148  0.62224  0.97718  Biso   1.000  C
  C108     1.0000 0.41852  0.62224  0.52282  Biso   1.000  C
  C109     1.0000 0.91852  0.87776  0.02282  Biso   1.000  C
  C110     1.0000 0.08148  0.87776  0.47718  Biso   1.000  C
  C111     1.0000 0.41852  0.37776  0.02282  Biso   1.000  C
  C112     1.0000 0.58148  0.37776  0.47718  Biso   1.000  C
  H177     1.0000 0.08860  0.08790  0.93980  Biso   1.000  H
  H178     1.0000 0.91140  0.08790  0.56020  Biso   1.000  H
  H179     1.0000 0.58860  0.58790  0.93980  Biso   1.000  H
  H180     1.0000 0.41140  0.58790  0.56020  Biso   1.000  H
  H181     1.0000 0.91140  0.91210  0.06020  Biso   1.000  H
  H182     1.0000 0.08860  0.91210  0.43980  Biso   1.000  H
  H183     1.0000 0.41140  0.41210  0.06020  Biso   1.000  H
  H184     1.0000 0.58860  0.41210  0.43980  Biso   1.000  H
  C113     1.0000 0.08155  0.37780  0.68592  Biso   1.000  C
  C114     1.0000 0.91845  0.37780  0.81408  Biso   1.000  C
  C115     1.0000 0.58155  0.87780  0.68592  Biso   1.000  C
  C116     1.0000 0.41845  0.87780  0.81408  Biso   1.000  C
  C117     1.0000 0.91845  0.62220  0.31408  Biso   1.000  C
  C118     1.0000 0.08155  0.62220  0.18592  Biso   1.000  C
  C119     1.0000 0.41845  0.12220  0.31408  Biso   1.000  C
  C120     1.0000 0.58155  0.12220  0.18592  Biso   1.000  C
  H185     1.0000 0.08880  0.41220  0.73760  Biso   1.000  H
  H186     1.0000 0.91120  0.41220  0.76240  Biso   1.000  H
  H187     1.0000 0.58880  0.91220  0.73760  Biso   1.000  H
  H188     1.0000 0.41120  0.91220  0.76240  Biso   1.000  H
  H189     1.0000 0.91120  0.58780  0.26240  Biso   1.000  H
  H190     1.0000 0.08880  0.58780  0.23760  Biso   1.000  H
  H191     1.0000 0.41120  0.08780  0.26240  Biso   1.000  H
  H192     1.0000 0.58880  0.08780  0.23760  Biso   1.000  H
