data_image0
_cell_length_a       10.5076
_cell_length_b       33.8086
_cell_length_c       29.4609
_cell_angle_alpha    90
_cell_angle_beta     95.482
_cell_angle_gamma    90

_symmetry_space_group_name_H-M    "P 1"
_symmetry_int_tables_number       1

loop_
  _symmetry_equiv_pos_as_xyz
  'x, y, z'

loop_
  _atom_site_label
  _atom_site_occupancy
  _atom_site_fract_x
  _atom_site_fract_y
  _atom_site_fract_z
  _atom_site_thermal_displace_type
  _atom_site_B_iso_or_equiv
  _atom_site_type_symbol
  Cu1      1.0000 0.68793  0.24110  0.71129  Biso   1.000  Cu
  Cu2      1.0000 0.31207  0.74110  0.78871  Biso   1.000  Cu
  Cu3      1.0000 0.31207  0.75890  0.28871  Biso   1.000  Cu
  Cu4      1.0000 0.68793  0.25890  0.21129  Biso   1.000  Cu
  Cu5      1.0000 0.98129  0.23091  0.74226  Biso   1.000  Cu
  Cu6      1.0000 0.01871  0.73091  0.75774  Biso   1.000  Cu
  Cu7      1.0000 0.01871  0.76909  0.25774  Biso   1.000  Cu
  Cu8      1.0000 0.98129  0.26909  0.24226  Biso   1.000  Cu
  Cu9      1.0000 0.89598  0.29203  0.67301  Biso   1.000  Cu
  Cu10     1.0000 0.10402  0.79203  0.82699  Biso   1.000  Cu
  Cu11     1.0000 0.10402  0.70797  0.32699  Biso   1.000  Cu
  Cu12     1.0000 0.89598  0.20797  0.17301  Biso   1.000  Cu
  Cu13     1.0000 0.18880  0.29343  0.71374  Biso   1.000  Cu
  Cu14     1.0000 0.81120  0.79343  0.78626  Biso   1.000  Cu
  Cu15     1.0000 0.81120  0.70657  0.28626  Biso   1.000  Cu
  Cu16     1.0000 0.18880  0.20657  0.21374  Biso   1.000  Cu
  Cu17     1.0000 0.49871  0.30213  0.74582  Biso   1.000  Cu
  Cu18     1.0000 0.50129  0.80213  0.75418  Biso   1.000  Cu
  Cu19     1.0000 0.50129  0.69787  0.25418  Biso   1.000  Cu
  Cu20     1.0000 0.49871  0.19787  0.24582  Biso   1.000  Cu
  Cu21     1.0000 0.40185  0.24011  0.67777  Biso   1.000  Cu
  Cu22     1.0000 0.59815  0.74011  0.82223  Biso   1.000  Cu
  Cu23     1.0000 0.59815  0.75989  0.32223  Biso   1.000  Cu
  Cu24     1.0000 0.40185  0.25989  0.17777  Biso   1.000  Cu
  F1       1.0000 0.94840  0.02970  0.87890  Biso   1.000  F
  F2       1.0000 0.05160  0.52970  0.62110  Biso   1.000  F
  F3       1.0000 0.05160  0.97030  0.12110  Biso   1.000  F
  F4       1.0000 0.94840  0.47030  0.37890  Biso   1.000  F
  F5       1.0000 0.84750  0.08540  0.87360  Biso   1.000  F
  F6       1.0000 0.15250  0.58540  0.62640  Biso   1.000  F
  F7       1.0000 0.15250  0.91460  0.12640  Biso   1.000  F
  F8       1.0000 0.84750  0.41460  0.37360  Biso   1.000  F
  F9       1.0000 0.76510  0.03350  0.84270  Biso   1.000  F
  F10      1.0000 0.23490  0.53350  0.65730  Biso   1.000  F
  F11      1.0000 0.23490  0.96650  0.15730  Biso   1.000  F
  F12      1.0000 0.76510  0.46650  0.34270  Biso   1.000  F
  F13      1.0000 0.26580  0.99900  0.78750  Biso   1.000  F
  F14      1.0000 0.73420  0.49900  0.71250  Biso   1.000  F
  F15      1.0000 0.73420  0.00100  0.21250  Biso   1.000  F
  F16      1.0000 0.26580  0.50100  0.28750  Biso   1.000  F
  F17      1.0000 0.28990  0.96810  0.85310  Biso   1.000  F
  F18      1.0000 0.71010  0.46810  0.64690  Biso   1.000  F
  F19      1.0000 0.71010  0.03190  0.14690  Biso   1.000  F
  F20      1.0000 0.28990  0.53190  0.35310  Biso   1.000  F
  F21      1.0000 0.19930  0.02370  0.84690  Biso   1.000  F
  F22      1.0000 0.80070  0.52370  0.65310  Biso   1.000  F
  F23      1.0000 0.80070  0.97630  0.15310  Biso   1.000  F
  F24      1.0000 0.19930  0.47630  0.34690  Biso   1.000  F
  F25      1.0000 0.20550  0.36360  0.40960  Biso   1.000  F
  F26      1.0000 0.79450  0.86360  0.09040  Biso   1.000  F
  F27      1.0000 0.79450  0.63640  0.59040  Biso   1.000  F
  F28      1.0000 0.20550  0.13640  0.90960  Biso   1.000  F
  F29      1.0000 0.34040  0.35470  0.46610  Biso   1.000  F
  F30      1.0000 0.65960  0.85470  0.03390  Biso   1.000  F
  F31      1.0000 0.65960  0.64530  0.53390  Biso   1.000  F
  F32      1.0000 0.34040  0.14530  0.96610  Biso   1.000  F
  F33      1.0000 0.17370  0.32380  0.46360  Biso   1.000  F
  F34      1.0000 0.82630  0.82380  0.03640  Biso   1.000  F
  F35      1.0000 0.82630  0.67620  0.53640  Biso   1.000  F
  F36      1.0000 0.17370  0.17620  0.96360  Biso   1.000  F
  F37      1.0000 0.60070  0.34800  0.42780  Biso   1.000  F
  F38      1.0000 0.39930  0.84800  0.07220  Biso   1.000  F
  F39      1.0000 0.39930  0.65200  0.57220  Biso   1.000  F
  F40      1.0000 0.60070  0.15200  0.92780  Biso   1.000  F
  F41      1.0000 0.71190  0.29530  0.42270  Biso   1.000  F
  F42      1.0000 0.28810  0.79530  0.07730  Biso   1.000  F
  F43      1.0000 0.28810  0.70470  0.57730  Biso   1.000  F
  F44      1.0000 0.71190  0.20470  0.92270  Biso   1.000  F
  F45      1.0000 0.77570  0.34110  0.47030  Biso   1.000  F
  F46      1.0000 0.22430  0.84110  0.02970  Biso   1.000  F
  F47      1.0000 0.22430  0.65890  0.52970  Biso   1.000  F
  F48      1.0000 0.77570  0.15890  0.97030  Biso   1.000  F
  F49      1.0000 0.23400  0.06130  0.63230  Biso   1.000  F
  F50      1.0000 0.76600  0.56130  0.86770  Biso   1.000  F
  F51      1.0000 0.76600  0.93870  0.36770  Biso   1.000  F
  F52      1.0000 0.23400  0.43870  0.13230  Biso   1.000  F
  F53      1.0000 0.26880  0.02020  0.68600  Biso   1.000  F
  F54      1.0000 0.73120  0.52020  0.81400  Biso   1.000  F
  F55      1.0000 0.73120  0.97980  0.31400  Biso   1.000  F
  F56      1.0000 0.26880  0.47980  0.18600  Biso   1.000  F
  F57      1.0000 0.34150  0.00950  0.62420  Biso   1.000  F
  F58      1.0000 0.65850  0.50950  0.87580  Biso   1.000  F
  F59      1.0000 0.65850  0.99050  0.37580  Biso   1.000  F
  F60      1.0000 0.34150  0.49050  0.12420  Biso   1.000  F
  F61      1.0000 0.60620  0.01130  0.59710  Biso   1.000  F
  F62      1.0000 0.39380  0.51130  0.90290  Biso   1.000  F
  F63      1.0000 0.39380  0.98870  0.40290  Biso   1.000  F
  F64      1.0000 0.60620  0.48870  0.09710  Biso   1.000  F
  F65      1.0000 0.78850  0.00620  0.63610  Biso   1.000  F
  F66      1.0000 0.21150  0.50620  0.86390  Biso   1.000  F
  F67      1.0000 0.21150  0.99380  0.36390  Biso   1.000  F
  F68      1.0000 0.78850  0.49380  0.13610  Biso   1.000  F
  F69      1.0000 0.71540  0.95680  0.59540  Biso   1.000  F
  F70      1.0000 0.28460  0.45680  0.90460  Biso   1.000  F
  F71      1.0000 0.28460  0.04320  0.40460  Biso   1.000  F
  F72      1.0000 0.71540  0.54320  0.09540  Biso   1.000  F
  F73      1.0000 0.27970  0.15810  0.49390  Biso   1.000  F
  F74      1.0000 0.72030  0.65810  0.00610  Biso   1.000  F
  F75      1.0000 0.72030  0.84190  0.50610  Biso   1.000  F
  F76      1.0000 0.27970  0.34190  0.99390  Biso   1.000  F
  F77      1.0000 0.22000  0.19410  0.43670  Biso   1.000  F
  F78      1.0000 0.78000  0.69410  0.06330  Biso   1.000  F
  F79      1.0000 0.78000  0.80590  0.56330  Biso   1.000  F
  F80      1.0000 0.22000  0.30590  0.93670  Biso   1.000  F
  F81      1.0000 0.10600  0.14590  0.45300  Biso   1.000  F
  F82      1.0000 0.89400  0.64590  0.04700  Biso   1.000  F
  F83      1.0000 0.89400  0.85410  0.54700  Biso   1.000  F
  F84      1.0000 0.10600  0.35410  0.95300  Biso   1.000  F
  F85      1.0000 0.85420  0.14640  0.48710  Biso   1.000  F
  F86      1.0000 0.14580  0.64640  0.01290  Biso   1.000  F
  F87      1.0000 0.14580  0.85360  0.51290  Biso   1.000  F
  F88      1.0000 0.85420  0.35360  0.98710  Biso   1.000  F
  F89      1.0000 0.67830  0.17570  0.47540  Biso   1.000  F
  F90      1.0000 0.32170  0.67570  0.02460  Biso   1.000  F
  F91      1.0000 0.32170  0.82430  0.52460  Biso   1.000  F
  F92      1.0000 0.67830  0.32430  0.97540  Biso   1.000  F
  F93      1.0000 0.72210  0.12960  0.43560  Biso   1.000  F
  F94      1.0000 0.27790  0.62960  0.06440  Biso   1.000  F
  F95      1.0000 0.27790  0.87040  0.56440  Biso   1.000  F
  F96      1.0000 0.72210  0.37040  0.93560  Biso   1.000  F
  O1       1.0000 0.93450  0.17783  0.75760  Biso   1.000  O
  O2       1.0000 0.06550  0.67783  0.74240  Biso   1.000  O
  O3       1.0000 0.06550  0.82217  0.24240  Biso   1.000  O
  O4       1.0000 0.93450  0.32217  0.25760  Biso   1.000  O
  O5       1.0000 0.06860  0.16250  0.70750  Biso   1.000  O
  O6       1.0000 0.93140  0.66250  0.79250  Biso   1.000  O
  O7       1.0000 0.93140  0.83750  0.29250  Biso   1.000  O
  O8       1.0000 0.06860  0.33750  0.20750  Biso   1.000  O
  O9       1.0000 0.05410  0.84716  0.83744  Biso   1.000  O
  O10      1.0000 0.94590  0.34716  0.66256  Biso   1.000  O
  O11      1.0000 0.94590  0.15284  0.16256  Biso   1.000  O
  O12      1.0000 0.05410  0.65284  0.33744  Biso   1.000  O
  O13      1.0000 0.85010  0.84859  0.80560  Biso   1.000  O
  O14      1.0000 0.14990  0.34859  0.69440  Biso   1.000  O
  O15      1.0000 0.14990  0.15141  0.19440  Biso   1.000  O
  O16      1.0000 0.85010  0.65141  0.30560  Biso   1.000  O
  O17      1.0000 0.11210  0.27082  0.29220  Biso   1.000  O
  O18      1.0000 0.88790  0.77082  0.20780  Biso   1.000  O
  O19      1.0000 0.88790  0.72918  0.70780  Biso   1.000  O
  O20      1.0000 0.11210  0.22918  0.79220  Biso   1.000  O
  O21      1.0000 0.26930  0.23320  0.26970  Biso   1.000  O
  O22      1.0000 0.73070  0.73320  0.23030  Biso   1.000  O
  O23      1.0000 0.73070  0.76680  0.73030  Biso   1.000  O
  O24      1.0000 0.26930  0.26680  0.76970  Biso   1.000  O
  O25      1.0000 0.77610  0.29342  0.61890  Biso   1.000  O
  O26      1.0000 0.22390  0.79342  0.88110  Biso   1.000  O
  O27      1.0000 0.22390  0.70658  0.38110  Biso   1.000  O
  O28      1.0000 0.77610  0.20658  0.11890  Biso   1.000  O
  O29      1.0000 0.60630  0.26289  0.64490  Biso   1.000  O
  O30      1.0000 0.39370  0.76289  0.85510  Biso   1.000  O
  O31      1.0000 0.39370  0.73711  0.35510  Biso   1.000  O
  O32      1.0000 0.60630  0.23711  0.14490  Biso   1.000  O
  O33      1.0000 0.65060  0.18310  0.69800  Biso   1.000  O
  O34      1.0000 0.34940  0.68310  0.80200  Biso   1.000  O
  O35      1.0000 0.34940  0.81690  0.30200  Biso   1.000  O
  O36      1.0000 0.65060  0.31690  0.19800  Biso   1.000  O
  O37      1.0000 0.44310  0.18462  0.67100  Biso   1.000  O
  O38      1.0000 0.55690  0.68462  0.82900  Biso   1.000  O
  O39      1.0000 0.55690  0.81538  0.32900  Biso   1.000  O
  O40      1.0000 0.44310  0.31538  0.17100  Biso   1.000  O
  O41      1.0000 0.61410  0.84900  0.68640  Biso   1.000  O
  O42      1.0000 0.38590  0.34900  0.81360  Biso   1.000  O
  O43      1.0000 0.38590  0.15100  0.31360  Biso   1.000  O
  O44      1.0000 0.61410  0.65100  0.18640  Biso   1.000  O
  O45      1.0000 0.51680  0.85940  0.74950  Biso   1.000  O
  O46      1.0000 0.48320  0.35940  0.75050  Biso   1.000  O
  O47      1.0000 0.48320  0.14060  0.25050  Biso   1.000  O
  O48      1.0000 0.51680  0.64060  0.24950  Biso   1.000  O
  O49      1.0000 0.28170  0.23477  0.62562  Biso   1.000  O
  O50      1.0000 0.71830  0.73477  0.87438  Biso   1.000  O
  O51      1.0000 0.71830  0.76523  0.37438  Biso   1.000  O
  O52      1.0000 0.28170  0.26523  0.12562  Biso   1.000  O
  O53      1.0000 0.10740  0.26270  0.64870  Biso   1.000  O
  O54      1.0000 0.89260  0.76270  0.85130  Biso   1.000  O
  O55      1.0000 0.89260  0.73730  0.35130  Biso   1.000  O
  O56      1.0000 0.10740  0.23730  0.14870  Biso   1.000  O
  O57      1.0000 0.77290  0.24418  0.27424  Biso   1.000  O
  O58      1.0000 0.22710  0.74418  0.22576  Biso   1.000  O
  O59      1.0000 0.22710  0.75582  0.72576  Biso   1.000  O
  O60      1.0000 0.77290  0.25582  0.77424  Biso   1.000  O
  O61      1.0000 0.62730  0.20171  0.29830  Biso   1.000  O
  O62      1.0000 0.37270  0.70171  0.20170  Biso   1.000  O
  O63      1.0000 0.37270  0.79829  0.70170  Biso   1.000  O
  O64      1.0000 0.62730  0.29829  0.79830  Biso   1.000  O
  O65      1.0000 0.36020  0.29604  0.69396  Biso   1.000  O
  O66      1.0000 0.63980  0.79604  0.80604  Biso   1.000  O
  O67      1.0000 0.63980  0.70396  0.30604  Biso   1.000  O
  O68      1.0000 0.36020  0.20396  0.19396  Biso   1.000  O
  H1       1.0000 0.36790  0.31520  0.66850  Biso   1.000  H
  H2       1.0000 0.63210  0.81520  0.83150  Biso   1.000  H
  H3       1.0000 0.63210  0.68480  0.33150  Biso   1.000  H
  H4       1.0000 0.36790  0.18480  0.16850  Biso   1.000  H
  O69      1.0000 0.85360  0.23812  0.68922  Biso   1.000  O
  O70      1.0000 0.14640  0.73812  0.81078  Biso   1.000  O
  O71      1.0000 0.14640  0.76188  0.31078  Biso   1.000  O
  O72      1.0000 0.85360  0.26188  0.18922  Biso   1.000  O
  H5       1.0000 0.86000  0.21840  0.66430  Biso   1.000  H
  H6       1.0000 0.14000  0.71840  0.83570  Biso   1.000  H
  H7       1.0000 0.14000  0.78160  0.33570  Biso   1.000  H
  H8       1.0000 0.86000  0.28160  0.16430  Biso   1.000  H
  O73      1.0000 0.52100  0.24707  0.73165  Biso   1.000  O
  O74      1.0000 0.47900  0.74707  0.76835  Biso   1.000  O
  O75      1.0000 0.47900  0.75293  0.26835  Biso   1.000  O
  O76      1.0000 0.52100  0.25293  0.23165  Biso   1.000  O
  H9       1.0000 0.50470  0.22890  0.75720  Biso   1.000  H
  H10      1.0000 0.49530  0.72890  0.74280  Biso   1.000  H
  H11      1.0000 0.49530  0.77110  0.24280  Biso   1.000  H
  H12      1.0000 0.50470  0.27110  0.25720  Biso   1.000  H
  O77      1.0000 0.01460  0.28664  0.72853  Biso   1.000  O
  O78      1.0000 0.98540  0.78664  0.77147  Biso   1.000  O
  O79      1.0000 0.98540  0.71336  0.27147  Biso   1.000  O
  O80      1.0000 0.01460  0.21336  0.22853  Biso   1.000  O
  H13      1.0000 0.99270  0.30480  0.75340  Biso   1.000  H
  H14      1.0000 0.00730  0.80480  0.74660  Biso   1.000  H
  H15      1.0000 0.00730  0.69520  0.24660  Biso   1.000  H
  H16      1.0000 0.99270  0.19520  0.25340  Biso   1.000  H
  C1       1.0000 0.99790  0.15300  0.73720  Biso   1.000  C
  C2       1.0000 0.00210  0.65300  0.76280  Biso   1.000  C
  C3       1.0000 0.00210  0.84700  0.26280  Biso   1.000  C
  C4       1.0000 0.99790  0.34700  0.23720  Biso   1.000  C
  C5       1.0000 0.99090  0.11200  0.75220  Biso   1.000  C
  C6       1.0000 0.00910  0.61200  0.74780  Biso   1.000  C
  C7       1.0000 0.00910  0.88800  0.24780  Biso   1.000  C
  C8       1.0000 0.99090  0.38800  0.25220  Biso   1.000  C
  C9       1.0000 0.94300  0.10200  0.79320  Biso   1.000  C
  C10      1.0000 0.05700  0.60200  0.70680  Biso   1.000  C
  C11      1.0000 0.05700  0.89800  0.20680  Biso   1.000  C
  C12      1.0000 0.94300  0.39800  0.29320  Biso   1.000  C
  H17      1.0000 0.91350  0.12240  0.81170  Biso   1.000  H
  H18      1.0000 0.08650  0.62240  0.68830  Biso   1.000  H
  H19      1.0000 0.08650  0.87760  0.18830  Biso   1.000  H
  H20      1.0000 0.91350  0.37760  0.31170  Biso   1.000  H
  C13      1.0000 0.93690  0.06240  0.80790  Biso   1.000  C
  C14      1.0000 0.06310  0.56240  0.69210  Biso   1.000  C
  C15      1.0000 0.06310  0.93760  0.19210  Biso   1.000  C
  C16      1.0000 0.93690  0.43760  0.30790  Biso   1.000  C
  C17      1.0000 0.98250  0.03190  0.78140  Biso   1.000  C
  C18      1.0000 0.01750  0.53190  0.71860  Biso   1.000  C
  C19      1.0000 0.01750  0.96810  0.21860  Biso   1.000  C
  C20      1.0000 0.98250  0.46810  0.28140  Biso   1.000  C
  C21      1.0000 0.02850  0.04250  0.74090  Biso   1.000  C
  C22      1.0000 0.97150  0.54250  0.75910  Biso   1.000  C
  C23      1.0000 0.97150  0.95750  0.25910  Biso   1.000  C
  C24      1.0000 0.02850  0.45750  0.24090  Biso   1.000  C
  H21      1.0000 0.06060  0.02250  0.72230  Biso   1.000  H
  H22      1.0000 0.93940  0.52250  0.77770  Biso   1.000  H
  H23      1.0000 0.93940  0.97750  0.27770  Biso   1.000  H
  H24      1.0000 0.06060  0.47750  0.22230  Biso   1.000  H
  C25      1.0000 0.02900  0.08120  0.72670  Biso   1.000  C
  C26      1.0000 0.97100  0.58120  0.77330  Biso   1.000  C
  C27      1.0000 0.97100  0.91880  0.27330  Biso   1.000  C
  C28      1.0000 0.02900  0.41880  0.22670  Biso   1.000  C
  H25      1.0000 0.05720  0.08680  0.69770  Biso   1.000  H
  H26      1.0000 0.94280  0.58680  0.80230  Biso   1.000  H
  H27      1.0000 0.94280  0.91320  0.30230  Biso   1.000  H
  H28      1.0000 0.05720  0.41320  0.19770  Biso   1.000  H
  C29      1.0000 0.88240  0.05300  0.84830  Biso   1.000  C
  C30      1.0000 0.11760  0.55300  0.65170  Biso   1.000  C
  C31      1.0000 0.11760  0.94700  0.15170  Biso   1.000  C
  C32      1.0000 0.88240  0.44700  0.34830  Biso   1.000  C
  C33      1.0000 0.97780  0.98950  0.79450  Biso   1.000  C
  C34      1.0000 0.02220  0.48950  0.70550  Biso   1.000  C
  C35      1.0000 0.02220  0.01050  0.20550  Biso   1.000  C
  C36      1.0000 0.97780  0.51050  0.29450  Biso   1.000  C
  C37      1.0000 0.08190  0.96830  0.81460  Biso   1.000  C
  C38      1.0000 0.91810  0.46830  0.68540  Biso   1.000  C
  C39      1.0000 0.91810  0.03170  0.18540  Biso   1.000  C
  C40      1.0000 0.08190  0.53170  0.31460  Biso   1.000  C
  C41      1.0000 0.07570  0.92860  0.82400  Biso   1.000  C
  C42      1.0000 0.92430  0.42860  0.67600  Biso   1.000  C
  C43      1.0000 0.92430  0.07140  0.17600  Biso   1.000  C
  C44      1.0000 0.07570  0.57140  0.32400  Biso   1.000  C
  H29      1.0000 0.14790  0.91530  0.83870  Biso   1.000  H
  H30      1.0000 0.85210  0.41530  0.66130  Biso   1.000  H
  H31      1.0000 0.85210  0.08470  0.16130  Biso   1.000  H
  H32      1.0000 0.14790  0.58470  0.33870  Biso   1.000  H
  C45      1.0000 0.96350  0.90790  0.81200  Biso   1.000  C
  C46      1.0000 0.03650  0.40790  0.68800  Biso   1.000  C
  C47      1.0000 0.03650  0.09210  0.18800  Biso   1.000  C
  C48      1.0000 0.96350  0.59210  0.31200  Biso   1.000  C
  C49      1.0000 0.85960  0.92730  0.79050  Biso   1.000  C
  C50      1.0000 0.14040  0.42730  0.70950  Biso   1.000  C
  C51      1.0000 0.14040  0.07270  0.20950  Biso   1.000  C
  C52      1.0000 0.85960  0.57270  0.29050  Biso   1.000  C
  H33      1.0000 0.78210  0.91340  0.78240  Biso   1.000  H
  H34      1.0000 0.21790  0.41340  0.71760  Biso   1.000  H
  H35      1.0000 0.21790  0.08660  0.21760  Biso   1.000  H
  H36      1.0000 0.78210  0.58660  0.28240  Biso   1.000  H
  C53      1.0000 0.86840  0.96740  0.78070  Biso   1.000  C
  C54      1.0000 0.13160  0.46740  0.71930  Biso   1.000  C
  C55      1.0000 0.13160  0.03260  0.21930  Biso   1.000  C
  C56      1.0000 0.86840  0.53260  0.28070  Biso   1.000  C
  H37      1.0000 0.79810  0.98010  0.76400  Biso   1.000  H
  H38      1.0000 0.20190  0.48010  0.73600  Biso   1.000  H
  H39      1.0000 0.20190  0.01990  0.23600  Biso   1.000  H
  H40      1.0000 0.79810  0.51990  0.26400  Biso   1.000  H
  C57      1.0000 0.20880  0.98940  0.82720  Biso   1.000  C
  C58      1.0000 0.79120  0.48940  0.67280  Biso   1.000  C
  C59      1.0000 0.79120  0.01060  0.17280  Biso   1.000  C
  C60      1.0000 0.20880  0.51060  0.32720  Biso   1.000  C
  C61      1.0000 0.95710  0.86460  0.81910  Biso   1.000  C
  C62      1.0000 0.04290  0.36460  0.68090  Biso   1.000  C
  C63      1.0000 0.04290  0.13540  0.18090  Biso   1.000  C
  C64      1.0000 0.95710  0.63540  0.31910  Biso   1.000  C
  C65      1.0000 0.22120  0.25520  0.29750  Biso   1.000  C
  C66      1.0000 0.77880  0.75520  0.20250  Biso   1.000  C
  C67      1.0000 0.77880  0.74480  0.70250  Biso   1.000  C
  C68      1.0000 0.22120  0.24480  0.79750  Biso   1.000  C
  C69      1.0000 0.29350  0.26350  0.34260  Biso   1.000  C
  C70      1.0000 0.70650  0.76350  0.15740  Biso   1.000  C
  C71      1.0000 0.70650  0.73650  0.65740  Biso   1.000  C
  C72      1.0000 0.29350  0.23650  0.84260  Biso   1.000  C
  C73      1.0000 0.25550  0.29490  0.36790  Biso   1.000  C
  C74      1.0000 0.74450  0.79490  0.13210  Biso   1.000  C
  C75      1.0000 0.74450  0.70510  0.63210  Biso   1.000  C
  C76      1.0000 0.25550  0.20510  0.86790  Biso   1.000  C
  H41      1.0000 0.18560  0.31090  0.35620  Biso   1.000  H
  H42      1.0000 0.81440  0.81090  0.14380  Biso   1.000  H
  H43      1.0000 0.81440  0.68910  0.64380  Biso   1.000  H
  H44      1.0000 0.18560  0.18910  0.85620  Biso   1.000  H
  C77      1.0000 0.31890  0.30370  0.41100  Biso   1.000  C
  C78      1.0000 0.68110  0.80370  0.08900  Biso   1.000  C
  C79      1.0000 0.68110  0.69630  0.58900  Biso   1.000  C
  C80      1.0000 0.31890  0.19630  0.91100  Biso   1.000  C
  C81      1.0000 0.42150  0.28010  0.42900  Biso   1.000  C
  C82      1.0000 0.57850  0.78010  0.07100  Biso   1.000  C
  C83      1.0000 0.57850  0.71990  0.57100  Biso   1.000  C
  C84      1.0000 0.42150  0.21990  0.92900  Biso   1.000  C
  C85      1.0000 0.45900  0.24940  0.40290  Biso   1.000  C
  C86      1.0000 0.54100  0.74940  0.09710  Biso   1.000  C
  C87      1.0000 0.54100  0.75060  0.59710  Biso   1.000  C
  C88      1.0000 0.45900  0.25060  0.90290  Biso   1.000  C
  H45      1.0000 0.53010  0.23380  0.41410  Biso   1.000  H
  H46      1.0000 0.46990  0.73380  0.08590  Biso   1.000  H
  H47      1.0000 0.46990  0.76620  0.58590  Biso   1.000  H
  H48      1.0000 0.53010  0.26620  0.91410  Biso   1.000  H
  C89      1.0000 0.39530  0.24050  0.35990  Biso   1.000  C
  C90      1.0000 0.60470  0.74050  0.14010  Biso   1.000  C
  C91      1.0000 0.60470  0.75950  0.64010  Biso   1.000  C
  C92      1.0000 0.39530  0.25950  0.85990  Biso   1.000  C
  H49      1.0000 0.42220  0.21870  0.34280  Biso   1.000  H
  H50      1.0000 0.57780  0.71870  0.15720  Biso   1.000  H
  H51      1.0000 0.57780  0.78130  0.65720  Biso   1.000  H
  H52      1.0000 0.42220  0.28130  0.84280  Biso   1.000  H
  C93      1.0000 0.26650  0.33770  0.43640  Biso   1.000  C
  C94      1.0000 0.73350  0.83770  0.06360  Biso   1.000  C
  C95      1.0000 0.73350  0.66230  0.56360  Biso   1.000  C
  C96      1.0000 0.26650  0.16230  0.93640  Biso   1.000  C
  C97      1.0000 0.48270  0.28470  0.47690  Biso   1.000  C
  C98      1.0000 0.51730  0.78470  0.02310  Biso   1.000  C
  C99      1.0000 0.51730  0.71530  0.52310  Biso   1.000  C
  C100     1.0000 0.48270  0.21530  0.97690  Biso   1.000  C
  C101     1.0000 0.60190  0.30240  0.48820  Biso   1.000  C
  C102     1.0000 0.39810  0.80240  0.01180  Biso   1.000  C
  C103     1.0000 0.39810  0.69760  0.51180  Biso   1.000  C
  C104     1.0000 0.60190  0.19760  0.98820  Biso   1.000  C
  C105     1.0000 0.65730  0.30110  0.53190  Biso   1.000  C
  C106     1.0000 0.34270  0.80110  0.96810  Biso   1.000  C
  C107     1.0000 0.34270  0.69890  0.46810  Biso   1.000  C
  C108     1.0000 0.65730  0.19890  0.03190  Biso   1.000  C
  H53      1.0000 0.73910  0.31280  0.53880  Biso   1.000  H
  H54      1.0000 0.26090  0.81280  0.96120  Biso   1.000  H
  H55      1.0000 0.26090  0.68720  0.46120  Biso   1.000  H
  H56      1.0000 0.73910  0.18720  0.03880  Biso   1.000  H
  C109     1.0000 0.59760  0.28310  0.56690  Biso   1.000  C
  C110     1.0000 0.40240  0.78310  0.93310  Biso   1.000  C
  C111     1.0000 0.40240  0.71690  0.43310  Biso   1.000  C
  C112     1.0000 0.59760  0.21690  0.06690  Biso   1.000  C
  C113     1.0000 0.47540  0.26710  0.55530  Biso   1.000  C
  C114     1.0000 0.52460  0.76710  0.94470  Biso   1.000  C
  C115     1.0000 0.52460  0.73290  0.44470  Biso   1.000  C
  C116     1.0000 0.47540  0.23290  0.05530  Biso   1.000  C
  H57      1.0000 0.42990  0.25550  0.57830  Biso   1.000  H
  H58      1.0000 0.57010  0.75550  0.92170  Biso   1.000  H
  H59      1.0000 0.57010  0.74450  0.42170  Biso   1.000  H
  H60      1.0000 0.42990  0.24450  0.07830  Biso   1.000  H
  C117     1.0000 0.42210  0.26790  0.51170  Biso   1.000  C
  C118     1.0000 0.57790  0.76790  0.98830  Biso   1.000  C
  C119     1.0000 0.57790  0.73210  0.48830  Biso   1.000  C
  C120     1.0000 0.42210  0.23210  0.01170  Biso   1.000  C
  H61      1.0000 0.33990  0.25660  0.50480  Biso   1.000  H
  H62      1.0000 0.66010  0.75660  0.99520  Biso   1.000  H
  H63      1.0000 0.66010  0.74340  0.49520  Biso   1.000  H
  H64      1.0000 0.33990  0.24340  0.00480  Biso   1.000  H
  C121     1.0000 0.67340  0.32210  0.45310  Biso   1.000  C
  C122     1.0000 0.32660  0.82210  0.04690  Biso   1.000  C
  C123     1.0000 0.32660  0.67790  0.54690  Biso   1.000  C
  C124     1.0000 0.67340  0.17790  0.95310  Biso   1.000  C
  C125     1.0000 0.66380  0.27920  0.61450  Biso   1.000  C
  C126     1.0000 0.33620  0.77920  0.88550  Biso   1.000  C
  C127     1.0000 0.33620  0.72080  0.38550  Biso   1.000  C
  C128     1.0000 0.66380  0.22080  0.11450  Biso   1.000  C
  C129     1.0000 0.54660  0.16740  0.68390  Biso   1.000  C
  C130     1.0000 0.45340  0.66740  0.81610  Biso   1.000  C
  C131     1.0000 0.45340  0.83260  0.31610  Biso   1.000  C
  C132     1.0000 0.54660  0.33260  0.18390  Biso   1.000  C
  C133     1.0000 0.54710  0.12310  0.68350  Biso   1.000  C
  C134     1.0000 0.45290  0.62310  0.81650  Biso   1.000  C
  C135     1.0000 0.45290  0.87690  0.31650  Biso   1.000  C
  C136     1.0000 0.54710  0.37690  0.18350  Biso   1.000  C
  C137     1.0000 0.43940  0.10120  0.66780  Biso   1.000  C
  C138     1.0000 0.56060  0.60120  0.83220  Biso   1.000  C
  C139     1.0000 0.56060  0.89880  0.33220  Biso   1.000  C
  C140     1.0000 0.43940  0.39880  0.16780  Biso   1.000  C
  H65      1.0000 0.36420  0.11450  0.65550  Biso   1.000  H
  H66      1.0000 0.63580  0.61450  0.84450  Biso   1.000  H
  H67      1.0000 0.63580  0.88550  0.34450  Biso   1.000  H
  H68      1.0000 0.36420  0.38550  0.15550  Biso   1.000  H
  C141     1.0000 0.44090  0.06050  0.66980  Biso   1.000  C
  C142     1.0000 0.55910  0.56050  0.83020  Biso   1.000  C
  C143     1.0000 0.55910  0.93950  0.33020  Biso   1.000  C
  C144     1.0000 0.44090  0.43950  0.16980  Biso   1.000  C
  C145     1.0000 0.55150  0.04040  0.68660  Biso   1.000  C
  C146     1.0000 0.44850  0.54040  0.81340  Biso   1.000  C
  C147     1.0000 0.44850  0.95960  0.31340  Biso   1.000  C
  C148     1.0000 0.55150  0.45960  0.18660  Biso   1.000  C
  C149     1.0000 0.65950  0.06260  0.70190  Biso   1.000  C
  C150     1.0000 0.34050  0.56260  0.79810  Biso   1.000  C
  C151     1.0000 0.34050  0.93740  0.29810  Biso   1.000  C
  C152     1.0000 0.65950  0.43740  0.20190  Biso   1.000  C
  H69      1.0000 0.73480  0.04960  0.71450  Biso   1.000  H
  H70      1.0000 0.26520  0.54960  0.78550  Biso   1.000  H
  H71      1.0000 0.26520  0.95040  0.28550  Biso   1.000  H
  H72      1.0000 0.73480  0.45040  0.21450  Biso   1.000  H
  C153     1.0000 0.65750  0.10270  0.69880  Biso   1.000  C
  C154     1.0000 0.34250  0.60270  0.80120  Biso   1.000  C
  C155     1.0000 0.34250  0.89730  0.30120  Biso   1.000  C
  C156     1.0000 0.65750  0.39730  0.19880  Biso   1.000  C
  H73      1.0000 0.73350  0.11720  0.70740  Biso   1.000  H
  H74      1.0000 0.26650  0.61720  0.79260  Biso   1.000  H
  H75      1.0000 0.26650  0.88280  0.29260  Biso   1.000  H
  H76      1.0000 0.73350  0.38280  0.20740  Biso   1.000  H
  C157     1.0000 0.32230  0.03880  0.65170  Biso   1.000  C
  C158     1.0000 0.67770  0.53880  0.84830  Biso   1.000  C
  C159     1.0000 0.67770  0.96120  0.34830  Biso   1.000  C
  C160     1.0000 0.32230  0.46120  0.15170  Biso   1.000  C
  C161     1.0000 0.55600  0.99620  0.69160  Biso   1.000  C
  C162     1.0000 0.44400  0.49620  0.80840  Biso   1.000  C
  C163     1.0000 0.44400  0.00380  0.30840  Biso   1.000  C
  C164     1.0000 0.55600  0.50380  0.19160  Biso   1.000  C
  C165     1.0000 0.61470  0.97020  0.66140  Biso   1.000  C
  C166     1.0000 0.38530  0.47020  0.83860  Biso   1.000  C
  C167     1.0000 0.38530  0.02980  0.33860  Biso   1.000  C
  C168     1.0000 0.61470  0.52980  0.16140  Biso   1.000  C
  C169     1.0000 0.61590  0.93060  0.67020  Biso   1.000  C
  C170     1.0000 0.38410  0.43060  0.82980  Biso   1.000  C
  C171     1.0000 0.38410  0.06940  0.32980  Biso   1.000  C
  C172     1.0000 0.61590  0.56940  0.17020  Biso   1.000  C
  H77      1.0000 0.65430  0.91340  0.65000  Biso   1.000  H
  H78      1.0000 0.34570  0.41340  0.85000  Biso   1.000  H
  H79      1.0000 0.34570  0.08660  0.35000  Biso   1.000  H
  H80      1.0000 0.65430  0.58660  0.15000  Biso   1.000  H
  C173     1.0000 0.56460  0.91480  0.70650  Biso   1.000  C
  C174     1.0000 0.43540  0.41480  0.79350  Biso   1.000  C
  C175     1.0000 0.43540  0.08520  0.29350  Biso   1.000  C
  C176     1.0000 0.56460  0.58520  0.20650  Biso   1.000  C
  C177     1.0000 0.51330  0.93890  0.73790  Biso   1.000  C
  C178     1.0000 0.48670  0.43890  0.76210  Biso   1.000  C
  C179     1.0000 0.48670  0.06110  0.26210  Biso   1.000  C
  C180     1.0000 0.51330  0.56110  0.23790  Biso   1.000  C
  H81      1.0000 0.48150  0.92820  0.76440  Biso   1.000  H
  H82      1.0000 0.51850  0.42820  0.73560  Biso   1.000  H
  H83      1.0000 0.51850  0.07180  0.23560  Biso   1.000  H
  H84      1.0000 0.48150  0.57180  0.26440  Biso   1.000  H
  C181     1.0000 0.50970  0.97960  0.72930  Biso   1.000  C
  C182     1.0000 0.49030  0.47960  0.77070  Biso   1.000  C
  C183     1.0000 0.49030  0.02040  0.27070  Biso   1.000  C
  C184     1.0000 0.50970  0.52040  0.22930  Biso   1.000  C
  H85      1.0000 0.47380  0.99650  0.75050  Biso   1.000  H
  H86      1.0000 0.52620  0.49650  0.74950  Biso   1.000  H
  H87      1.0000 0.52620  0.00350  0.24950  Biso   1.000  H
  H88      1.0000 0.47380  0.50350  0.25050  Biso   1.000  H
  C185     1.0000 0.67500  0.98460  0.62110  Biso   1.000  C
  C186     1.0000 0.32500  0.48460  0.87890  Biso   1.000  C
  C187     1.0000 0.32500  0.01540  0.37890  Biso   1.000  C
  C188     1.0000 0.67500  0.51540  0.12110  Biso   1.000  C
  C189     1.0000 0.56790  0.87000  0.71340  Biso   1.000  C
  C190     1.0000 0.43210  0.37000  0.78660  Biso   1.000  C
  C191     1.0000 0.43210  0.13000  0.28660  Biso   1.000  C
  C192     1.0000 0.56790  0.63000  0.21340  Biso   1.000  C
  C193     1.0000 0.16500  0.24470  0.62060  Biso   1.000  C
  C194     1.0000 0.83500  0.74470  0.87940  Biso   1.000  C
  C195     1.0000 0.83500  0.75530  0.37940  Biso   1.000  C
  C196     1.0000 0.16500  0.25530  0.12060  Biso   1.000  C
  C197     1.0000 0.10110  0.23370  0.57460  Biso   1.000  C
  C198     1.0000 0.89890  0.73370  0.92540  Biso   1.000  C
  C199     1.0000 0.89890  0.76630  0.42540  Biso   1.000  C
  C200     1.0000 0.10110  0.26630  0.07460  Biso   1.000  C
  C201     1.0000 0.15950  0.20960  0.54650  Biso   1.000  C
  C202     1.0000 0.84050  0.70960  0.95350  Biso   1.000  C
  C203     1.0000 0.84050  0.79040  0.45350  Biso   1.000  C
  C204     1.0000 0.15950  0.29040  0.04650  Biso   1.000  C
  H89      1.0000 0.23970  0.19830  0.55700  Biso   1.000  H
  H90      1.0000 0.76030  0.69830  0.94300  Biso   1.000  H
  H91      1.0000 0.76030  0.80170  0.44300  Biso   1.000  H
  H92      1.0000 0.23970  0.30170  0.05700  Biso   1.000  H
  C205     1.0000 0.10630  0.20090  0.50290  Biso   1.000  C
  C206     1.0000 0.89370  0.70090  0.99710  Biso   1.000  C
  C207     1.0000 0.89370  0.79910  0.49710  Biso   1.000  C
  C208     1.0000 0.10630  0.29910  0.00290  Biso   1.000  C
  C209     1.0000 0.98850  0.21720  0.48650  Biso   1.000  C
  C210     1.0000 0.01150  0.71720  0.01350  Biso   1.000  C
  C211     1.0000 0.01150  0.78280  0.51350  Biso   1.000  C
  C212     1.0000 0.98850  0.28280  0.98650  Biso   1.000  C
  C213     1.0000 0.92930  0.24090  0.51540  Biso   1.000  C
  C214     1.0000 0.07070  0.74090  0.98460  Biso   1.000  C
  C215     1.0000 0.07070  0.75910  0.48460  Biso   1.000  C
  C216     1.0000 0.92930  0.25910  0.01540  Biso   1.000  C
  H93      1.0000 0.84790  0.25160  0.50520  Biso   1.000  H
  H94      1.0000 0.15210  0.75160  0.99480  Biso   1.000  H
  H95      1.0000 0.15210  0.74840  0.49480  Biso   1.000  H
  H96      1.0000 0.84790  0.24840  0.00520  Biso   1.000  H
  C217     1.0000 0.98190  0.25000  0.55860  Biso   1.000  C
  C218     1.0000 0.01810  0.75000  0.94140  Biso   1.000  C
  C219     1.0000 0.01810  0.75000  0.44140  Biso   1.000  C
  C220     1.0000 0.98190  0.25000  0.05860  Biso   1.000  C
  H97      1.0000 0.93830  0.26710  0.57740  Biso   1.000  H
  H98      1.0000 0.06170  0.76710  0.92260  Biso   1.000  H
  H99      1.0000 0.06170  0.73290  0.42260  Biso   1.000  H
  H100     1.0000 0.93830  0.23290  0.07740  Biso   1.000  H
  C221     1.0000 0.17720  0.17440  0.47240  Biso   1.000  C
  C222     1.0000 0.82280  0.67440  0.02760  Biso   1.000  C
  C223     1.0000 0.82280  0.82560  0.52760  Biso   1.000  C
  C224     1.0000 0.17720  0.32560  0.97240  Biso   1.000  C
  C225     1.0000 0.93010  0.21400  0.43760  Biso   1.000  C
  C226     1.0000 0.06990  0.71400  0.06240  Biso   1.000  C
  C227     1.0000 0.06990  0.78600  0.56240  Biso   1.000  C
  C228     1.0000 0.93010  0.28600  0.93760  Biso   1.000  C
  C229     1.0000 0.82860  0.18900  0.42400  Biso   1.000  C
  C230     1.0000 0.17140  0.68900  0.07600  Biso   1.000  C
  C231     1.0000 0.17140  0.81100  0.57600  Biso   1.000  C
  C232     1.0000 0.82860  0.31100  0.92400  Biso   1.000  C
  C233     1.0000 0.76480  0.19160  0.38030  Biso   1.000  C
  C234     1.0000 0.23520  0.69160  0.11970  Biso   1.000  C
  C235     1.0000 0.23520  0.80840  0.61970  Biso   1.000  C
  C236     1.0000 0.76480  0.30840  0.88030  Biso   1.000  C
  H101     1.0000 0.69440  0.17460  0.37190  Biso   1.000  H
  H102     1.0000 0.30560  0.67460  0.12810  Biso   1.000  H
  H103     1.0000 0.30560  0.82540  0.62810  Biso   1.000  H
  H104     1.0000 0.69440  0.32540  0.87190  Biso   1.000  H
  C237     1.0000 0.80260  0.21850  0.34930  Biso   1.000  C
  C238     1.0000 0.19740  0.71850  0.15070  Biso   1.000  C
  C239     1.0000 0.19740  0.78150  0.65070  Biso   1.000  C
  C240     1.0000 0.80260  0.28150  0.84930  Biso   1.000  C
  C241     1.0000 0.90150  0.24340  0.36310  Biso   1.000  C
  C242     1.0000 0.09850  0.74340  0.13690  Biso   1.000  C
  C243     1.0000 0.09850  0.75660  0.63690  Biso   1.000  C
  C244     1.0000 0.90150  0.25660  0.86310  Biso   1.000  C
  H105     1.0000 0.92660  0.26270  0.34230  Biso   1.000  H
  H106     1.0000 0.07340  0.76270  0.15770  Biso   1.000  H
  H107     1.0000 0.07340  0.73730  0.65770  Biso   1.000  H
  H108     1.0000 0.92660  0.23730  0.84230  Biso   1.000  H
  C245     1.0000 0.96640  0.24130  0.40640  Biso   1.000  C
  C246     1.0000 0.03360  0.74130  0.09360  Biso   1.000  C
  C247     1.0000 0.03360  0.75870  0.59360  Biso   1.000  C
  C248     1.0000 0.96640  0.25870  0.90640  Biso   1.000  C
  H109     1.0000 0.03590  0.25860  0.41460  Biso   1.000  H
  H110     1.0000 0.96410  0.75860  0.08540  Biso   1.000  H
  H111     1.0000 0.96410  0.74140  0.58540  Biso   1.000  H
  H112     1.0000 0.03590  0.24140  0.91460  Biso   1.000  H
  C249     1.0000 0.77460  0.15980  0.45630  Biso   1.000  C
  C250     1.0000 0.22540  0.65980  0.04370  Biso   1.000  C
  C251     1.0000 0.22540  0.84020  0.54370  Biso   1.000  C
  C252     1.0000 0.77460  0.34020  0.95630  Biso   1.000  C
  C253     1.0000 0.72810  0.22170  0.30340  Biso   1.000  C
  C254     1.0000 0.27190  0.72170  0.19660  Biso   1.000  C
  C255     1.0000 0.27190  0.77830  0.69660  Biso   1.000  C
  C256     1.0000 0.72810  0.27830  0.80340  Biso   1.000  C
  O81      1.0000 0.38560  0.35370  0.62840  Biso   1.000  O
  O82      1.0000 0.61440  0.85370  0.87160  Biso   1.000  O
  O83      1.0000 0.61440  0.64630  0.37160  Biso   1.000  O
  O84      1.0000 0.38560  0.14630  0.12840  Biso   1.000  O
  N1       1.0000 0.27500  0.40730  0.60460  Biso   1.000  N
  N2       1.0000 0.72500  0.90730  0.89540  Biso   1.000  N
  N3       1.0000 0.72500  0.59270  0.39540  Biso   1.000  N
  N4       1.0000 0.27500  0.09270  0.10460  Biso   1.000  N
  C257     1.0000 0.29460  0.37150  0.60720  Biso   1.000  C
  C258     1.0000 0.70540  0.87150  0.89280  Biso   1.000  C
  C259     1.0000 0.70540  0.62850  0.39280  Biso   1.000  C
  C260     1.0000 0.29460  0.12850  0.10720  Biso   1.000  C
  C261     1.0000 0.19120  0.34440  0.57810  Biso   1.000  C
  C262     1.0000 0.80880  0.84440  0.92190  Biso   1.000  C
  C263     1.0000 0.80880  0.65560  0.42190  Biso   1.000  C
  C264     1.0000 0.19120  0.15560  0.07810  Biso   1.000  C
  H113     1.0000 0.10520  0.35110  0.58590  Biso   1.000  H
  H114     1.0000 0.89480  0.85110  0.91410  Biso   1.000  H
  H115     1.0000 0.89480  0.64890  0.41410  Biso   1.000  H
  H116     1.0000 0.10520  0.14890  0.08590  Biso   1.000  H
  H117     1.0000 0.20880  0.31650  0.58510  Biso   1.000  H
  H118     1.0000 0.79120  0.81650  0.91490  Biso   1.000  H
  H119     1.0000 0.79120  0.68350  0.41490  Biso   1.000  H
  H120     1.0000 0.20880  0.18350  0.08510  Biso   1.000  H
  H121     1.0000 0.19650  0.34900  0.54550  Biso   1.000  H
  H122     1.0000 0.80350  0.84900  0.95450  Biso   1.000  H
  H123     1.0000 0.80350  0.65100  0.45450  Biso   1.000  H
  H124     1.0000 0.19650  0.15100  0.04550  Biso   1.000  H
  C265     1.0000 0.15900  0.42510  0.57740  Biso   1.000  C
  C266     1.0000 0.84100  0.92510  0.92260  Biso   1.000  C
  C267     1.0000 0.84100  0.57490  0.42260  Biso   1.000  C
  C268     1.0000 0.15900  0.07490  0.07740  Biso   1.000  C
  H125     1.0000 0.17770  0.42930  0.54590  Biso   1.000  H
  H126     1.0000 0.82230  0.92930  0.95410  Biso   1.000  H
  H127     1.0000 0.82230  0.57070  0.45410  Biso   1.000  H
  H128     1.0000 0.17770  0.07070  0.04590  Biso   1.000  H
  H129     1.0000 0.13780  0.45050  0.59100  Biso   1.000  H
  H130     1.0000 0.86220  0.95050  0.90900  Biso   1.000  H
  H131     1.0000 0.86220  0.54950  0.40900  Biso   1.000  H
  H132     1.0000 0.13780  0.04950  0.09100  Biso   1.000  H
  H133     1.0000 0.08600  0.40700  0.57790  Biso   1.000  H
  H134     1.0000 0.91400  0.90700  0.92210  Biso   1.000  H
  H135     1.0000 0.91400  0.59300  0.42210  Biso   1.000  H
  H136     1.0000 0.08600  0.09300  0.07790  Biso   1.000  H
  C269     1.0000 0.37600  0.43370  0.63480  Biso   1.000  C
  C270     1.0000 0.62400  0.93370  0.86520  Biso   1.000  C
  C271     1.0000 0.62400  0.56630  0.36520  Biso   1.000  C
  C272     1.0000 0.37600  0.06630  0.13480  Biso   1.000  C
  H137     1.0000 0.40910  0.41870  0.66190  Biso   1.000  H
  H138     1.0000 0.59090  0.91870  0.83810  Biso   1.000  H
  H139     1.0000 0.59090  0.58130  0.33810  Biso   1.000  H
  H140     1.0000 0.40910  0.08130  0.16190  Biso   1.000  H
  H141     1.0000 0.33440  0.45790  0.64420  Biso   1.000  H
  H142     1.0000 0.66560  0.95790  0.85580  Biso   1.000  H
  H143     1.0000 0.66560  0.54210  0.35580  Biso   1.000  H
  H144     1.0000 0.33440  0.04210  0.14420  Biso   1.000  H
  H145     1.0000 0.44670  0.44060  0.61680  Biso   1.000  H
  H146     1.0000 0.55330  0.94060  0.88320  Biso   1.000  H
  H147     1.0000 0.55330  0.55940  0.38320  Biso   1.000  H
  H148     1.0000 0.44670  0.05940  0.11680  Biso   1.000  H
  O85      1.0000 0.80110  0.19570  0.61360  Biso   1.000  O
  O86      1.0000 0.19890  0.69570  0.88640  Biso   1.000  O
  O87      1.0000 0.19890  0.80430  0.38640  Biso   1.000  O
  O88      1.0000 0.80110  0.30430  0.11360  Biso   1.000  O
  N5       1.0000 0.68420  0.14560  0.58200  Biso   1.000  N
  N6       1.0000 0.31580  0.64560  0.91800  Biso   1.000  N
  N7       1.0000 0.31580  0.85440  0.41800  Biso   1.000  N
  N8       1.0000 0.68420  0.35440  0.08200  Biso   1.000  N
  C273     1.0000 0.79420  0.16130  0.60130  Biso   1.000  C
  C274     1.0000 0.20580  0.66130  0.89870  Biso   1.000  C
  C275     1.0000 0.20580  0.83870  0.39870  Biso   1.000  C
  C276     1.0000 0.79420  0.33870  0.10130  Biso   1.000  C
  C277     1.0000 0.90670  0.13460  0.61050  Biso   1.000  C
  C278     1.0000 0.09330  0.63460  0.88950  Biso   1.000  C
  C279     1.0000 0.09330  0.86540  0.38950  Biso   1.000  C
  C280     1.0000 0.90670  0.36540  0.11050  Biso   1.000  C
  H149     1.0000 0.98050  0.15000  0.62350  Biso   1.000  H
  H150     1.0000 0.01950  0.65000  0.87650  Biso   1.000  H
  H151     1.0000 0.01950  0.85000  0.37650  Biso   1.000  H
  H152     1.0000 0.98050  0.35000  0.12350  Biso   1.000  H
  H153     1.0000 0.92680  0.12230  0.58190  Biso   1.000  H
  H154     1.0000 0.07320  0.62230  0.91810  Biso   1.000  H
  H155     1.0000 0.07320  0.87770  0.41810  Biso   1.000  H
  H156     1.0000 0.92680  0.37770  0.08190  Biso   1.000  H
  H157     1.0000 0.88680  0.11400  0.63210  Biso   1.000  H
  H158     1.0000 0.11320  0.61400  0.86790  Biso   1.000  H
  H159     1.0000 0.11320  0.88600  0.36790  Biso   1.000  H
  H160     1.0000 0.88680  0.38600  0.13210  Biso   1.000  H
  C281     1.0000 0.67700  0.10350  0.56750  Biso   1.000  C
  C282     1.0000 0.32300  0.60350  0.93250  Biso   1.000  C
  C283     1.0000 0.32300  0.89650  0.43250  Biso   1.000  C
  C284     1.0000 0.67700  0.39650  0.06750  Biso   1.000  C
  H161     1.0000 0.75900  0.09060  0.57570  Biso   1.000  H
  H162     1.0000 0.24100  0.59060  0.92430  Biso   1.000  H
  H163     1.0000 0.24100  0.90940  0.42430  Biso   1.000  H
  H164     1.0000 0.75900  0.40940  0.07570  Biso   1.000  H
  H165     1.0000 0.65570  0.10210  0.53440  Biso   1.000  H
  H166     1.0000 0.34430  0.60210  0.96560  Biso   1.000  H
  H167     1.0000 0.34430  0.89790  0.46560  Biso   1.000  H
  H168     1.0000 0.65570  0.39790  0.03440  Biso   1.000  H
  H169     1.0000 0.60990  0.09000  0.58280  Biso   1.000  H
  H170     1.0000 0.39010  0.59000  0.91720  Biso   1.000  H
  H171     1.0000 0.39010  0.91000  0.41720  Biso   1.000  H
  H172     1.0000 0.60990  0.41000  0.08280  Biso   1.000  H
  C285     1.0000 0.57220  0.17000  0.57130  Biso   1.000  C
  C286     1.0000 0.42780  0.67000  0.92870  Biso   1.000  C
  C287     1.0000 0.42780  0.83000  0.42870  Biso   1.000  C
  C288     1.0000 0.57220  0.33000  0.07130  Biso   1.000  C
  H173     1.0000 0.52250  0.17120  0.59780  Biso   1.000  H
  H174     1.0000 0.47750  0.67120  0.90220  Biso   1.000  H
  H175     1.0000 0.47750  0.82880  0.40220  Biso   1.000  H
  H176     1.0000 0.52250  0.32880  0.09780  Biso   1.000  H
  H177     1.0000 0.51940  0.15860  0.54530  Biso   1.000  H
  H178     1.0000 0.48060  0.65860  0.95470  Biso   1.000  H
  H179     1.0000 0.48060  0.84140  0.45470  Biso   1.000  H
  H180     1.0000 0.51940  0.34140  0.04530  Biso   1.000  H
  H181     1.0000 0.59880  0.19680  0.56350  Biso   1.000  H
  H182     1.0000 0.40120  0.69680  0.93650  Biso   1.000  H
  H183     1.0000 0.40120  0.80320  0.43650  Biso   1.000  H
  H184     1.0000 0.59880  0.30320  0.06350  Biso   1.000  H
  O89      1.0000 0.44630  0.18890  0.77980  Biso   1.000  O
  O90      1.0000 0.55370  0.68890  0.72020  Biso   1.000  O
  O91      1.0000 0.55370  0.81110  0.22020  Biso   1.000  O
  O92      1.0000 0.44630  0.31110  0.27980  Biso   1.000  O
  N9       1.0000 0.44520  0.12690  0.80330  Biso   1.000  N
  N10      1.0000 0.55480  0.62690  0.69670  Biso   1.000  N
  N11      1.0000 0.55480  0.87310  0.19670  Biso   1.000  N
  N12      1.0000 0.44520  0.37310  0.30330  Biso   1.000  N
  C289     1.0000 0.50450  0.15930  0.79770  Biso   1.000  C
  C290     1.0000 0.49550  0.65930  0.70230  Biso   1.000  C
  C291     1.0000 0.49550  0.84070  0.20230  Biso   1.000  C
  C292     1.0000 0.50450  0.34070  0.29770  Biso   1.000  C
  C293     1.0000 0.64520  0.16370  0.81450  Biso   1.000  C
  C294     1.0000 0.35480  0.66370  0.68550  Biso   1.000  C
  C295     1.0000 0.35480  0.83630  0.18550  Biso   1.000  C
  C296     1.0000 0.64520  0.33630  0.31450  Biso   1.000  C
  H185     1.0000 0.67960  0.18750  0.80100  Biso   1.000  H
  H186     1.0000 0.32040  0.68750  0.69900  Biso   1.000  H
  H187     1.0000 0.32040  0.81250  0.19900  Biso   1.000  H
  H188     1.0000 0.67960  0.31250  0.30100  Biso   1.000  H
  H189     1.0000 0.69230  0.14040  0.80550  Biso   1.000  H
  H190     1.0000 0.30770  0.64040  0.69450  Biso   1.000  H
  H191     1.0000 0.30770  0.85960  0.19450  Biso   1.000  H
  H192     1.0000 0.69230  0.35960  0.30550  Biso   1.000  H
  H193     1.0000 0.65450  0.16620  0.84780  Biso   1.000  H
  H194     1.0000 0.34550  0.66620  0.65220  Biso   1.000  H
  H195     1.0000 0.34550  0.83380  0.15220  Biso   1.000  H
  H196     1.0000 0.65450  0.33380  0.34780  Biso   1.000  H
  C297     1.0000 0.31180  0.12200  0.78450  Biso   1.000  C
  C298     1.0000 0.68820  0.62200  0.71550  Biso   1.000  C
  C299     1.0000 0.68820  0.87800  0.21550  Biso   1.000  C
  C300     1.0000 0.31180  0.37800  0.28450  Biso   1.000  C
  H197     1.0000 0.26790  0.14760  0.78450  Biso   1.000  H
  H198     1.0000 0.73210  0.64760  0.71550  Biso   1.000  H
  H199     1.0000 0.73210  0.85240  0.21550  Biso   1.000  H
  H200     1.0000 0.26790  0.35240  0.28450  Biso   1.000  H
  H201     1.0000 0.26910  0.10310  0.80310  Biso   1.000  H
  H202     1.0000 0.73090  0.60310  0.69690  Biso   1.000  H
  H203     1.0000 0.73090  0.89690  0.19690  Biso   1.000  H
  H204     1.0000 0.26910  0.39690  0.30310  Biso   1.000  H
  H205     1.0000 0.30930  0.11210  0.75310  Biso   1.000  H
  H206     1.0000 0.69070  0.61210  0.74690  Biso   1.000  H
  H207     1.0000 0.69070  0.88790  0.24690  Biso   1.000  H
  H208     1.0000 0.30930  0.38790  0.25310  Biso   1.000  H
  C301     1.0000 0.50720  0.09050  0.82220  Biso   1.000  C
  C302     1.0000 0.49280  0.59050  0.67780  Biso   1.000  C
  C303     1.0000 0.49280  0.90950  0.17780  Biso   1.000  C
  C304     1.0000 0.50720  0.40950  0.32220  Biso   1.000  C
  H209     1.0000 0.51070  0.07090  0.79780  Biso   1.000  H
  H210     1.0000 0.48930  0.57090  0.70220  Biso   1.000  H
  H211     1.0000 0.48930  0.92910  0.20220  Biso   1.000  H
  H212     1.0000 0.51070  0.42910  0.29780  Biso   1.000  H
  H213     1.0000 0.45800  0.07980  0.84600  Biso   1.000  H
  H214     1.0000 0.54200  0.57980  0.65400  Biso   1.000  H
  H215     1.0000 0.54200  0.92020  0.15400  Biso   1.000  H
  H216     1.0000 0.45800  0.42020  0.34600  Biso   1.000  H
  H217     1.0000 0.59420  0.09670  0.83530  Biso   1.000  H
  H218     1.0000 0.40580  0.59670  0.66470  Biso   1.000  H
  H219     1.0000 0.40580  0.90330  0.16470  Biso   1.000  H
  H220     1.0000 0.59420  0.40330  0.33530  Biso   1.000  H
  O93      1.0000 0.91260  0.34312  0.77660  Biso   1.000  O
  O94      1.0000 0.08740  0.84312  0.72340  Biso   1.000  O
  O95      1.0000 0.08740  0.65688  0.22340  Biso   1.000  O
  O96      1.0000 0.91260  0.15688  0.27660  Biso   1.000  O
  N13      1.0000 0.90810  0.39510  0.82290  Biso   1.000  N
  N14      1.0000 0.09190  0.89510  0.67710  Biso   1.000  N
  N15      1.0000 0.09190  0.60490  0.17710  Biso   1.000  N
  N16      1.0000 0.90810  0.10490  0.32290  Biso   1.000  N
  C305     1.0000 0.96410  0.36320  0.80840  Biso   1.000  C
  C306     1.0000 0.03590  0.86320  0.69160  Biso   1.000  C
  C307     1.0000 0.03590  0.63680  0.19160  Biso   1.000  C
  C308     1.0000 0.96410  0.13680  0.30840  Biso   1.000  C
  C309     1.0000 0.09390  0.35090  0.83060  Biso   1.000  C
  C310     1.0000 0.90610  0.85090  0.66940  Biso   1.000  C
  C311     1.0000 0.90610  0.64910  0.16940  Biso   1.000  C
  C312     1.0000 0.09390  0.14910  0.33060  Biso   1.000  C
  H221     1.0000 0.09050  0.34870  0.86360  Biso   1.000  H
  H222     1.0000 0.90950  0.84870  0.63640  Biso   1.000  H
  H223     1.0000 0.90950  0.65130  0.13640  Biso   1.000  H
  H224     1.0000 0.09050  0.15130  0.36360  Biso   1.000  H
  H225     1.0000 0.15780  0.37080  0.82430  Biso   1.000  H
  H226     1.0000 0.84220  0.87080  0.67570  Biso   1.000  H
  H227     1.0000 0.84220  0.62920  0.17570  Biso   1.000  H
  H228     1.0000 0.15780  0.12920  0.32430  Biso   1.000  H
  H229     1.0000 0.11760  0.32530  0.81830  Biso   1.000  H
  H230     1.0000 0.88240  0.82530  0.68170  Biso   1.000  H
  H231     1.0000 0.88240  0.67470  0.18170  Biso   1.000  H
  H232     1.0000 0.11760  0.17470  0.31830  Biso   1.000  H
  C313     1.0000 0.78140  0.40430  0.80230  Biso   1.000  C
  C314     1.0000 0.21860  0.90430  0.69770  Biso   1.000  C
  C315     1.0000 0.21860  0.59570  0.19770  Biso   1.000  C
  C316     1.0000 0.78140  0.09570  0.30230  Biso   1.000  C
  H233     1.0000 0.78360  0.42920  0.78550  Biso   1.000  H
  H234     1.0000 0.21640  0.92920  0.71450  Biso   1.000  H
  H235     1.0000 0.21640  0.57080  0.21450  Biso   1.000  H
  H236     1.0000 0.78360  0.07080  0.28550  Biso   1.000  H
  H237     1.0000 0.72290  0.40680  0.82610  Biso   1.000  H
  H238     1.0000 0.27710  0.90680  0.67390  Biso   1.000  H
  H239     1.0000 0.27710  0.59320  0.17390  Biso   1.000  H
  H240     1.0000 0.72290  0.09320  0.32610  Biso   1.000  H
  H241     1.0000 0.75180  0.38300  0.78120  Biso   1.000  H
  H242     1.0000 0.24820  0.88300  0.71880  Biso   1.000  H
  H243     1.0000 0.24820  0.61700  0.21880  Biso   1.000  H
  H244     1.0000 0.75180  0.11700  0.28120  Biso   1.000  H
  C317     1.0000 0.96400  0.41890  0.86180  Biso   1.000  C
  C318     1.0000 0.03600  0.91890  0.63820  Biso   1.000  C
  C319     1.0000 0.03600  0.58110  0.13820  Biso   1.000  C
  C320     1.0000 0.96400  0.08110  0.36180  Biso   1.000  C
  H245     1.0000 0.03550  0.40440  0.87790  Biso   1.000  H
  H246     1.0000 0.96450  0.90440  0.62210  Biso   1.000  H
  H247     1.0000 0.96450  0.59560  0.12210  Biso   1.000  H
  H248     1.0000 0.03550  0.09560  0.37790  Biso   1.000  H
  H249     1.0000 0.89870  0.42400  0.88270  Biso   1.000  H
  H250     1.0000 0.10130  0.92400  0.61730  Biso   1.000  H
  H251     1.0000 0.10130  0.57600  0.11730  Biso   1.000  H
  H252     1.0000 0.89870  0.07600  0.38270  Biso   1.000  H
  H253     1.0000 0.99490  0.44410  0.85060  Biso   1.000  H
  H254     1.0000 0.00510  0.94410  0.64940  Biso   1.000  H
  H255     1.0000 0.00510  0.55590  0.14940  Biso   1.000  H
  H256     1.0000 0.99490  0.05590  0.35060  Biso   1.000  H
