data_image0
_cell_length_a       14.2656
_cell_length_b       24.5432
_cell_length_c       29.298
_cell_angle_alpha    90
_cell_angle_beta     99.132
_cell_angle_gamma    90

_symmetry_space_group_name_H-M    "P 1"
_symmetry_int_tables_number       1

loop_
  _symmetry_equiv_pos_as_xyz
  'x, y, z'

loop_
  _atom_site_label
  _atom_site_occupancy
  _atom_site_fract_x
  _atom_site_fract_y
  _atom_site_fract_z
  _atom_site_thermal_displace_type
  _atom_site_B_iso_or_equiv
  _atom_site_type_symbol
  Cu1      1.0000 0.97344  0.00182  0.41629  Biso   1.000  Cu
  Cu2      1.0000 0.47344  0.50182  0.41629  Biso   1.000  Cu
  Cu3      1.0000 0.97344  0.99818  0.91629  Biso   1.000  Cu
  Cu4      1.0000 0.47344  0.49818  0.91629  Biso   1.000  Cu
  Cu5      1.0000 0.02656  0.99818  0.58371  Biso   1.000  Cu
  Cu6      1.0000 0.52656  0.49818  0.58371  Biso   1.000  Cu
  Cu7      1.0000 0.02656  0.00182  0.08371  Biso   1.000  Cu
  Cu8      1.0000 0.52656  0.50182  0.08371  Biso   1.000  Cu
  Cu9      1.0000 0.04773  0.08814  0.47305  Biso   1.000  Cu
  Cu10     1.0000 0.54773  0.58814  0.47305  Biso   1.000  Cu
  Cu11     1.0000 0.04773  0.91186  0.97305  Biso   1.000  Cu
  Cu12     1.0000 0.54773  0.41186  0.97305  Biso   1.000  Cu
  Cu13     1.0000 0.95227  0.91186  0.52695  Biso   1.000  Cu
  Cu14     1.0000 0.45227  0.41186  0.52695  Biso   1.000  Cu
  Cu15     1.0000 0.95227  0.08814  0.02695  Biso   1.000  Cu
  Cu16     1.0000 0.45227  0.58814  0.02695  Biso   1.000  Cu
  Cu17     1.0000 0.09331  0.92710  0.47253  Biso   1.000  Cu
  Cu18     1.0000 0.59331  0.42710  0.47253  Biso   1.000  Cu
  Cu19     1.0000 0.09331  0.07290  0.97253  Biso   1.000  Cu
  Cu20     1.0000 0.59331  0.57290  0.97253  Biso   1.000  Cu
  Cu21     1.0000 0.90669  0.07290  0.52747  Biso   1.000  Cu
  Cu22     1.0000 0.40669  0.57290  0.52747  Biso   1.000  Cu
  Cu23     1.0000 0.90669  0.92710  0.02747  Biso   1.000  Cu
  Cu24     1.0000 0.40669  0.42710  0.02747  Biso   1.000  Cu
  Cu25     1.0000 0.83221  0.98442  0.47225  Biso   1.000  Cu
  Cu26     1.0000 0.33221  0.48442  0.47225  Biso   1.000  Cu
  Cu27     1.0000 0.83221  0.01558  0.97225  Biso   1.000  Cu
  Cu28     1.0000 0.33221  0.51558  0.97225  Biso   1.000  Cu
  Cu29     1.0000 0.16779  0.01558  0.52775  Biso   1.000  Cu
  Cu30     1.0000 0.66779  0.51558  0.52775  Biso   1.000  Cu
  Cu31     1.0000 0.16779  0.98442  0.02775  Biso   1.000  Cu
  Cu32     1.0000 0.66779  0.48442  0.02775  Biso   1.000  Cu
  S1       1.0000 0.19810  0.06525  0.46740  Biso   1.000  S
  S2       1.0000 0.69810  0.56525  0.46740  Biso   1.000  S
  S3       1.0000 0.19810  0.93475  0.96740  Biso   1.000  S
  S4       1.0000 0.69810  0.43475  0.96740  Biso   1.000  S
  S5       1.0000 0.80190  0.93475  0.53260  Biso   1.000  S
  S6       1.0000 0.30190  0.43475  0.53260  Biso   1.000  S
  S7       1.0000 0.80190  0.06525  0.03260  Biso   1.000  S
  S8       1.0000 0.30190  0.56525  0.03260  Biso   1.000  S
  S9       1.0000 0.11573  0.96881  0.40670  Biso   1.000  S
  S10      1.0000 0.61573  0.46881  0.40670  Biso   1.000  S
  S11      1.0000 0.11573  0.03119  0.90670  Biso   1.000  S
  S12      1.0000 0.61573  0.53119  0.90670  Biso   1.000  S
  S13      1.0000 0.88427  0.03119  0.59330  Biso   1.000  S
  S14      1.0000 0.38427  0.53119  0.59330  Biso   1.000  S
  S15      1.0000 0.88427  0.96881  0.09330  Biso   1.000  S
  S16      1.0000 0.38427  0.46881  0.09330  Biso   1.000  S
  C1       1.0000 0.19760  0.02210  0.42040  Biso   1.000  C
  C2       1.0000 0.69760  0.52210  0.42040  Biso   1.000  C
  C3       1.0000 0.19760  0.97790  0.92040  Biso   1.000  C
  C4       1.0000 0.69760  0.47790  0.92040  Biso   1.000  C
  C5       1.0000 0.80240  0.97790  0.57960  Biso   1.000  C
  C6       1.0000 0.30240  0.47790  0.57960  Biso   1.000  C
  C7       1.0000 0.80240  0.02210  0.07960  Biso   1.000  C
  C8       1.0000 0.30240  0.52210  0.07960  Biso   1.000  C
  C9       1.0000 0.26520  0.02970  0.39270  Biso   1.000  C
  C10      1.0000 0.76520  0.52970  0.39270  Biso   1.000  C
  C11      1.0000 0.26520  0.97030  0.89270  Biso   1.000  C
  C12      1.0000 0.76520  0.47030  0.89270  Biso   1.000  C
  C13      1.0000 0.73480  0.97030  0.60730  Biso   1.000  C
  C14      1.0000 0.23480  0.47030  0.60730  Biso   1.000  C
  C15      1.0000 0.73480  0.02970  0.10730  Biso   1.000  C
  C16      1.0000 0.23480  0.52970  0.10730  Biso   1.000  C
  C17      1.0000 0.27200  0.99500  0.35440  Biso   1.000  C
  C18      1.0000 0.77200  0.49500  0.35440  Biso   1.000  C
  C19      1.0000 0.27200  0.00500  0.85440  Biso   1.000  C
  C20      1.0000 0.77200  0.50500  0.85440  Biso   1.000  C
  C21      1.0000 0.72800  0.00500  0.64560  Biso   1.000  C
  C22      1.0000 0.22800  0.50500  0.64560  Biso   1.000  C
  C23      1.0000 0.72800  0.99500  0.14560  Biso   1.000  C
  C24      1.0000 0.22800  0.49500  0.14560  Biso   1.000  C
  C25      1.0000 0.33190  0.07300  0.39930  Biso   1.000  C
  C26      1.0000 0.83190  0.57300  0.39930  Biso   1.000  C
  C27      1.0000 0.33190  0.92700  0.89930  Biso   1.000  C
  C28      1.0000 0.83190  0.42700  0.89930  Biso   1.000  C
  C29      1.0000 0.66810  0.92700  0.60070  Biso   1.000  C
  C30      1.0000 0.16810  0.42700  0.60070  Biso   1.000  C
  C31      1.0000 0.66810  0.07300  0.10070  Biso   1.000  C
  C32      1.0000 0.16810  0.57300  0.10070  Biso   1.000  C
  N1       1.0000 0.38570  0.10710  0.40370  Biso   1.000  N
  N2       1.0000 0.88570  0.60710  0.40370  Biso   1.000  N
  N3       1.0000 0.38570  0.89290  0.90370  Biso   1.000  N
  N4       1.0000 0.88570  0.39290  0.90370  Biso   1.000  N
  N5       1.0000 0.61430  0.89290  0.59630  Biso   1.000  N
  N6       1.0000 0.11430  0.39290  0.59630  Biso   1.000  N
  N7       1.0000 0.61430  0.10710  0.09630  Biso   1.000  N
  N8       1.0000 0.11430  0.60710  0.09630  Biso   1.000  N
  N9       1.0000 0.28030  0.96740  0.32320  Biso   1.000  N
  N10      1.0000 0.78030  0.46740  0.32320  Biso   1.000  N
  N11      1.0000 0.28030  0.03260  0.82320  Biso   1.000  N
  N12      1.0000 0.78030  0.53260  0.82320  Biso   1.000  N
  N13      1.0000 0.71970  0.03260  0.67680  Biso   1.000  N
  N14      1.0000 0.21970  0.53260  0.67680  Biso   1.000  N
  N15      1.0000 0.71970  0.96740  0.17680  Biso   1.000  N
  N16      1.0000 0.21970  0.46740  0.17680  Biso   1.000  N
  S17      1.0000 0.94279  0.09138  0.40700  Biso   1.000  S
  S18      1.0000 0.44279  0.59138  0.40700  Biso   1.000  S
  S19      1.0000 0.94279  0.90862  0.90700  Biso   1.000  S
  S20      1.0000 0.44279  0.40862  0.90700  Biso   1.000  S
  S21      1.0000 0.05721  0.90862  0.59300  Biso   1.000  S
  S22      1.0000 0.55721  0.40862  0.59300  Biso   1.000  S
  S23      1.0000 0.05721  0.09138  0.09300  Biso   1.000  S
  S24      1.0000 0.55721  0.59138  0.09300  Biso   1.000  S
  S25      1.0000 0.21242  0.92750  0.53254  Biso   1.000  S
  S26      1.0000 0.71242  0.42750  0.53254  Biso   1.000  S
  S27      1.0000 0.21242  0.07250  0.03254  Biso   1.000  S
  S28      1.0000 0.71242  0.57250  0.03254  Biso   1.000  S
  S29      1.0000 0.78758  0.07250  0.46746  Biso   1.000  S
  S30      1.0000 0.28758  0.57250  0.46746  Biso   1.000  S
  S31      1.0000 0.78758  0.92750  0.96746  Biso   1.000  S
  S32      1.0000 0.28758  0.42750  0.96746  Biso   1.000  S
  C33      1.0000 0.82800  0.10210  0.41990  Biso   1.000  C
  C34      1.0000 0.32800  0.60210  0.41990  Biso   1.000  C
  C35      1.0000 0.82800  0.89790  0.91990  Biso   1.000  C
  C36      1.0000 0.32800  0.39790  0.91990  Biso   1.000  C
  C37      1.0000 0.17200  0.89790  0.58010  Biso   1.000  C
  C38      1.0000 0.67200  0.39790  0.58010  Biso   1.000  C
  C39      1.0000 0.17200  0.10210  0.08010  Biso   1.000  C
  C40      1.0000 0.67200  0.60210  0.08010  Biso   1.000  C
  C41      1.0000 0.76870  0.13490  0.39150  Biso   1.000  C
  C42      1.0000 0.26870  0.63490  0.39150  Biso   1.000  C
  C43      1.0000 0.76870  0.86510  0.89150  Biso   1.000  C
  C44      1.0000 0.26870  0.36510  0.89150  Biso   1.000  C
  C45      1.0000 0.23130  0.86510  0.60850  Biso   1.000  C
  C46      1.0000 0.73130  0.36510  0.60850  Biso   1.000  C
  C47      1.0000 0.23130  0.13490  0.10850  Biso   1.000  C
  C48      1.0000 0.73130  0.63490  0.10850  Biso   1.000  C
  C49      1.0000 0.67400  0.14480  0.39940  Biso   1.000  C
  C50      1.0000 0.17400  0.64480  0.39940  Biso   1.000  C
  C51      1.0000 0.67400  0.85520  0.89940  Biso   1.000  C
  C52      1.0000 0.17400  0.35520  0.89940  Biso   1.000  C
  C53      1.0000 0.32600  0.85520  0.60060  Biso   1.000  C
  C54      1.0000 0.82600  0.35520  0.60060  Biso   1.000  C
  C55      1.0000 0.32600  0.14480  0.10060  Biso   1.000  C
  C56      1.0000 0.82600  0.64480  0.10060  Biso   1.000  C
  C57      1.0000 0.79550  0.16210  0.35250  Biso   1.000  C
  C58      1.0000 0.29550  0.66210  0.35250  Biso   1.000  C
  C59      1.0000 0.79550  0.83790  0.85250  Biso   1.000  C
  C60      1.0000 0.29550  0.33790  0.85250  Biso   1.000  C
  C61      1.0000 0.20450  0.83790  0.64750  Biso   1.000  C
  C62      1.0000 0.70450  0.33790  0.64750  Biso   1.000  C
  C63      1.0000 0.20450  0.16210  0.14750  Biso   1.000  C
  C64      1.0000 0.70450  0.66210  0.14750  Biso   1.000  C
  N17      1.0000 0.59810  0.15480  0.40420  Biso   1.000  N
  N18      1.0000 0.09810  0.65480  0.40420  Biso   1.000  N
  N19      1.0000 0.59810  0.84520  0.90420  Biso   1.000  N
  N20      1.0000 0.09810  0.34520  0.90420  Biso   1.000  N
  N21      1.0000 0.40190  0.84520  0.59580  Biso   1.000  N
  N22      1.0000 0.90190  0.34520  0.59580  Biso   1.000  N
  N23      1.0000 0.40190  0.15480  0.09580  Biso   1.000  N
  N24      1.0000 0.90190  0.65480  0.09580  Biso   1.000  N
  N25      1.0000 0.81300  0.18440  0.31880  Biso   1.000  N
  N26      1.0000 0.31300  0.68440  0.31880  Biso   1.000  N
  N27      1.0000 0.81300  0.81560  0.81880  Biso   1.000  N
  N28      1.0000 0.31300  0.31560  0.81880  Biso   1.000  N
  N29      1.0000 0.18700  0.81560  0.68120  Biso   1.000  N
  N30      1.0000 0.68700  0.31560  0.68120  Biso   1.000  N
  N31      1.0000 0.18700  0.18440  0.18120  Biso   1.000  N
  N32      1.0000 0.68700  0.68440  0.18120  Biso   1.000  N
  S33      1.0000 0.02016  0.13769  0.53401  Biso   1.000  S
  S34      1.0000 0.52016  0.63769  0.53401  Biso   1.000  S
  S35      1.0000 0.02016  0.86231  0.03401  Biso   1.000  S
  S36      1.0000 0.52016  0.36231  0.03401  Biso   1.000  S
  S37      1.0000 0.97984  0.86231  0.46599  Biso   1.000  S
  S38      1.0000 0.47984  0.36231  0.46599  Biso   1.000  S
  S39      1.0000 0.97984  0.13769  0.96599  Biso   1.000  S
  S40      1.0000 0.47984  0.63769  0.96599  Biso   1.000  S
  S41      1.0000 0.85003  0.94340  0.40552  Biso   1.000  S
  S42      1.0000 0.35003  0.44340  0.40552  Biso   1.000  S
  S43      1.0000 0.85003  0.05660  0.90552  Biso   1.000  S
  S44      1.0000 0.35003  0.55660  0.90552  Biso   1.000  S
  S45      1.0000 0.14997  0.05660  0.59448  Biso   1.000  S
  S46      1.0000 0.64997  0.55660  0.59448  Biso   1.000  S
  S47      1.0000 0.14997  0.94340  0.09448  Biso   1.000  S
  S48      1.0000 0.64997  0.44340  0.09448  Biso   1.000  S
  C65      1.0000 0.10130  0.12140  0.58110  Biso   1.000  C
  C66      1.0000 0.60130  0.62140  0.58110  Biso   1.000  C
  C67      1.0000 0.10130  0.87860  0.08110  Biso   1.000  C
  C68      1.0000 0.60130  0.37860  0.08110  Biso   1.000  C
  C69      1.0000 0.89870  0.87860  0.41890  Biso   1.000  C
  C70      1.0000 0.39870  0.37860  0.41890  Biso   1.000  C
  C71      1.0000 0.89870  0.12140  0.91890  Biso   1.000  C
  C72      1.0000 0.39870  0.62140  0.91890  Biso   1.000  C
  C73      1.0000 0.13300  0.16220  0.61340  Biso   1.000  C
  C74      1.0000 0.63300  0.66220  0.61340  Biso   1.000  C
  C75      1.0000 0.13300  0.83780  0.11340  Biso   1.000  C
  C76      1.0000 0.63300  0.33780  0.11340  Biso   1.000  C
  C77      1.0000 0.86700  0.83780  0.38660  Biso   1.000  C
  C78      1.0000 0.36700  0.33780  0.38660  Biso   1.000  C
  C79      1.0000 0.86700  0.16220  0.88660  Biso   1.000  C
  C80      1.0000 0.36700  0.66220  0.88660  Biso   1.000  C
  C81      1.0000 0.19500  0.15270  0.65590  Biso   1.000  C
  C82      1.0000 0.69500  0.65270  0.65590  Biso   1.000  C
  C83      1.0000 0.19500  0.84730  0.15590  Biso   1.000  C
  C84      1.0000 0.69500  0.34730  0.15590  Biso   1.000  C
  C85      1.0000 0.80500  0.84730  0.34410  Biso   1.000  C
  C86      1.0000 0.30500  0.34730  0.34410  Biso   1.000  C
  C87      1.0000 0.80500  0.15270  0.84410  Biso   1.000  C
  C88      1.0000 0.30500  0.65270  0.84410  Biso   1.000  C
  C89      1.0000 0.10030  0.21730  0.60530  Biso   1.000  C
  C90      1.0000 0.60030  0.71730  0.60530  Biso   1.000  C
  C91      1.0000 0.10030  0.78270  0.10530  Biso   1.000  C
  C92      1.0000 0.60030  0.28270  0.10530  Biso   1.000  C
  C93      1.0000 0.89970  0.78270  0.39470  Biso   1.000  C
  C94      1.0000 0.39970  0.28270  0.39470  Biso   1.000  C
  C95      1.0000 0.89970  0.21730  0.89470  Biso   1.000  C
  C96      1.0000 0.39970  0.71730  0.89470  Biso   1.000  C
  N33      1.0000 0.24220  0.14480  0.68980  Biso   1.000  N
  N34      1.0000 0.74220  0.64480  0.68980  Biso   1.000  N
  N35      1.0000 0.24220  0.85520  0.18980  Biso   1.000  N
  N36      1.0000 0.74220  0.35520  0.18980  Biso   1.000  N
  N37      1.0000 0.75780  0.85520  0.31020  Biso   1.000  N
  N38      1.0000 0.25780  0.35520  0.31020  Biso   1.000  N
  N39      1.0000 0.75780  0.14480  0.81020  Biso   1.000  N
  N40      1.0000 0.25780  0.64480  0.81020  Biso   1.000  N
  N41      1.0000 0.07590  0.26100  0.59960  Biso   1.000  N
  N42      1.0000 0.57590  0.76100  0.59960  Biso   1.000  N
  N43      1.0000 0.07590  0.73900  0.09960  Biso   1.000  N
  N44      1.0000 0.57590  0.23900  0.09960  Biso   1.000  N
  N45      1.0000 0.92410  0.73900  0.40040  Biso   1.000  N
  N46      1.0000 0.42410  0.23900  0.40040  Biso   1.000  N
  N47      1.0000 0.92410  0.26100  0.90040  Biso   1.000  N
  N48      1.0000 0.42410  0.76100  0.90040  Biso   1.000  N
  Cu33     1.0000 0.47330  0.16753  0.42147  Biso   1.000  Cu
  Cu34     1.0000 0.97330  0.66753  0.42147  Biso   1.000  Cu
  Cu35     1.0000 0.47330  0.83247  0.92147  Biso   1.000  Cu
  Cu36     1.0000 0.97330  0.33247  0.92147  Biso   1.000  Cu
  Cu37     1.0000 0.52670  0.83247  0.57853  Biso   1.000  Cu
  Cu38     1.0000 0.02670  0.33247  0.57853  Biso   1.000  Cu
  Cu39     1.0000 0.52670  0.16753  0.07853  Biso   1.000  Cu
  Cu40     1.0000 0.02670  0.66753  0.07853  Biso   1.000  Cu
  N49      1.0000 0.43600  0.16700  0.49040  Biso   1.000  N
  N50      1.0000 0.93600  0.66700  0.49040  Biso   1.000  N
  N51      1.0000 0.43600  0.83300  0.99040  Biso   1.000  N
  N52      1.0000 0.93600  0.33300  0.99040  Biso   1.000  N
  N53      1.0000 0.56400  0.83300  0.50960  Biso   1.000  N
  N54      1.0000 0.06400  0.33300  0.50960  Biso   1.000  N
  N55      1.0000 0.56400  0.16700  0.00960  Biso   1.000  N
  N56      1.0000 0.06400  0.66700  0.00960  Biso   1.000  N
  C97      1.0000 0.40300  0.16010  0.52360  Biso   1.000  C
  C98      1.0000 0.90300  0.66010  0.52360  Biso   1.000  C
  C99      1.0000 0.40300  0.83990  0.02360  Biso   1.000  C
  C100     1.0000 0.90300  0.33990  0.02360  Biso   1.000  C
  C101     1.0000 0.59700  0.83990  0.47640  Biso   1.000  C
  C102     1.0000 0.09700  0.33990  0.47640  Biso   1.000  C
  C103     1.0000 0.59700  0.16010  0.97640  Biso   1.000  C
  C104     1.0000 0.09700  0.66010  0.97640  Biso   1.000  C
  C105     1.0000 0.35400  0.16700  0.55990  Biso   1.000  C
  C106     1.0000 0.85400  0.66700  0.55990  Biso   1.000  C
  C107     1.0000 0.35400  0.83300  0.05990  Biso   1.000  C
  C108     1.0000 0.85400  0.33300  0.05990  Biso   1.000  C
  C109     1.0000 0.64600  0.83300  0.44010  Biso   1.000  C
  C110     1.0000 0.14600  0.33300  0.44010  Biso   1.000  C
  C111     1.0000 0.64600  0.16700  0.94010  Biso   1.000  C
  C112     1.0000 0.14600  0.66700  0.94010  Biso   1.000  C
  H1       1.0000 0.39490  0.18300  0.58540  Biso   1.000  H
  H2       1.0000 0.89490  0.68300  0.58540  Biso   1.000  H
  H3       1.0000 0.39490  0.81700  0.08540  Biso   1.000  H
  H4       1.0000 0.89490  0.31700  0.08540  Biso   1.000  H
  H5       1.0000 0.60510  0.81700  0.41460  Biso   1.000  H
  H6       1.0000 0.10510  0.31700  0.41460  Biso   1.000  H
  H7       1.0000 0.60510  0.18300  0.91460  Biso   1.000  H
  H8       1.0000 0.10510  0.68300  0.91460  Biso   1.000  H
  H9       1.0000 0.33280  0.13180  0.56900  Biso   1.000  H
  H10      1.0000 0.83280  0.63180  0.56900  Biso   1.000  H
  H11      1.0000 0.33280  0.86820  0.06900  Biso   1.000  H
  H12      1.0000 0.83280  0.36820  0.06900  Biso   1.000  H
  H13      1.0000 0.66720  0.86820  0.43100  Biso   1.000  H
  H14      1.0000 0.16720  0.36820  0.43100  Biso   1.000  H
  H15      1.0000 0.66720  0.13180  0.93100  Biso   1.000  H
  H16      1.0000 0.16720  0.63180  0.93100  Biso   1.000  H
  H17      1.0000 0.30020  0.18980  0.55060  Biso   1.000  H
  H18      1.0000 0.80020  0.68980  0.55060  Biso   1.000  H
  H19      1.0000 0.30020  0.81020  0.05060  Biso   1.000  H
  H20      1.0000 0.80020  0.31020  0.05060  Biso   1.000  H
  H21      1.0000 0.69980  0.81020  0.44940  Biso   1.000  H
  H22      1.0000 0.19980  0.31020  0.44940  Biso   1.000  H
  H23      1.0000 0.69980  0.18980  0.94940  Biso   1.000  H
  H24      1.0000 0.19980  0.68980  0.94940  Biso   1.000  H
  N57      1.0000 0.03400  0.64890  0.48570  Biso   1.000  N
  N58      1.0000 0.53400  0.14890  0.48570  Biso   1.000  N
  N59      1.0000 0.03400  0.35110  0.98570  Biso   1.000  N
  N60      1.0000 0.53400  0.85110  0.98570  Biso   1.000  N
  N61      1.0000 0.96600  0.35110  0.51430  Biso   1.000  N
  N62      1.0000 0.46600  0.85110  0.51430  Biso   1.000  N
  N63      1.0000 0.96600  0.64890  0.01430  Biso   1.000  N
  N64      1.0000 0.46600  0.14890  0.01430  Biso   1.000  N
  C113     1.0000 0.07200  0.63020  0.51770  Biso   1.000  C
  C114     1.0000 0.57200  0.13020  0.51770  Biso   1.000  C
  C115     1.0000 0.07200  0.36980  0.01770  Biso   1.000  C
  C116     1.0000 0.57200  0.86980  0.01770  Biso   1.000  C
  C117     1.0000 0.92800  0.36980  0.48230  Biso   1.000  C
  C118     1.0000 0.42800  0.86980  0.48230  Biso   1.000  C
  C119     1.0000 0.92800  0.63020  0.98230  Biso   1.000  C
  C120     1.0000 0.42800  0.13020  0.98230  Biso   1.000  C
  C121     1.0000 0.12300  0.61220  0.55800  Biso   1.000  C
  C122     1.0000 0.62300  0.11220  0.55800  Biso   1.000  C
  C123     1.0000 0.12300  0.38780  0.05800  Biso   1.000  C
  C124     1.0000 0.62300  0.88780  0.05800  Biso   1.000  C
  C125     1.0000 0.87700  0.38780  0.44200  Biso   1.000  C
  C126     1.0000 0.37700  0.88780  0.44200  Biso   1.000  C
  C127     1.0000 0.87700  0.61220  0.94200  Biso   1.000  C
  C128     1.0000 0.37700  0.11220  0.94200  Biso   1.000  C
  H25      1.0000 0.10360  0.57570  0.56390  Biso   1.000  H
  H26      1.0000 0.60360  0.07570  0.56390  Biso   1.000  H
  H27      1.0000 0.10360  0.42430  0.06390  Biso   1.000  H
  H28      1.0000 0.60360  0.92430  0.06390  Biso   1.000  H
  H29      1.0000 0.89640  0.42430  0.43610  Biso   1.000  H
  H30      1.0000 0.39640  0.92430  0.43610  Biso   1.000  H
  H31      1.0000 0.89640  0.57570  0.93610  Biso   1.000  H
  H32      1.0000 0.39640  0.07570  0.93610  Biso   1.000  H
  H33      1.0000 0.11100  0.63550  0.58290  Biso   1.000  H
  H34      1.0000 0.61100  0.13550  0.58290  Biso   1.000  H
  H35      1.0000 0.11100  0.36450  0.08290  Biso   1.000  H
  H36      1.0000 0.61100  0.86450  0.08290  Biso   1.000  H
  H37      1.0000 0.88900  0.36450  0.41710  Biso   1.000  H
  H38      1.0000 0.38900  0.86450  0.41710  Biso   1.000  H
  H39      1.0000 0.88900  0.63550  0.91710  Biso   1.000  H
  H40      1.0000 0.38900  0.13550  0.91710  Biso   1.000  H
  H41      1.0000 0.18910  0.61270  0.55590  Biso   1.000  H
  H42      1.0000 0.68910  0.11270  0.55590  Biso   1.000  H
  H43      1.0000 0.18910  0.38730  0.05590  Biso   1.000  H
  H44      1.0000 0.68910  0.88730  0.05590  Biso   1.000  H
  H45      1.0000 0.81090  0.38730  0.44410  Biso   1.000  H
  H46      1.0000 0.31090  0.88730  0.44410  Biso   1.000  H
  H47      1.0000 0.81090  0.61270  0.94410  Biso   1.000  H
  H48      1.0000 0.31090  0.11270  0.94410  Biso   1.000  H
  N65      1.0000 0.00400  0.69610  0.48340  Biso   1.000  N
  N66      1.0000 0.50400  0.19610  0.48340  Biso   1.000  N
  N67      1.0000 0.00400  0.30390  0.98340  Biso   1.000  N
  N68      1.0000 0.50400  0.80390  0.98340  Biso   1.000  N
  N69      1.0000 0.99600  0.30390  0.51660  Biso   1.000  N
  N70      1.0000 0.49600  0.80390  0.51660  Biso   1.000  N
  N71      1.0000 0.99600  0.69610  0.01660  Biso   1.000  N
  N72      1.0000 0.49600  0.19610  0.01660  Biso   1.000  N
  C129     1.0000 0.02600  0.72400  0.51200  Biso   1.000  C
  C130     1.0000 0.52600  0.22400  0.51200  Biso   1.000  C
  C131     1.0000 0.02600  0.27600  0.01200  Biso   1.000  C
  C132     1.0000 0.52600  0.77600  0.01200  Biso   1.000  C
  C133     1.0000 0.97400  0.27600  0.48800  Biso   1.000  C
  C134     1.0000 0.47400  0.77600  0.48800  Biso   1.000  C
  C135     1.0000 0.97400  0.72400  0.98800  Biso   1.000  C
  C136     1.0000 0.47400  0.22400  0.98800  Biso   1.000  C
  C137     1.0000 0.05800  0.75380  0.55900  Biso   1.000  C
  C138     1.0000 0.55800  0.25380  0.55900  Biso   1.000  C
  C139     1.0000 0.05800  0.24620  0.05900  Biso   1.000  C
  C140     1.0000 0.55800  0.74620  0.05900  Biso   1.000  C
  C141     1.0000 0.94200  0.24620  0.44100  Biso   1.000  C
  C142     1.0000 0.44200  0.74620  0.44100  Biso   1.000  C
  C143     1.0000 0.94200  0.75380  0.94100  Biso   1.000  C
  C144     1.0000 0.44200  0.25380  0.94100  Biso   1.000  C
  H49      1.0000 0.00380  0.77100  0.56880  Biso   1.000  H
  H50      1.0000 0.50380  0.27100  0.56880  Biso   1.000  H
  H51      1.0000 0.00380  0.22900  0.06880  Biso   1.000  H
  H52      1.0000 0.50380  0.72900  0.06880  Biso   1.000  H
  H53      1.0000 0.99620  0.22900  0.43120  Biso   1.000  H
  H54      1.0000 0.49620  0.72900  0.43120  Biso   1.000  H
  H55      1.0000 0.99620  0.77100  0.93120  Biso   1.000  H
  H56      1.0000 0.49620  0.27100  0.93120  Biso   1.000  H
  H57      1.0000 0.10450  0.78090  0.55540  Biso   1.000  H
  H58      1.0000 0.60450  0.28090  0.55540  Biso   1.000  H
  H59      1.0000 0.10450  0.21910  0.05540  Biso   1.000  H
  H60      1.0000 0.60450  0.71910  0.05540  Biso   1.000  H
  H61      1.0000 0.89550  0.21910  0.44460  Biso   1.000  H
  H62      1.0000 0.39550  0.71910  0.44460  Biso   1.000  H
  H63      1.0000 0.89550  0.78090  0.94460  Biso   1.000  H
  H64      1.0000 0.39550  0.28090  0.94460  Biso   1.000  H
  H65      1.0000 0.08450  0.72790  0.58210  Biso   1.000  H
  H66      1.0000 0.58450  0.22790  0.58210  Biso   1.000  H
  H67      1.0000 0.08450  0.27210  0.08210  Biso   1.000  H
  H68      1.0000 0.58450  0.77210  0.08210  Biso   1.000  H
  H69      1.0000 0.91550  0.27210  0.41790  Biso   1.000  H
  H70      1.0000 0.41550  0.77210  0.41790  Biso   1.000  H
  H71      1.0000 0.91550  0.72790  0.91790  Biso   1.000  H
  H72      1.0000 0.41550  0.22790  0.91790  Biso   1.000  H
  N73      1.0000 0.50000  0.41730  0.25000  Biso   1.000  N
  N74      1.0000 0.00000  0.91730  0.25000  Biso   1.000  N
  N75      1.0000 0.50000  0.58270  0.75000  Biso   1.000  N
  N76      1.0000 0.00000  0.08270  0.75000  Biso   1.000  N
  C145     1.0000 0.47940  0.38420  0.20620  Biso   1.000  C
  C146     1.0000 0.97940  0.88420  0.20620  Biso   1.000  C
  C147     1.0000 0.47940  0.61580  0.70620  Biso   1.000  C
  C148     1.0000 0.97940  0.11580  0.70620  Biso   1.000  C
  C149     1.0000 0.52060  0.61580  0.79380  Biso   1.000  C
  C150     1.0000 0.02060  0.11580  0.79380  Biso   1.000  C
  C151     1.0000 0.52060  0.38420  0.29380  Biso   1.000  C
  C152     1.0000 0.02060  0.88420  0.29380  Biso   1.000  C
  H73      1.0000 0.53530  0.36280  0.20320  Biso   1.000  H
  H74      1.0000 0.03530  0.86280  0.20320  Biso   1.000  H
  H75      1.0000 0.53530  0.63720  0.70320  Biso   1.000  H
  H76      1.0000 0.03530  0.13720  0.70320  Biso   1.000  H
  H77      1.0000 0.46470  0.63720  0.79680  Biso   1.000  H
  H78      1.0000 0.96470  0.13720  0.79680  Biso   1.000  H
  H79      1.0000 0.46470  0.36280  0.29680  Biso   1.000  H
  H80      1.0000 0.96470  0.86280  0.29680  Biso   1.000  H
  H81      1.0000 0.46880  0.40910  0.18020  Biso   1.000  H
  H82      1.0000 0.96880  0.90910  0.18020  Biso   1.000  H
  H83      1.0000 0.46880  0.59090  0.68020  Biso   1.000  H
  H84      1.0000 0.96880  0.09090  0.68020  Biso   1.000  H
  H85      1.0000 0.53120  0.59090  0.81980  Biso   1.000  H
  H86      1.0000 0.03120  0.09090  0.81980  Biso   1.000  H
  H87      1.0000 0.53120  0.40910  0.31980  Biso   1.000  H
  H88      1.0000 0.03120  0.90910  0.31980  Biso   1.000  H
  C153     1.0000 0.39190  0.34450  0.20240  Biso   1.000  C
  C154     1.0000 0.89190  0.84450  0.20240  Biso   1.000  C
  C155     1.0000 0.39190  0.65550  0.70240  Biso   1.000  C
  C156     1.0000 0.89190  0.15550  0.70240  Biso   1.000  C
  C157     1.0000 0.60810  0.65550  0.79760  Biso   1.000  C
  C158     1.0000 0.10810  0.15550  0.79760  Biso   1.000  C
  C159     1.0000 0.60810  0.34450  0.29760  Biso   1.000  C
  C160     1.0000 0.10810  0.84450  0.29760  Biso   1.000  C
  H89      1.0000 0.40090  0.31940  0.22840  Biso   1.000  H
  H90      1.0000 0.90090  0.81940  0.22840  Biso   1.000  H
  H91      1.0000 0.40090  0.68060  0.72840  Biso   1.000  H
  H92      1.0000 0.90090  0.18060  0.72840  Biso   1.000  H
  H93      1.0000 0.59910  0.68060  0.77160  Biso   1.000  H
  H94      1.0000 0.09910  0.18060  0.77160  Biso   1.000  H
  H95      1.0000 0.59910  0.31940  0.27160  Biso   1.000  H
  H96      1.0000 0.09910  0.81940  0.27160  Biso   1.000  H
  H97      1.0000 0.33460  0.36530  0.20370  Biso   1.000  H
  H98      1.0000 0.83460  0.86530  0.20370  Biso   1.000  H
  H99      1.0000 0.33460  0.63470  0.70370  Biso   1.000  H
  H100     1.0000 0.83460  0.13470  0.70370  Biso   1.000  H
  H101     1.0000 0.66540  0.63470  0.79630  Biso   1.000  H
  H102     1.0000 0.16540  0.13470  0.79630  Biso   1.000  H
  H103     1.0000 0.66540  0.36530  0.29630  Biso   1.000  H
  H104     1.0000 0.16540  0.86530  0.29630  Biso   1.000  H
  C161     1.0000 0.38140  0.31350  0.15890  Biso   1.000  C
  C162     1.0000 0.88140  0.81350  0.15890  Biso   1.000  C
  C163     1.0000 0.38140  0.68650  0.65890  Biso   1.000  C
  C164     1.0000 0.88140  0.18650  0.65890  Biso   1.000  C
  C165     1.0000 0.61860  0.68650  0.84110  Biso   1.000  C
  C166     1.0000 0.11860  0.18650  0.84110  Biso   1.000  C
  C167     1.0000 0.61860  0.31350  0.34110  Biso   1.000  C
  C168     1.0000 0.11860  0.81350  0.34110  Biso   1.000  C
  H105     1.0000 0.32780  0.28950  0.15720  Biso   1.000  H
  H106     1.0000 0.82780  0.78950  0.15720  Biso   1.000  H
  H107     1.0000 0.32780  0.71050  0.65720  Biso   1.000  H
  H108     1.0000 0.82780  0.21050  0.65720  Biso   1.000  H
  H109     1.0000 0.67220  0.71050  0.84280  Biso   1.000  H
  H110     1.0000 0.17220  0.21050  0.84280  Biso   1.000  H
  H111     1.0000 0.67220  0.28950  0.34280  Biso   1.000  H
  H112     1.0000 0.17220  0.78950  0.34280  Biso   1.000  H
  H113     1.0000 0.43780  0.29250  0.15790  Biso   1.000  H
  H114     1.0000 0.93780  0.79250  0.15790  Biso   1.000  H
  H115     1.0000 0.43780  0.70750  0.65790  Biso   1.000  H
  H116     1.0000 0.93780  0.20750  0.65790  Biso   1.000  H
  H117     1.0000 0.56220  0.70750  0.84210  Biso   1.000  H
  H118     1.0000 0.06220  0.20750  0.84210  Biso   1.000  H
  H119     1.0000 0.56220  0.29250  0.34210  Biso   1.000  H
  H120     1.0000 0.06220  0.79250  0.34210  Biso   1.000  H
  H121     1.0000 0.37170  0.33830  0.13330  Biso   1.000  H
  H122     1.0000 0.87170  0.83830  0.13330  Biso   1.000  H
  H123     1.0000 0.37170  0.66170  0.63330  Biso   1.000  H
  H124     1.0000 0.87170  0.16170  0.63330  Biso   1.000  H
  H125     1.0000 0.62830  0.66170  0.86670  Biso   1.000  H
  H126     1.0000 0.12830  0.16170  0.86670  Biso   1.000  H
  H127     1.0000 0.62830  0.33830  0.36670  Biso   1.000  H
  H128     1.0000 0.12830  0.83830  0.36670  Biso   1.000  H
  C169     1.0000 0.58920  0.45250  0.24830  Biso   1.000  C
  C170     1.0000 0.08920  0.95250  0.24830  Biso   1.000  C
  C171     1.0000 0.58920  0.54750  0.74830  Biso   1.000  C
  C172     1.0000 0.08920  0.04750  0.74830  Biso   1.000  C
  C173     1.0000 0.41080  0.54750  0.75170  Biso   1.000  C
  C174     1.0000 0.91080  0.04750  0.75170  Biso   1.000  C
  C175     1.0000 0.41080  0.45250  0.25170  Biso   1.000  C
  C176     1.0000 0.91080  0.95250  0.25170  Biso   1.000  C
  H129     1.0000 0.60650  0.47070  0.27780  Biso   1.000  H
  H130     1.0000 0.10650  0.97070  0.27780  Biso   1.000  H
  H131     1.0000 0.60650  0.52930  0.77780  Biso   1.000  H
  H132     1.0000 0.10650  0.02930  0.77780  Biso   1.000  H
  H133     1.0000 0.39350  0.52930  0.72220  Biso   1.000  H
  H134     1.0000 0.89350  0.02930  0.72220  Biso   1.000  H
  H135     1.0000 0.39350  0.47070  0.22220  Biso   1.000  H
  H136     1.0000 0.89350  0.97070  0.22220  Biso   1.000  H
  H137     1.0000 0.64140  0.42880  0.24390  Biso   1.000  H
  H138     1.0000 0.14140  0.92880  0.24390  Biso   1.000  H
  H139     1.0000 0.64140  0.57120  0.74390  Biso   1.000  H
  H140     1.0000 0.14140  0.07120  0.74390  Biso   1.000  H
  H141     1.0000 0.35860  0.57120  0.75610  Biso   1.000  H
  H142     1.0000 0.85860  0.07120  0.75610  Biso   1.000  H
  H143     1.0000 0.35860  0.42880  0.25610  Biso   1.000  H
  H144     1.0000 0.85860  0.92880  0.25610  Biso   1.000  H
  C177     1.0000 0.57620  0.49540  0.20990  Biso   1.000  C
  C178     1.0000 0.07620  0.99540  0.20990  Biso   1.000  C
  C179     1.0000 0.57620  0.50460  0.70990  Biso   1.000  C
  C180     1.0000 0.07620  0.00460  0.70990  Biso   1.000  C
  C181     1.0000 0.42380  0.50460  0.79010  Biso   1.000  C
  C182     1.0000 0.92380  0.00460  0.79010  Biso   1.000  C
  C183     1.0000 0.42380  0.49540  0.29010  Biso   1.000  C
  C184     1.0000 0.92380  0.99540  0.29010  Biso   1.000  C
  H145     1.0000 0.55630  0.47820  0.18020  Biso   1.000  H
  H146     1.0000 0.05630  0.97820  0.18020  Biso   1.000  H
  H147     1.0000 0.55630  0.52180  0.68020  Biso   1.000  H
  H148     1.0000 0.05630  0.02180  0.68020  Biso   1.000  H
  H149     1.0000 0.44370  0.52180  0.81980  Biso   1.000  H
  H150     1.0000 0.94370  0.02180  0.81980  Biso   1.000  H
  H151     1.0000 0.44370  0.47820  0.31980  Biso   1.000  H
  H152     1.0000 0.94370  0.97820  0.31980  Biso   1.000  H
  H153     1.0000 0.52820  0.52160  0.21520  Biso   1.000  H
  H154     1.0000 0.02820  0.02160  0.21520  Biso   1.000  H
  H155     1.0000 0.52820  0.47840  0.71520  Biso   1.000  H
  H156     1.0000 0.02820  0.97840  0.71520  Biso   1.000  H
  H157     1.0000 0.47180  0.47840  0.78480  Biso   1.000  H
  H158     1.0000 0.97180  0.97840  0.78480  Biso   1.000  H
  H159     1.0000 0.47180  0.52160  0.28480  Biso   1.000  H
  H160     1.0000 0.97180  0.02160  0.28480  Biso   1.000  H
  C185     1.0000 0.67170  0.52360  0.21090  Biso   1.000  C
  C186     1.0000 0.17170  0.02360  0.21090  Biso   1.000  C
  C187     1.0000 0.67170  0.47640  0.71090  Biso   1.000  C
  C188     1.0000 0.17170  0.97640  0.71090  Biso   1.000  C
  C189     1.0000 0.32830  0.47640  0.78910  Biso   1.000  C
  C190     1.0000 0.82830  0.97640  0.78910  Biso   1.000  C
  C191     1.0000 0.32830  0.52360  0.28910  Biso   1.000  C
  C192     1.0000 0.82830  0.02360  0.28910  Biso   1.000  C
  H161     1.0000 0.66620  0.55090  0.18720  Biso   1.000  H
  H162     1.0000 0.16620  0.05090  0.18720  Biso   1.000  H
  H163     1.0000 0.66620  0.44910  0.68720  Biso   1.000  H
  H164     1.0000 0.16620  0.94910  0.68720  Biso   1.000  H
  H165     1.0000 0.33380  0.44910  0.81280  Biso   1.000  H
  H166     1.0000 0.83380  0.94910  0.81280  Biso   1.000  H
  H167     1.0000 0.33380  0.55090  0.31280  Biso   1.000  H
  H168     1.0000 0.83380  0.05090  0.31280  Biso   1.000  H
  H169     1.0000 0.71850  0.49720  0.20570  Biso   1.000  H
  H170     1.0000 0.21850  0.99720  0.20570  Biso   1.000  H
  H171     1.0000 0.71850  0.50280  0.70570  Biso   1.000  H
  H172     1.0000 0.21850  0.00280  0.70570  Biso   1.000  H
  H173     1.0000 0.28150  0.50280  0.79430  Biso   1.000  H
  H174     1.0000 0.78150  0.00280  0.79430  Biso   1.000  H
  H175     1.0000 0.28150  0.49720  0.29430  Biso   1.000  H
  H176     1.0000 0.78150  0.99720  0.29430  Biso   1.000  H
  H177     1.0000 0.69050  0.54040  0.24050  Biso   1.000  H
  H178     1.0000 0.19050  0.04040  0.24050  Biso   1.000  H
  H179     1.0000 0.69050  0.45960  0.74050  Biso   1.000  H
  H180     1.0000 0.19050  0.95960  0.74050  Biso   1.000  H
  H181     1.0000 0.30950  0.45960  0.75950  Biso   1.000  H
  H182     1.0000 0.80950  0.95960  0.75950  Biso   1.000  H
  H183     1.0000 0.30950  0.54040  0.25950  Biso   1.000  H
  H184     1.0000 0.80950  0.04040  0.25950  Biso   1.000  H
  N77      1.0000 0.00000  0.41980  0.25000  Biso   1.000  N
  N78      1.0000 0.50000  0.91980  0.25000  Biso   1.000  N
  N79      1.0000 0.00000  0.58020  0.75000  Biso   1.000  N
  N80      1.0000 0.50000  0.08020  0.75000  Biso   1.000  N
  C193     1.0000 0.06330  0.38450  0.22540  Biso   1.000  C
  C194     1.0000 0.56330  0.88450  0.22540  Biso   1.000  C
  C195     1.0000 0.06330  0.61550  0.72540  Biso   1.000  C
  C196     1.0000 0.56330  0.11550  0.72540  Biso   1.000  C
  C197     1.0000 0.93670  0.61550  0.77460  Biso   1.000  C
  C198     1.0000 0.43670  0.11550  0.77460  Biso   1.000  C
  C199     1.0000 0.93670  0.38450  0.27460  Biso   1.000  C
  C200     1.0000 0.43670  0.88450  0.27460  Biso   1.000  C
  H185     1.0000 0.10490  0.36370  0.24840  Biso   1.000  H
  H186     1.0000 0.60490  0.86370  0.24840  Biso   1.000  H
  H187     1.0000 0.10490  0.63630  0.74840  Biso   1.000  H
  H188     1.0000 0.60490  0.13630  0.74840  Biso   1.000  H
  H189     1.0000 0.89510  0.63630  0.75160  Biso   1.000  H
  H190     1.0000 0.39510  0.13630  0.75160  Biso   1.000  H
  H191     1.0000 0.89510  0.36370  0.25160  Biso   1.000  H
  H192     1.0000 0.39510  0.86370  0.25160  Biso   1.000  H
  H193     1.0000 0.10310  0.40820  0.21010  Biso   1.000  H
  H194     1.0000 0.60310  0.90820  0.21010  Biso   1.000  H
  H195     1.0000 0.10310  0.59180  0.71010  Biso   1.000  H
  H196     1.0000 0.60310  0.09180  0.71010  Biso   1.000  H
  H197     1.0000 0.89690  0.59180  0.78990  Biso   1.000  H
  H198     1.0000 0.39690  0.09180  0.78990  Biso   1.000  H
  H199     1.0000 0.89690  0.40820  0.28990  Biso   1.000  H
  H200     1.0000 0.39690  0.90820  0.28990  Biso   1.000  H
  C201     1.0000 0.01280  0.34490  0.18970  Biso   1.000  C
  C202     1.0000 0.51280  0.84490  0.18970  Biso   1.000  C
  C203     1.0000 0.01280  0.65510  0.68970  Biso   1.000  C
  C204     1.0000 0.51280  0.15510  0.68970  Biso   1.000  C
  C205     1.0000 0.98720  0.65510  0.81030  Biso   1.000  C
  C206     1.0000 0.48720  0.15510  0.81030  Biso   1.000  C
  C207     1.0000 0.98720  0.34490  0.31030  Biso   1.000  C
  C208     1.0000 0.48720  0.84490  0.31030  Biso   1.000  C
  H201     1.0000 0.97510  0.36490  0.16460  Biso   1.000  H
  H202     1.0000 0.47510  0.86490  0.16460  Biso   1.000  H
  H203     1.0000 0.97510  0.63510  0.66460  Biso   1.000  H
  H204     1.0000 0.47510  0.13510  0.66460  Biso   1.000  H
  H205     1.0000 0.02490  0.63510  0.83540  Biso   1.000  H
  H206     1.0000 0.52490  0.13510  0.83540  Biso   1.000  H
  H207     1.0000 0.02490  0.36490  0.33540  Biso   1.000  H
  H208     1.0000 0.52490  0.86490  0.33540  Biso   1.000  H
  H209     1.0000 0.97080  0.32150  0.20380  Biso   1.000  H
  H210     1.0000 0.47080  0.82150  0.20380  Biso   1.000  H
  H211     1.0000 0.97080  0.67850  0.70380  Biso   1.000  H
  H212     1.0000 0.47080  0.17850  0.70380  Biso   1.000  H
  H213     1.0000 0.02920  0.67850  0.79620  Biso   1.000  H
  H214     1.0000 0.52920  0.17850  0.79620  Biso   1.000  H
  H215     1.0000 0.02920  0.32150  0.29620  Biso   1.000  H
  H216     1.0000 0.52920  0.82150  0.29620  Biso   1.000  H
  C209     1.0000 0.08880  0.31020  0.17070  Biso   1.000  C
  C210     1.0000 0.58880  0.81020  0.17070  Biso   1.000  C
  C211     1.0000 0.08880  0.68980  0.67070  Biso   1.000  C
  C212     1.0000 0.58880  0.18980  0.67070  Biso   1.000  C
  C213     1.0000 0.91120  0.68980  0.82930  Biso   1.000  C
  C214     1.0000 0.41120  0.18980  0.82930  Biso   1.000  C
  C215     1.0000 0.91120  0.31020  0.32930  Biso   1.000  C
  C216     1.0000 0.41120  0.81020  0.32930  Biso   1.000  C
  H217     1.0000 0.05810  0.28530  0.14780  Biso   1.000  H
  H218     1.0000 0.55810  0.78530  0.14780  Biso   1.000  H
  H219     1.0000 0.05810  0.71470  0.64780  Biso   1.000  H
  H220     1.0000 0.55810  0.21470  0.64780  Biso   1.000  H
  H221     1.0000 0.94190  0.71470  0.85220  Biso   1.000  H
  H222     1.0000 0.44190  0.21470  0.85220  Biso   1.000  H
  H223     1.0000 0.94190  0.28530  0.35220  Biso   1.000  H
  H224     1.0000 0.44190  0.78530  0.35220  Biso   1.000  H
  H225     1.0000 0.12510  0.29010  0.19560  Biso   1.000  H
  H226     1.0000 0.62510  0.79010  0.19560  Biso   1.000  H
  H227     1.0000 0.12510  0.70990  0.69560  Biso   1.000  H
  H228     1.0000 0.62510  0.20990  0.69560  Biso   1.000  H
  H229     1.0000 0.87490  0.70990  0.80440  Biso   1.000  H
  H230     1.0000 0.37490  0.20990  0.80440  Biso   1.000  H
  H231     1.0000 0.87490  0.29010  0.30440  Biso   1.000  H
  H232     1.0000 0.37490  0.79010  0.30440  Biso   1.000  H
  H233     1.0000 0.13030  0.33370  0.15690  Biso   1.000  H
  H234     1.0000 0.63030  0.83370  0.15690  Biso   1.000  H
  H235     1.0000 0.13030  0.66630  0.65690  Biso   1.000  H
  H236     1.0000 0.63030  0.16630  0.65690  Biso   1.000  H
  H237     1.0000 0.86970  0.66630  0.84310  Biso   1.000  H
  H238     1.0000 0.36970  0.16630  0.84310  Biso   1.000  H
  H239     1.0000 0.86970  0.33370  0.34310  Biso   1.000  H
  H240     1.0000 0.36970  0.83370  0.34310  Biso   1.000  H
  C217     1.0000 0.93280  0.45520  0.21760  Biso   1.000  C
  C218     1.0000 0.43280  0.95520  0.21760  Biso   1.000  C
  C219     1.0000 0.93280  0.54480  0.71760  Biso   1.000  C
  C220     1.0000 0.43280  0.04480  0.71760  Biso   1.000  C
  C221     1.0000 0.06720  0.54480  0.78240  Biso   1.000  C
  C222     1.0000 0.56720  0.04480  0.78240  Biso   1.000  C
  C223     1.0000 0.06720  0.45520  0.28240  Biso   1.000  C
  C224     1.0000 0.56720  0.95520  0.28240  Biso   1.000  C
  H241     1.0000 0.88580  0.43190  0.19970  Biso   1.000  H
  H242     1.0000 0.38580  0.93190  0.19970  Biso   1.000  H
  H243     1.0000 0.88580  0.56810  0.69970  Biso   1.000  H
  H244     1.0000 0.38580  0.06810  0.69970  Biso   1.000  H
  H245     1.0000 0.11420  0.56810  0.80030  Biso   1.000  H
  H246     1.0000 0.61420  0.06810  0.80030  Biso   1.000  H
  H247     1.0000 0.11420  0.43190  0.30030  Biso   1.000  H
  H248     1.0000 0.61420  0.93190  0.30030  Biso   1.000  H
  H249     1.0000 0.89950  0.47910  0.23600  Biso   1.000  H
  H250     1.0000 0.39950  0.97910  0.23600  Biso   1.000  H
  H251     1.0000 0.89950  0.52090  0.73600  Biso   1.000  H
  H252     1.0000 0.39950  0.02090  0.73600  Biso   1.000  H
  H253     1.0000 0.10050  0.52090  0.76400  Biso   1.000  H
  H254     1.0000 0.60050  0.02090  0.76400  Biso   1.000  H
  H255     1.0000 0.10050  0.47910  0.26400  Biso   1.000  H
  H256     1.0000 0.60050  0.97910  0.26400  Biso   1.000  H
  C225     1.0000 0.97810  0.48950  0.18500  Biso   1.000  C
  C226     1.0000 0.47810  0.98950  0.18500  Biso   1.000  C
  C227     1.0000 0.97810  0.51050  0.68500  Biso   1.000  C
  C228     1.0000 0.47810  0.01050  0.68500  Biso   1.000  C
  C229     1.0000 0.02190  0.51050  0.81500  Biso   1.000  C
  C230     1.0000 0.52190  0.01050  0.81500  Biso   1.000  C
  C231     1.0000 0.02190  0.48950  0.31500  Biso   1.000  C
  C232     1.0000 0.52190  0.98950  0.31500  Biso   1.000  C
  H257     1.0000 0.02200  0.51500  0.20240  Biso   1.000  H
  H258     1.0000 0.52200  0.01500  0.20240  Biso   1.000  H
  H259     1.0000 0.02200  0.48500  0.70240  Biso   1.000  H
  H260     1.0000 0.52200  0.98500  0.70240  Biso   1.000  H
  H261     1.0000 0.97800  0.48500  0.79760  Biso   1.000  H
  H262     1.0000 0.47800  0.98500  0.79760  Biso   1.000  H
  H263     1.0000 0.97800  0.51500  0.29760  Biso   1.000  H
  H264     1.0000 0.47800  0.01500  0.29760  Biso   1.000  H
  H265     1.0000 0.01370  0.46640  0.16700  Biso   1.000  H
  H266     1.0000 0.51370  0.96640  0.16700  Biso   1.000  H
  H267     1.0000 0.01370  0.53360  0.66700  Biso   1.000  H
  H268     1.0000 0.51370  0.03360  0.66700  Biso   1.000  H
  H269     1.0000 0.98630  0.53360  0.83300  Biso   1.000  H
  H270     1.0000 0.48630  0.03360  0.83300  Biso   1.000  H
  H271     1.0000 0.98630  0.46640  0.33300  Biso   1.000  H
  H272     1.0000 0.48630  0.96640  0.33300  Biso   1.000  H
  C233     1.0000 0.90470  0.52020  0.15320  Biso   1.000  C
  C234     1.0000 0.40470  0.02020  0.15320  Biso   1.000  C
  C235     1.0000 0.90470  0.47980  0.65320  Biso   1.000  C
  C236     1.0000 0.40470  0.97980  0.65320  Biso   1.000  C
  C237     1.0000 0.09530  0.47980  0.84680  Biso   1.000  C
  C238     1.0000 0.59530  0.97980  0.84680  Biso   1.000  C
  C239     1.0000 0.09530  0.52020  0.34680  Biso   1.000  C
  C240     1.0000 0.59530  0.02020  0.34680  Biso   1.000  C
  H273     1.0000 0.93490  0.54180  0.13240  Biso   1.000  H
  H274     1.0000 0.43490  0.04180  0.13240  Biso   1.000  H
  H275     1.0000 0.93490  0.45820  0.63240  Biso   1.000  H
  H276     1.0000 0.43490  0.95820  0.63240  Biso   1.000  H
  H277     1.0000 0.06510  0.45820  0.86760  Biso   1.000  H
  H278     1.0000 0.56510  0.95820  0.86760  Biso   1.000  H
  H279     1.0000 0.06510  0.54180  0.36760  Biso   1.000  H
  H280     1.0000 0.56510  0.04180  0.36760  Biso   1.000  H
  H281     1.0000 0.87030  0.54360  0.17100  Biso   1.000  H
  H282     1.0000 0.37030  0.04360  0.17100  Biso   1.000  H
  H283     1.0000 0.87030  0.45640  0.67100  Biso   1.000  H
  H284     1.0000 0.37030  0.95640  0.67100  Biso   1.000  H
  H285     1.0000 0.12970  0.45640  0.82900  Biso   1.000  H
  H286     1.0000 0.62970  0.95640  0.82900  Biso   1.000  H
  H287     1.0000 0.12970  0.54360  0.32900  Biso   1.000  H
  H288     1.0000 0.62970  0.04360  0.32900  Biso   1.000  H
  H289     1.0000 0.86160  0.49500  0.13580  Biso   1.000  H
  H290     1.0000 0.36160  0.99500  0.13580  Biso   1.000  H
  H291     1.0000 0.86160  0.50500  0.63580  Biso   1.000  H
  H292     1.0000 0.36160  0.00500  0.63580  Biso   1.000  H
  H293     1.0000 0.13840  0.50500  0.86420  Biso   1.000  H
  H294     1.0000 0.63840  0.00500  0.86420  Biso   1.000  H
  H295     1.0000 0.13840  0.49500  0.36420  Biso   1.000  H
  H296     1.0000 0.63840  0.99500  0.36420  Biso   1.000  H
  O1       1.0000 0.50000  0.23240  0.25000  Biso   1.000  O
  O2       1.0000 0.00000  0.73240  0.25000  Biso   1.000  O
  O3       1.0000 0.50000  0.76760  0.75000  Biso   1.000  O
  O4       1.0000 0.00000  0.26760  0.75000  Biso   1.000  O
  C241     1.0000 0.55260  0.19460  0.23570  Biso   1.000  C
  C242     1.0000 0.05260  0.69460  0.23570  Biso   1.000  C
  C243     1.0000 0.55260  0.80540  0.73570  Biso   1.000  C
  C244     1.0000 0.05260  0.30540  0.73570  Biso   1.000  C
  C245     1.0000 0.44740  0.80540  0.76430  Biso   1.000  C
  C246     1.0000 0.94740  0.30540  0.76430  Biso   1.000  C
  C247     1.0000 0.44740  0.19460  0.26430  Biso   1.000  C
  C248     1.0000 0.94740  0.69460  0.26430  Biso   1.000  C
  H297     1.0000 0.61330  0.20310  0.25430  Biso   1.000  H
  H298     1.0000 0.11330  0.70310  0.25430  Biso   1.000  H
  H299     1.0000 0.61330  0.79690  0.75430  Biso   1.000  H
  H300     1.0000 0.11330  0.29690  0.75430  Biso   1.000  H
  H301     1.0000 0.38670  0.79690  0.74570  Biso   1.000  H
  H302     1.0000 0.88670  0.29690  0.74570  Biso   1.000  H
  H303     1.0000 0.38670  0.20310  0.24570  Biso   1.000  H
  H304     1.0000 0.88670  0.70310  0.24570  Biso   1.000  H
  H305     1.0000 0.55800  0.20870  0.20530  Biso   1.000  H
  H306     1.0000 0.05800  0.70870  0.20530  Biso   1.000  H
  H307     1.0000 0.55800  0.79130  0.70530  Biso   1.000  H
  H308     1.0000 0.05800  0.29130  0.70530  Biso   1.000  H
  H309     1.0000 0.44200  0.79130  0.79470  Biso   1.000  H
  H310     1.0000 0.94200  0.29130  0.79470  Biso   1.000  H
  H311     1.0000 0.44200  0.20870  0.29470  Biso   1.000  H
  H312     1.0000 0.94200  0.70870  0.29470  Biso   1.000  H
  C249     1.0000 0.56480  0.14120  0.22850  Biso   1.000  C
  C250     1.0000 0.06480  0.64120  0.22850  Biso   1.000  C
  C251     1.0000 0.56480  0.85880  0.72850  Biso   1.000  C
  C252     1.0000 0.06480  0.35880  0.72850  Biso   1.000  C
  C253     1.0000 0.43520  0.85880  0.77150  Biso   1.000  C
  C254     1.0000 0.93520  0.35880  0.77150  Biso   1.000  C
  C255     1.0000 0.43520  0.14120  0.27150  Biso   1.000  C
  C256     1.0000 0.93520  0.64120  0.27150  Biso   1.000  C
  H313     1.0000 0.63010  0.13170  0.24060  Biso   1.000  H
  H314     1.0000 0.13010  0.63170  0.24060  Biso   1.000  H
  H315     1.0000 0.63010  0.86830  0.74060  Biso   1.000  H
  H316     1.0000 0.13010  0.36830  0.74060  Biso   1.000  H
  H317     1.0000 0.36990  0.86830  0.75940  Biso   1.000  H
  H318     1.0000 0.86990  0.36830  0.75940  Biso   1.000  H
  H319     1.0000 0.36990  0.13170  0.25940  Biso   1.000  H
  H320     1.0000 0.86990  0.63170  0.25940  Biso   1.000  H
  H321     1.0000 0.55530  0.13470  0.19550  Biso   1.000  H
  H322     1.0000 0.05530  0.63470  0.19550  Biso   1.000  H
  H323     1.0000 0.55530  0.86530  0.69550  Biso   1.000  H
  H324     1.0000 0.05530  0.36530  0.69550  Biso   1.000  H
  H325     1.0000 0.44470  0.86530  0.80450  Biso   1.000  H
  H326     1.0000 0.94470  0.36530  0.80450  Biso   1.000  H
  H327     1.0000 0.44470  0.13470  0.30450  Biso   1.000  H
  H328     1.0000 0.94470  0.63470  0.30450  Biso   1.000  H
  O5       1.0000 0.50000  0.10350  0.25000  Biso   1.000  O
  O6       1.0000 0.00000  0.60350  0.25000  Biso   1.000  O
  O7       1.0000 0.50000  0.89650  0.75000  Biso   1.000  O
  O8       1.0000 0.00000  0.39650  0.75000  Biso   1.000  O
  N81      1.0000 0.83390  0.11890  0.18780  Biso   1.000  N
  N82      1.0000 0.33390  0.61890  0.18780  Biso   1.000  N
  N83      1.0000 0.83390  0.88110  0.68780  Biso   1.000  N
  N84      1.0000 0.33390  0.38110  0.68780  Biso   1.000  N
  N85      1.0000 0.16610  0.88110  0.81220  Biso   1.000  N
  N86      1.0000 0.66610  0.38110  0.81220  Biso   1.000  N
  N87      1.0000 0.16610  0.11890  0.31220  Biso   1.000  N
  N88      1.0000 0.66610  0.61890  0.31220  Biso   1.000  N
  C257     1.0000 0.80650  0.16260  0.19060  Biso   1.000  C
  C258     1.0000 0.30650  0.66260  0.19060  Biso   1.000  C
  C259     1.0000 0.80650  0.83740  0.69060  Biso   1.000  C
  C260     1.0000 0.30650  0.33740  0.69060  Biso   1.000  C
  C261     1.0000 0.19350  0.83740  0.80940  Biso   1.000  C
  C262     1.0000 0.69350  0.33740  0.80940  Biso   1.000  C
  C263     1.0000 0.19350  0.16260  0.30940  Biso   1.000  C
  C264     1.0000 0.69350  0.66260  0.30940  Biso   1.000  C
  C265     1.0000 0.81210  0.21490  0.19240  Biso   1.000  C
  C266     1.0000 0.31210  0.71490  0.19240  Biso   1.000  C
  C267     1.0000 0.81210  0.78510  0.69240  Biso   1.000  C
  C268     1.0000 0.31210  0.28510  0.69240  Biso   1.000  C
  C269     1.0000 0.18790  0.78510  0.80760  Biso   1.000  C
  C270     1.0000 0.68790  0.28510  0.80760  Biso   1.000  C
  C271     1.0000 0.18790  0.21490  0.30760  Biso   1.000  C
  C272     1.0000 0.68790  0.71490  0.30760  Biso   1.000  C
  H329     1.0000 0.77710  0.22830  0.21550  Biso   1.000  H
  H330     1.0000 0.27710  0.72830  0.21550  Biso   1.000  H
  H331     1.0000 0.77710  0.77170  0.71550  Biso   1.000  H
  H332     1.0000 0.27710  0.27170  0.71550  Biso   1.000  H
  H333     1.0000 0.22290  0.77170  0.78450  Biso   1.000  H
  H334     1.0000 0.72290  0.27170  0.78450  Biso   1.000  H
  H335     1.0000 0.22290  0.22830  0.28450  Biso   1.000  H
  H336     1.0000 0.72290  0.72830  0.28450  Biso   1.000  H
  H337     1.0000 0.78600  0.22990  0.16290  Biso   1.000  H
  H338     1.0000 0.28600  0.72990  0.16290  Biso   1.000  H
  H339     1.0000 0.78600  0.77010  0.66290  Biso   1.000  H
  H340     1.0000 0.28600  0.27010  0.66290  Biso   1.000  H
  H341     1.0000 0.21400  0.77010  0.83710  Biso   1.000  H
  H342     1.0000 0.71400  0.27010  0.83710  Biso   1.000  H
  H343     1.0000 0.21400  0.22990  0.33710  Biso   1.000  H
  H344     1.0000 0.71400  0.72990  0.33710  Biso   1.000  H
  H345     1.0000 0.87750  0.22560  0.20030  Biso   1.000  H
  H346     1.0000 0.37750  0.72560  0.20030  Biso   1.000  H
  H347     1.0000 0.87750  0.77440  0.70030  Biso   1.000  H
  H348     1.0000 0.37750  0.27440  0.70030  Biso   1.000  H
  H349     1.0000 0.12250  0.77440  0.79970  Biso   1.000  H
  H350     1.0000 0.62250  0.27440  0.79970  Biso   1.000  H
  H351     1.0000 0.12250  0.22560  0.29970  Biso   1.000  H
  H352     1.0000 0.62250  0.72560  0.29970  Biso   1.000  H
