data_image0
_cell_length_a       18.747
_cell_length_b       23.355
_cell_length_c       30.404
_cell_angle_alpha    90
_cell_angle_beta     90
_cell_angle_gamma    90

_symmetry_space_group_name_H-M    "P 1"
_symmetry_int_tables_number       1

loop_
  _symmetry_equiv_pos_as_xyz
  'x, y, z'

loop_
  _atom_site_label
  _atom_site_occupancy
  _atom_site_fract_x
  _atom_site_fract_y
  _atom_site_fract_z
  _atom_site_thermal_displace_type
  _atom_site_B_iso_or_equiv
  _atom_site_type_symbol
  Cu1      1.0000 0.51418  0.38975  0.12143  Biso   1.000  Cu
  Cu2      1.0000 0.51418  0.88975  0.62143  Biso   1.000  Cu
  Cu3      1.0000 0.51418  0.86025  0.12857  Biso   1.000  Cu
  Cu4      1.0000 0.01418  0.38975  0.62143  Biso   1.000  Cu
  Cu5      1.0000 0.73582  0.38975  0.12857  Biso   1.000  Cu
  Cu6      1.0000 0.01418  0.88975  0.12143  Biso   1.000  Cu
  Cu7      1.0000 0.73582  0.86025  0.12143  Biso   1.000  Cu
  Cu8      1.0000 0.23582  0.36025  0.12143  Biso   1.000  Cu
  Cu9      1.0000 0.23582  0.38975  0.62857  Biso   1.000  Cu
  Cu10     1.0000 0.51418  0.36025  0.62857  Biso   1.000  Cu
  Cu11     1.0000 0.23582  0.86025  0.62143  Biso   1.000  Cu
  Cu12     1.0000 0.23582  0.88975  0.12857  Biso   1.000  Cu
  Cu13     1.0000 0.73582  0.36025  0.62143  Biso   1.000  Cu
  Cu14     1.0000 0.01418  0.36025  0.12857  Biso   1.000  Cu
  Cu15     1.0000 0.73582  0.88975  0.62857  Biso   1.000  Cu
  Cu16     1.0000 0.01418  0.86025  0.62857  Biso   1.000  Cu
  Cu17     1.0000 0.48582  0.61025  0.87857  Biso   1.000  Cu
  Cu18     1.0000 0.48582  0.11025  0.37857  Biso   1.000  Cu
  Cu19     1.0000 0.48582  0.63975  0.37143  Biso   1.000  Cu
  Cu20     1.0000 0.98582  0.61025  0.37857  Biso   1.000  Cu
  Cu21     1.0000 0.76418  0.61025  0.37143  Biso   1.000  Cu
  Cu22     1.0000 0.98582  0.11025  0.87857  Biso   1.000  Cu
  Cu23     1.0000 0.76418  0.63975  0.87857  Biso   1.000  Cu
  Cu24     1.0000 0.26418  0.13975  0.87857  Biso   1.000  Cu
  Cu25     1.0000 0.26418  0.61025  0.87143  Biso   1.000  Cu
  Cu26     1.0000 0.48582  0.13975  0.87143  Biso   1.000  Cu
  Cu27     1.0000 0.26418  0.63975  0.37857  Biso   1.000  Cu
  Cu28     1.0000 0.26418  0.11025  0.37143  Biso   1.000  Cu
  Cu29     1.0000 0.76418  0.13975  0.37857  Biso   1.000  Cu
  Cu30     1.0000 0.98582  0.13975  0.37143  Biso   1.000  Cu
  Cu31     1.0000 0.76418  0.11025  0.87143  Biso   1.000  Cu
  Cu32     1.0000 0.98582  0.63975  0.87143  Biso   1.000  Cu
  Cl1      1.0000 0.37500  0.37500  0.02849  Biso   1.000  Cl
  Cl2      1.0000 0.37500  0.87500  0.52849  Biso   1.000  Cl
  Cl3      1.0000 0.37500  0.87500  0.22151  Biso   1.000  Cl
  Cl4      1.0000 0.87500  0.37500  0.52849  Biso   1.000  Cl
  Cl5      1.0000 0.87500  0.37500  0.22151  Biso   1.000  Cl
  Cl6      1.0000 0.87500  0.87500  0.02849  Biso   1.000  Cl
  Cl7      1.0000 0.37500  0.37500  0.72151  Biso   1.000  Cl
  Cl8      1.0000 0.87500  0.87500  0.72151  Biso   1.000  Cl
  Cl9      1.0000 0.62500  0.62500  0.97151  Biso   1.000  Cl
  Cl10     1.0000 0.62500  0.12500  0.47151  Biso   1.000  Cl
  Cl11     1.0000 0.62500  0.62500  0.27849  Biso   1.000  Cl
  Cl12     1.0000 0.12500  0.62500  0.47151  Biso   1.000  Cl
  Cl13     1.0000 0.12500  0.12500  0.97151  Biso   1.000  Cl
  Cl14     1.0000 0.12500  0.62500  0.77849  Biso   1.000  Cl
  Cl15     1.0000 0.62500  0.12500  0.77849  Biso   1.000  Cl
  Cl16     1.0000 0.12500  0.12500  0.27849  Biso   1.000  Cl
  Cl17     1.0000 0.47435  0.12500  0.12500  Biso   1.000  Cl
  Cl18     1.0000 0.47435  0.62500  0.62500  Biso   1.000  Cl
  Cl19     1.0000 0.97435  0.12500  0.62500  Biso   1.000  Cl
  Cl20     1.0000 0.77565  0.12500  0.12500  Biso   1.000  Cl
  Cl21     1.0000 0.97435  0.62500  0.12500  Biso   1.000  Cl
  Cl22     1.0000 0.27565  0.62500  0.12500  Biso   1.000  Cl
  Cl23     1.0000 0.27565  0.12500  0.62500  Biso   1.000  Cl
  Cl24     1.0000 0.77565  0.62500  0.62500  Biso   1.000  Cl
  Cl25     1.0000 0.52565  0.87500  0.87500  Biso   1.000  Cl
  Cl26     1.0000 0.52565  0.37500  0.37500  Biso   1.000  Cl
  Cl27     1.0000 0.02565  0.87500  0.37500  Biso   1.000  Cl
  Cl28     1.0000 0.72435  0.87500  0.37500  Biso   1.000  Cl
  Cl29     1.0000 0.02565  0.37500  0.87500  Biso   1.000  Cl
  Cl30     1.0000 0.72435  0.37500  0.87500  Biso   1.000  Cl
  Cl31     1.0000 0.22435  0.87500  0.87500  Biso   1.000  Cl
  Cl32     1.0000 0.22435  0.37500  0.37500  Biso   1.000  Cl
  O1       1.0000 0.37500  0.37500  0.07335  Biso   1.000  O
  O2       1.0000 0.37500  0.87500  0.57335  Biso   1.000  O
  O3       1.0000 0.37500  0.87500  0.17665  Biso   1.000  O
  O4       1.0000 0.87500  0.37500  0.57335  Biso   1.000  O
  O5       1.0000 0.87500  0.37500  0.17665  Biso   1.000  O
  O6       1.0000 0.87500  0.87500  0.07335  Biso   1.000  O
  O7       1.0000 0.37500  0.37500  0.67665  Biso   1.000  O
  O8       1.0000 0.87500  0.87500  0.67665  Biso   1.000  O
  O9       1.0000 0.62500  0.62500  0.92665  Biso   1.000  O
  O10      1.0000 0.62500  0.12500  0.42665  Biso   1.000  O
  O11      1.0000 0.62500  0.62500  0.32335  Biso   1.000  O
  O12      1.0000 0.12500  0.62500  0.42665  Biso   1.000  O
  O13      1.0000 0.12500  0.12500  0.92665  Biso   1.000  O
  O14      1.0000 0.12500  0.62500  0.82335  Biso   1.000  O
  O15      1.0000 0.62500  0.12500  0.82335  Biso   1.000  O
  O16      1.0000 0.12500  0.12500  0.32335  Biso   1.000  O
  O17      1.0000 0.32610  0.34380  0.00791  Biso   1.000  O
  O18      1.0000 0.32610  0.84380  0.50791  Biso   1.000  O
  O19      1.0000 0.32610  0.90620  0.24209  Biso   1.000  O
  O20      1.0000 0.82610  0.34380  0.50791  Biso   1.000  O
  O21      1.0000 0.92390  0.34380  0.24209  Biso   1.000  O
  O22      1.0000 0.82610  0.84380  0.00791  Biso   1.000  O
  O23      1.0000 0.92390  0.90620  0.00791  Biso   1.000  O
  O24      1.0000 0.42390  0.40620  0.00791  Biso   1.000  O
  O25      1.0000 0.42390  0.34380  0.74209  Biso   1.000  O
  O26      1.0000 0.32610  0.40620  0.74209  Biso   1.000  O
  O27      1.0000 0.42390  0.90620  0.50791  Biso   1.000  O
  O28      1.0000 0.42390  0.84380  0.24209  Biso   1.000  O
  O29      1.0000 0.92390  0.40620  0.50791  Biso   1.000  O
  O30      1.0000 0.82610  0.40620  0.24209  Biso   1.000  O
  O31      1.0000 0.92390  0.84380  0.74209  Biso   1.000  O
  O32      1.0000 0.82610  0.90620  0.74209  Biso   1.000  O
  O33      1.0000 0.67390  0.65620  0.99209  Biso   1.000  O
  O34      1.0000 0.67390  0.15620  0.49209  Biso   1.000  O
  O35      1.0000 0.67390  0.59380  0.25791  Biso   1.000  O
  O36      1.0000 0.17390  0.65620  0.49209  Biso   1.000  O
  O37      1.0000 0.57610  0.65620  0.25791  Biso   1.000  O
  O38      1.0000 0.17390  0.15620  0.99209  Biso   1.000  O
  O39      1.0000 0.57610  0.59380  0.99209  Biso   1.000  O
  O40      1.0000 0.07610  0.09380  0.99209  Biso   1.000  O
  O41      1.0000 0.07610  0.65620  0.75791  Biso   1.000  O
  O42      1.0000 0.67390  0.09380  0.75791  Biso   1.000  O
  O43      1.0000 0.07610  0.59380  0.49209  Biso   1.000  O
  O44      1.0000 0.07610  0.15620  0.25791  Biso   1.000  O
  O45      1.0000 0.57610  0.09380  0.49209  Biso   1.000  O
  O46      1.0000 0.17390  0.09380  0.25791  Biso   1.000  O
  O47      1.0000 0.57610  0.15620  0.75791  Biso   1.000  O
  O48      1.0000 0.17390  0.59380  0.75791  Biso   1.000  O
  O49      1.0000 0.32270  0.42130  0.01960  Biso   1.000  O
  O50      1.0000 0.32270  0.92130  0.51960  Biso   1.000  O
  O51      1.0000 0.32270  0.82870  0.23040  Biso   1.000  O
  O52      1.0000 0.82270  0.42130  0.51960  Biso   1.000  O
  O53      1.0000 0.92730  0.42130  0.23040  Biso   1.000  O
  O54      1.0000 0.82270  0.92130  0.01960  Biso   1.000  O
  O55      1.0000 0.92730  0.82870  0.01960  Biso   1.000  O
  O56      1.0000 0.42730  0.32870  0.01960  Biso   1.000  O
  O57      1.0000 0.42730  0.42130  0.73040  Biso   1.000  O
  O58      1.0000 0.32270  0.32870  0.73040  Biso   1.000  O
  O59      1.0000 0.42730  0.82870  0.51960  Biso   1.000  O
  O60      1.0000 0.42730  0.92130  0.23040  Biso   1.000  O
  O61      1.0000 0.92730  0.32870  0.51960  Biso   1.000  O
  O62      1.0000 0.82270  0.32870  0.23040  Biso   1.000  O
  O63      1.0000 0.92730  0.92130  0.73040  Biso   1.000  O
  O64      1.0000 0.82270  0.82870  0.73040  Biso   1.000  O
  O65      1.0000 0.67730  0.57870  0.98040  Biso   1.000  O
  O66      1.0000 0.67730  0.07870  0.48040  Biso   1.000  O
  O67      1.0000 0.67730  0.67130  0.26960  Biso   1.000  O
  O68      1.0000 0.17730  0.57870  0.48040  Biso   1.000  O
  O69      1.0000 0.57270  0.57870  0.26960  Biso   1.000  O
  O70      1.0000 0.17730  0.07870  0.98040  Biso   1.000  O
  O71      1.0000 0.57270  0.67130  0.98040  Biso   1.000  O
  O72      1.0000 0.07270  0.17130  0.98040  Biso   1.000  O
  O73      1.0000 0.07270  0.57870  0.76960  Biso   1.000  O
  O74      1.0000 0.67730  0.17130  0.76960  Biso   1.000  O
  O75      1.0000 0.07270  0.67130  0.48040  Biso   1.000  O
  O76      1.0000 0.07270  0.07870  0.26960  Biso   1.000  O
  O77      1.0000 0.57270  0.17130  0.48040  Biso   1.000  O
  O78      1.0000 0.17730  0.17130  0.26960  Biso   1.000  O
  O79      1.0000 0.57270  0.07870  0.76960  Biso   1.000  O
  O80      1.0000 0.17730  0.67130  0.76960  Biso   1.000  O
  O81      1.0000 0.51510  0.08681  0.10247  Biso   1.000  O
  O82      1.0000 0.51510  0.58681  0.60247  Biso   1.000  O
  O83      1.0000 0.51510  0.16319  0.14753  Biso   1.000  O
  O84      1.0000 0.01510  0.08681  0.60247  Biso   1.000  O
  O85      1.0000 0.73490  0.08681  0.14753  Biso   1.000  O
  O86      1.0000 0.01510  0.58681  0.10247  Biso   1.000  O
  O87      1.0000 0.73490  0.16319  0.10247  Biso   1.000  O
  O88      1.0000 0.23490  0.66319  0.10247  Biso   1.000  O
  O89      1.0000 0.23490  0.08681  0.64753  Biso   1.000  O
  O90      1.0000 0.51510  0.66319  0.64753  Biso   1.000  O
  O91      1.0000 0.23490  0.16319  0.60247  Biso   1.000  O
  O92      1.0000 0.23490  0.58681  0.14753  Biso   1.000  O
  O93      1.0000 0.73490  0.66319  0.60247  Biso   1.000  O
  O94      1.0000 0.01510  0.66319  0.14753  Biso   1.000  O
  O95      1.0000 0.73490  0.58681  0.64753  Biso   1.000  O
  O96      1.0000 0.01510  0.16319  0.64753  Biso   1.000  O
  O97      1.0000 0.48490  0.91319  0.89753  Biso   1.000  O
  O98      1.0000 0.48490  0.41319  0.39753  Biso   1.000  O
  O99      1.0000 0.48490  0.33681  0.35247  Biso   1.000  O
  O100     1.0000 0.98490  0.91319  0.39753  Biso   1.000  O
  O101     1.0000 0.76510  0.91319  0.35247  Biso   1.000  O
  O102     1.0000 0.98490  0.41319  0.89753  Biso   1.000  O
  O103     1.0000 0.76510  0.33681  0.89753  Biso   1.000  O
  O104     1.0000 0.26510  0.83681  0.89753  Biso   1.000  O
  O105     1.0000 0.26510  0.91319  0.85247  Biso   1.000  O
  O106     1.0000 0.48490  0.83681  0.85247  Biso   1.000  O
  O107     1.0000 0.26510  0.33681  0.39753  Biso   1.000  O
  O108     1.0000 0.26510  0.41319  0.35247  Biso   1.000  O
  O109     1.0000 0.76510  0.83681  0.39753  Biso   1.000  O
  O110     1.0000 0.98490  0.83681  0.35247  Biso   1.000  O
  O111     1.0000 0.76510  0.41319  0.85247  Biso   1.000  O
  O112     1.0000 0.98490  0.33681  0.85247  Biso   1.000  O
  O113     1.0000 0.43390  0.15430  0.09754  Biso   1.000  O
  O114     1.0000 0.43390  0.65430  0.59754  Biso   1.000  O
  O115     1.0000 0.43390  0.09570  0.15246  Biso   1.000  O
  O116     1.0000 0.93390  0.15430  0.59754  Biso   1.000  O
  O117     1.0000 0.81610  0.15430  0.15246  Biso   1.000  O
  O118     1.0000 0.93390  0.65430  0.09754  Biso   1.000  O
  O119     1.0000 0.81610  0.09570  0.09754  Biso   1.000  O
  O120     1.0000 0.31610  0.59570  0.09754  Biso   1.000  O
  O121     1.0000 0.31610  0.15430  0.65246  Biso   1.000  O
  O122     1.0000 0.43390  0.59570  0.65246  Biso   1.000  O
  O123     1.0000 0.31610  0.09570  0.59754  Biso   1.000  O
  O124     1.0000 0.31610  0.65430  0.15246  Biso   1.000  O
  O125     1.0000 0.81610  0.59570  0.59754  Biso   1.000  O
  O126     1.0000 0.93390  0.59570  0.15246  Biso   1.000  O
  O127     1.0000 0.81610  0.65430  0.65246  Biso   1.000  O
  O128     1.0000 0.93390  0.09570  0.65246  Biso   1.000  O
  O129     1.0000 0.56610  0.84570  0.90246  Biso   1.000  O
  O130     1.0000 0.56610  0.34570  0.40246  Biso   1.000  O
  O131     1.0000 0.56610  0.40430  0.34754  Biso   1.000  O
  O132     1.0000 0.06610  0.84570  0.40246  Biso   1.000  O
  O133     1.0000 0.68390  0.84570  0.34754  Biso   1.000  O
  O134     1.0000 0.06610  0.34570  0.90246  Biso   1.000  O
  O135     1.0000 0.68390  0.40430  0.90246  Biso   1.000  O
  O136     1.0000 0.18390  0.90430  0.90246  Biso   1.000  O
  O137     1.0000 0.18390  0.84570  0.84754  Biso   1.000  O
  O138     1.0000 0.56610  0.90430  0.84754  Biso   1.000  O
  O139     1.0000 0.18390  0.40430  0.40246  Biso   1.000  O
  O140     1.0000 0.18390  0.34570  0.34754  Biso   1.000  O
  O141     1.0000 0.68390  0.90430  0.40246  Biso   1.000  O
  O142     1.0000 0.06610  0.90430  0.34754  Biso   1.000  O
  O143     1.0000 0.68390  0.34570  0.84754  Biso   1.000  O
  O144     1.0000 0.06610  0.40430  0.84754  Biso   1.000  O
  O145     1.0000 0.58380  0.46033  0.26418  Biso   1.000  O
  O146     1.0000 0.58380  0.96033  0.76418  Biso   1.000  O
  O147     1.0000 0.58380  0.78967  0.98582  Biso   1.000  O
  O148     1.0000 0.08380  0.46033  0.76418  Biso   1.000  O
  O149     1.0000 0.66620  0.46033  0.98582  Biso   1.000  O
  O150     1.0000 0.08380  0.96033  0.26418  Biso   1.000  O
  O151     1.0000 0.66620  0.78967  0.26418  Biso   1.000  O
  O152     1.0000 0.16620  0.28967  0.26418  Biso   1.000  O
  O153     1.0000 0.16620  0.46033  0.48582  Biso   1.000  O
  O154     1.0000 0.58380  0.28967  0.48582  Biso   1.000  O
  O155     1.0000 0.16620  0.78967  0.76418  Biso   1.000  O
  O156     1.0000 0.16620  0.96033  0.98582  Biso   1.000  O
  O157     1.0000 0.66620  0.28967  0.76418  Biso   1.000  O
  O158     1.0000 0.08380  0.28967  0.98582  Biso   1.000  O
  O159     1.0000 0.66620  0.96033  0.48582  Biso   1.000  O
  O160     1.0000 0.08380  0.78967  0.48582  Biso   1.000  O
  O161     1.0000 0.41620  0.53967  0.73582  Biso   1.000  O
  O162     1.0000 0.41620  0.03967  0.23582  Biso   1.000  O
  O163     1.0000 0.41620  0.71033  0.51418  Biso   1.000  O
  O164     1.0000 0.91620  0.53967  0.23582  Biso   1.000  O
  O165     1.0000 0.83380  0.53967  0.51418  Biso   1.000  O
  O166     1.0000 0.91620  0.03967  0.73582  Biso   1.000  O
  O167     1.0000 0.83380  0.71033  0.73582  Biso   1.000  O
  O168     1.0000 0.33380  0.21033  0.73582  Biso   1.000  O
  O169     1.0000 0.33380  0.53967  0.01418  Biso   1.000  O
  O170     1.0000 0.41620  0.21033  0.01418  Biso   1.000  O
  O171     1.0000 0.33380  0.71033  0.23582  Biso   1.000  O
  O172     1.0000 0.33380  0.03967  0.51418  Biso   1.000  O
  O173     1.0000 0.83380  0.21033  0.23582  Biso   1.000  O
  O174     1.0000 0.91620  0.21033  0.51418  Biso   1.000  O
  O175     1.0000 0.83380  0.03967  0.01418  Biso   1.000  O
  O176     1.0000 0.91620  0.71033  0.01418  Biso   1.000  O
  H1       1.0000 0.58220  0.49660  0.26570  Biso   1.000  H
  H2       1.0000 0.58220  0.99660  0.76570  Biso   1.000  H
  H3       1.0000 0.58220  0.75340  0.98430  Biso   1.000  H
  H4       1.0000 0.08220  0.49660  0.76570  Biso   1.000  H
  H5       1.0000 0.66780  0.49660  0.98430  Biso   1.000  H
  H6       1.0000 0.08220  0.99660  0.26570  Biso   1.000  H
  H7       1.0000 0.66780  0.75340  0.26570  Biso   1.000  H
  H8       1.0000 0.16780  0.25340  0.26570  Biso   1.000  H
  H9       1.0000 0.16780  0.49660  0.48430  Biso   1.000  H
  H10      1.0000 0.58220  0.25340  0.48430  Biso   1.000  H
  H11      1.0000 0.16780  0.75340  0.76570  Biso   1.000  H
  H12      1.0000 0.16780  0.99660  0.98430  Biso   1.000  H
  H13      1.0000 0.66780  0.25340  0.76570  Biso   1.000  H
  H14      1.0000 0.08220  0.25340  0.98430  Biso   1.000  H
  H15      1.0000 0.66780  0.99660  0.48430  Biso   1.000  H
  H16      1.0000 0.08220  0.75340  0.48430  Biso   1.000  H
  H17      1.0000 0.41780  0.50340  0.73430  Biso   1.000  H
  H18      1.0000 0.41780  0.00340  0.23430  Biso   1.000  H
  H19      1.0000 0.41780  0.74660  0.51570  Biso   1.000  H
  H20      1.0000 0.91780  0.50340  0.23430  Biso   1.000  H
  H21      1.0000 0.83220  0.50340  0.51570  Biso   1.000  H
  H22      1.0000 0.91780  0.00340  0.73430  Biso   1.000  H
  H23      1.0000 0.83220  0.74660  0.73430  Biso   1.000  H
  H24      1.0000 0.33220  0.24660  0.73430  Biso   1.000  H
  H25      1.0000 0.33220  0.50340  0.01570  Biso   1.000  H
  H26      1.0000 0.41780  0.24660  0.01570  Biso   1.000  H
  H27      1.0000 0.33220  0.74660  0.23430  Biso   1.000  H
  H28      1.0000 0.33220  0.00340  0.51570  Biso   1.000  H
  H29      1.0000 0.83220  0.24660  0.23430  Biso   1.000  H
  H30      1.0000 0.91780  0.24660  0.51570  Biso   1.000  H
  H31      1.0000 0.83220  0.00340  0.01570  Biso   1.000  H
  H32      1.0000 0.91780  0.74660  0.01570  Biso   1.000  H
  H33      1.0000 0.57850  0.44370  0.28880  Biso   1.000  H
  H34      1.0000 0.57850  0.94370  0.78880  Biso   1.000  H
  H35      1.0000 0.57850  0.80630  0.96120  Biso   1.000  H
  H36      1.0000 0.07850  0.44370  0.78880  Biso   1.000  H
  H37      1.0000 0.67150  0.44370  0.96120  Biso   1.000  H
  H38      1.0000 0.07850  0.94370  0.28880  Biso   1.000  H
  H39      1.0000 0.67150  0.80630  0.28880  Biso   1.000  H
  H40      1.0000 0.17150  0.30630  0.28880  Biso   1.000  H
  H41      1.0000 0.17150  0.44370  0.46120  Biso   1.000  H
  H42      1.0000 0.57850  0.30630  0.46120  Biso   1.000  H
  H43      1.0000 0.17150  0.80630  0.78880  Biso   1.000  H
  H44      1.0000 0.17150  0.94370  0.96120  Biso   1.000  H
  H45      1.0000 0.67150  0.30630  0.78880  Biso   1.000  H
  H46      1.0000 0.07850  0.30630  0.96120  Biso   1.000  H
  H47      1.0000 0.67150  0.94370  0.46120  Biso   1.000  H
  H48      1.0000 0.07850  0.80630  0.46120  Biso   1.000  H
  H49      1.0000 0.42150  0.55630  0.71120  Biso   1.000  H
  H50      1.0000 0.42150  0.05630  0.21120  Biso   1.000  H
  H51      1.0000 0.42150  0.69370  0.53880  Biso   1.000  H
  H52      1.0000 0.92150  0.55630  0.21120  Biso   1.000  H
  H53      1.0000 0.82850  0.55630  0.53880  Biso   1.000  H
  H54      1.0000 0.92150  0.05630  0.71120  Biso   1.000  H
  H55      1.0000 0.82850  0.69370  0.71120  Biso   1.000  H
  H56      1.0000 0.32850  0.19370  0.71120  Biso   1.000  H
  H57      1.0000 0.32850  0.55630  0.03880  Biso   1.000  H
  H58      1.0000 0.42150  0.19370  0.03880  Biso   1.000  H
  H59      1.0000 0.32850  0.69370  0.21120  Biso   1.000  H
  H60      1.0000 0.32850  0.05630  0.53880  Biso   1.000  H
  H61      1.0000 0.82850  0.19370  0.21120  Biso   1.000  H
  H62      1.0000 0.92150  0.19370  0.53880  Biso   1.000  H
  H63      1.0000 0.82850  0.05630  0.03880  Biso   1.000  H
  H64      1.0000 0.92150  0.69370  0.03880  Biso   1.000  H
  N1       1.0000 0.52065  0.47349  0.12170  Biso   1.000  N
  N2       1.0000 0.52065  0.97349  0.62170  Biso   1.000  N
  N3       1.0000 0.52065  0.77651  0.12830  Biso   1.000  N
  N4       1.0000 0.02065  0.47349  0.62170  Biso   1.000  N
  N5       1.0000 0.72935  0.47349  0.12830  Biso   1.000  N
  N6       1.0000 0.02065  0.97349  0.12170  Biso   1.000  N
  N7       1.0000 0.72935  0.77651  0.12170  Biso   1.000  N
  N8       1.0000 0.22935  0.27651  0.12170  Biso   1.000  N
  N9       1.0000 0.22935  0.47349  0.62830  Biso   1.000  N
  N10      1.0000 0.52065  0.27651  0.62830  Biso   1.000  N
  N11      1.0000 0.22935  0.77651  0.62170  Biso   1.000  N
  N12      1.0000 0.22935  0.97349  0.12830  Biso   1.000  N
  N13      1.0000 0.72935  0.27651  0.62170  Biso   1.000  N
  N14      1.0000 0.02065  0.27651  0.12830  Biso   1.000  N
  N15      1.0000 0.72935  0.97349  0.62830  Biso   1.000  N
  N16      1.0000 0.02065  0.77651  0.62830  Biso   1.000  N
  N17      1.0000 0.47935  0.52651  0.87830  Biso   1.000  N
  N18      1.0000 0.47935  0.02651  0.37830  Biso   1.000  N
  N19      1.0000 0.47935  0.72349  0.37170  Biso   1.000  N
  N20      1.0000 0.97935  0.52651  0.37830  Biso   1.000  N
  N21      1.0000 0.77065  0.52651  0.37170  Biso   1.000  N
  N22      1.0000 0.97935  0.02651  0.87830  Biso   1.000  N
  N23      1.0000 0.77065  0.72349  0.87830  Biso   1.000  N
  N24      1.0000 0.27065  0.22349  0.87830  Biso   1.000  N
  N25      1.0000 0.27065  0.52651  0.87170  Biso   1.000  N
  N26      1.0000 0.47935  0.22349  0.87170  Biso   1.000  N
  N27      1.0000 0.27065  0.72349  0.37830  Biso   1.000  N
  N28      1.0000 0.27065  0.02651  0.37170  Biso   1.000  N
  N29      1.0000 0.77065  0.22349  0.37830  Biso   1.000  N
  N30      1.0000 0.97935  0.22349  0.37170  Biso   1.000  N
  N31      1.0000 0.77065  0.02651  0.87170  Biso   1.000  N
  N32      1.0000 0.97935  0.72349  0.87170  Biso   1.000  N
  N33      1.0000 0.46219  0.34458  0.16732  Biso   1.000  N
  N34      1.0000 0.46219  0.84458  0.66732  Biso   1.000  N
  N35      1.0000 0.46219  0.90542  0.08268  Biso   1.000  N
  N36      1.0000 0.96219  0.34458  0.66732  Biso   1.000  N
  N37      1.0000 0.78781  0.34458  0.08268  Biso   1.000  N
  N38      1.0000 0.96219  0.84458  0.16732  Biso   1.000  N
  N39      1.0000 0.78781  0.90542  0.16732  Biso   1.000  N
  N40      1.0000 0.28781  0.40542  0.16732  Biso   1.000  N
  N41      1.0000 0.28781  0.34458  0.58268  Biso   1.000  N
  N42      1.0000 0.46219  0.40542  0.58268  Biso   1.000  N
  N43      1.0000 0.28781  0.90542  0.66732  Biso   1.000  N
  N44      1.0000 0.28781  0.84458  0.08268  Biso   1.000  N
  N45      1.0000 0.78781  0.40542  0.66732  Biso   1.000  N
  N46      1.0000 0.96219  0.40542  0.08268  Biso   1.000  N
  N47      1.0000 0.78781  0.84458  0.58268  Biso   1.000  N
  N48      1.0000 0.96219  0.90542  0.58268  Biso   1.000  N
  N49      1.0000 0.53781  0.65542  0.83268  Biso   1.000  N
  N50      1.0000 0.53781  0.15542  0.33268  Biso   1.000  N
  N51      1.0000 0.53781  0.59458  0.41732  Biso   1.000  N
  N52      1.0000 0.03781  0.65542  0.33268  Biso   1.000  N
  N53      1.0000 0.71219  0.65542  0.41732  Biso   1.000  N
  N54      1.0000 0.03781  0.15542  0.83268  Biso   1.000  N
  N55      1.0000 0.71219  0.59458  0.83268  Biso   1.000  N
  N56      1.0000 0.21219  0.09458  0.83268  Biso   1.000  N
  N57      1.0000 0.21219  0.65542  0.91732  Biso   1.000  N
  N58      1.0000 0.53781  0.09458  0.91732  Biso   1.000  N
  N59      1.0000 0.21219  0.59458  0.33268  Biso   1.000  N
  N60      1.0000 0.21219  0.15542  0.41732  Biso   1.000  N
  N61      1.0000 0.71219  0.09458  0.33268  Biso   1.000  N
  N62      1.0000 0.03781  0.09458  0.41732  Biso   1.000  N
  N63      1.0000 0.71219  0.15542  0.91732  Biso   1.000  N
  N64      1.0000 0.03781  0.59458  0.91732  Biso   1.000  N
  N65      1.0000 0.31272  0.16160  0.32837  Biso   1.000  N
  N66      1.0000 0.31272  0.66160  0.82837  Biso   1.000  N
  N67      1.0000 0.31272  0.08840  0.92163  Biso   1.000  N
  N68      1.0000 0.81272  0.16160  0.82837  Biso   1.000  N
  N69      1.0000 0.93728  0.16160  0.92163  Biso   1.000  N
  N70      1.0000 0.81272  0.66160  0.32837  Biso   1.000  N
  N71      1.0000 0.93728  0.08840  0.32837  Biso   1.000  N
  N72      1.0000 0.43728  0.58840  0.32837  Biso   1.000  N
  N73      1.0000 0.43728  0.16160  0.42163  Biso   1.000  N
  N74      1.0000 0.31272  0.58840  0.42163  Biso   1.000  N
  N75      1.0000 0.43728  0.08840  0.82837  Biso   1.000  N
  N76      1.0000 0.43728  0.66160  0.92163  Biso   1.000  N
  N77      1.0000 0.93728  0.58840  0.82837  Biso   1.000  N
  N78      1.0000 0.81272  0.58840  0.92163  Biso   1.000  N
  N79      1.0000 0.93728  0.66160  0.42163  Biso   1.000  N
  N80      1.0000 0.81272  0.08840  0.42163  Biso   1.000  N
  N81      1.0000 0.68728  0.83840  0.67163  Biso   1.000  N
  N82      1.0000 0.68728  0.33840  0.17163  Biso   1.000  N
  N83      1.0000 0.68728  0.41160  0.57837  Biso   1.000  N
  N84      1.0000 0.18728  0.83840  0.17163  Biso   1.000  N
  N85      1.0000 0.56272  0.83840  0.57837  Biso   1.000  N
  N86      1.0000 0.18728  0.33840  0.67163  Biso   1.000  N
  N87      1.0000 0.56272  0.41160  0.67163  Biso   1.000  N
  N88      1.0000 0.06272  0.91160  0.67163  Biso   1.000  N
  N89      1.0000 0.06272  0.83840  0.07837  Biso   1.000  N
  N90      1.0000 0.68728  0.91160  0.07837  Biso   1.000  N
  N91      1.0000 0.06272  0.41160  0.17163  Biso   1.000  N
  N92      1.0000 0.06272  0.33840  0.57837  Biso   1.000  N
  N93      1.0000 0.56272  0.91160  0.17163  Biso   1.000  N
  N94      1.0000 0.18728  0.91160  0.57837  Biso   1.000  N
  N95      1.0000 0.56272  0.33840  0.07837  Biso   1.000  N
  N96      1.0000 0.18728  0.41160  0.07837  Biso   1.000  N
  C1       1.0000 0.54213  0.50213  0.15739  Biso   1.000  C
  C2       1.0000 0.54213  0.00213  0.65739  Biso   1.000  C
  C3       1.0000 0.54213  0.74787  0.09261  Biso   1.000  C
  C4       1.0000 0.04213  0.50213  0.65739  Biso   1.000  C
  C5       1.0000 0.70787  0.50213  0.09261  Biso   1.000  C
  C6       1.0000 0.04213  0.00213  0.15739  Biso   1.000  C
  C7       1.0000 0.70787  0.74787  0.15739  Biso   1.000  C
  C8       1.0000 0.20787  0.24787  0.15739  Biso   1.000  C
  C9       1.0000 0.20787  0.50213  0.59261  Biso   1.000  C
  C10      1.0000 0.54213  0.24787  0.59261  Biso   1.000  C
  C11      1.0000 0.20787  0.74787  0.65739  Biso   1.000  C
  C12      1.0000 0.20787  0.00213  0.09261  Biso   1.000  C
  C13      1.0000 0.70787  0.24787  0.65739  Biso   1.000  C
  C14      1.0000 0.04213  0.24787  0.09261  Biso   1.000  C
  C15      1.0000 0.70787  0.00213  0.59261  Biso   1.000  C
  C16      1.0000 0.04213  0.74787  0.59261  Biso   1.000  C
  C17      1.0000 0.45787  0.49787  0.84261  Biso   1.000  C
  C18      1.0000 0.45787  0.99787  0.34261  Biso   1.000  C
  C19      1.0000 0.45787  0.75213  0.40739  Biso   1.000  C
  C20      1.0000 0.95787  0.49787  0.34261  Biso   1.000  C
  C21      1.0000 0.79213  0.49787  0.40739  Biso   1.000  C
  C22      1.0000 0.95787  0.99787  0.84261  Biso   1.000  C
  C23      1.0000 0.79213  0.75213  0.84261  Biso   1.000  C
  C24      1.0000 0.29213  0.25213  0.84261  Biso   1.000  C
  C25      1.0000 0.29213  0.49787  0.90739  Biso   1.000  C
  C26      1.0000 0.45787  0.25213  0.90739  Biso   1.000  C
  C27      1.0000 0.29213  0.75213  0.34261  Biso   1.000  C
  C28      1.0000 0.29213  0.99787  0.40739  Biso   1.000  C
  C29      1.0000 0.79213  0.25213  0.34261  Biso   1.000  C
  C30      1.0000 0.95787  0.25213  0.40739  Biso   1.000  C
  C31      1.0000 0.79213  0.99787  0.90739  Biso   1.000  C
  C32      1.0000 0.95787  0.75213  0.90739  Biso   1.000  C
  H65      1.0000 0.55790  0.48130  0.18160  Biso   1.000  H
  H66      1.0000 0.55790  0.98130  0.68160  Biso   1.000  H
  H67      1.0000 0.55790  0.76870  0.06840  Biso   1.000  H
  H68      1.0000 0.05790  0.48130  0.68160  Biso   1.000  H
  H69      1.0000 0.69210  0.48130  0.06840  Biso   1.000  H
  H70      1.0000 0.05790  0.98130  0.18160  Biso   1.000  H
  H71      1.0000 0.69210  0.76870  0.18160  Biso   1.000  H
  H72      1.0000 0.19210  0.26870  0.18160  Biso   1.000  H
  H73      1.0000 0.19210  0.48130  0.56840  Biso   1.000  H
  H74      1.0000 0.55790  0.26870  0.56840  Biso   1.000  H
  H75      1.0000 0.19210  0.76870  0.68160  Biso   1.000  H
  H76      1.0000 0.19210  0.98130  0.06840  Biso   1.000  H
  H77      1.0000 0.69210  0.26870  0.68160  Biso   1.000  H
  H78      1.0000 0.05790  0.26870  0.06840  Biso   1.000  H
  H79      1.0000 0.69210  0.98130  0.56840  Biso   1.000  H
  H80      1.0000 0.05790  0.76870  0.56840  Biso   1.000  H
  H81      1.0000 0.44210  0.51870  0.81840  Biso   1.000  H
  H82      1.0000 0.44210  0.01870  0.31840  Biso   1.000  H
  H83      1.0000 0.44210  0.73130  0.43160  Biso   1.000  H
  H84      1.0000 0.94210  0.51870  0.31840  Biso   1.000  H
  H85      1.0000 0.80790  0.51870  0.43160  Biso   1.000  H
  H86      1.0000 0.94210  0.01870  0.81840  Biso   1.000  H
  H87      1.0000 0.80790  0.73130  0.81840  Biso   1.000  H
  H88      1.0000 0.30790  0.23130  0.81840  Biso   1.000  H
  H89      1.0000 0.30790  0.51870  0.93160  Biso   1.000  H
  H90      1.0000 0.44210  0.23130  0.93160  Biso   1.000  H
  H91      1.0000 0.30790  0.73130  0.31840  Biso   1.000  H
  H92      1.0000 0.30790  0.01870  0.43160  Biso   1.000  H
  H93      1.0000 0.80790  0.23130  0.31840  Biso   1.000  H
  H94      1.0000 0.94210  0.23130  0.43160  Biso   1.000  H
  H95      1.0000 0.80790  0.01870  0.93160  Biso   1.000  H
  H96      1.0000 0.94210  0.73130  0.93160  Biso   1.000  H
  C33      1.0000 0.54201  0.56136  0.16007  Biso   1.000  C
  C34      1.0000 0.54201  0.06136  0.66007  Biso   1.000  C
  C35      1.0000 0.54201  0.68864  0.08993  Biso   1.000  C
  C36      1.0000 0.04201  0.56136  0.66007  Biso   1.000  C
  C37      1.0000 0.70799  0.56136  0.08993  Biso   1.000  C
  C38      1.0000 0.04201  0.06136  0.16007  Biso   1.000  C
  C39      1.0000 0.70799  0.68864  0.16007  Biso   1.000  C
  C40      1.0000 0.20799  0.18864  0.16007  Biso   1.000  C
  C41      1.0000 0.20799  0.56136  0.58993  Biso   1.000  C
  C42      1.0000 0.54201  0.18864  0.58993  Biso   1.000  C
  C43      1.0000 0.20799  0.68864  0.66007  Biso   1.000  C
  C44      1.0000 0.20799  0.06136  0.08993  Biso   1.000  C
  C45      1.0000 0.70799  0.18864  0.66007  Biso   1.000  C
  C46      1.0000 0.04201  0.18864  0.08993  Biso   1.000  C
  C47      1.0000 0.70799  0.06136  0.58993  Biso   1.000  C
  C48      1.0000 0.04201  0.68864  0.58993  Biso   1.000  C
  C49      1.0000 0.45799  0.43864  0.83993  Biso   1.000  C
  C50      1.0000 0.45799  0.93864  0.33993  Biso   1.000  C
  C51      1.0000 0.45799  0.81136  0.41007  Biso   1.000  C
  C52      1.0000 0.95799  0.43864  0.33993  Biso   1.000  C
  C53      1.0000 0.79201  0.43864  0.41007  Biso   1.000  C
  C54      1.0000 0.95799  0.93864  0.83993  Biso   1.000  C
  C55      1.0000 0.79201  0.81136  0.83993  Biso   1.000  C
  C56      1.0000 0.29201  0.31136  0.83993  Biso   1.000  C
  C57      1.0000 0.29201  0.43864  0.91007  Biso   1.000  C
  C58      1.0000 0.45799  0.31136  0.91007  Biso   1.000  C
  C59      1.0000 0.29201  0.81136  0.33993  Biso   1.000  C
  C60      1.0000 0.29201  0.93864  0.41007  Biso   1.000  C
  C61      1.0000 0.79201  0.31136  0.33993  Biso   1.000  C
  C62      1.0000 0.95799  0.31136  0.41007  Biso   1.000  C
  C63      1.0000 0.79201  0.93864  0.91007  Biso   1.000  C
  C64      1.0000 0.95799  0.81136  0.91007  Biso   1.000  C
  H97      1.0000 0.55650  0.57950  0.18580  Biso   1.000  H
  H98      1.0000 0.55650  0.07950  0.68580  Biso   1.000  H
  H99      1.0000 0.55650  0.67050  0.06420  Biso   1.000  H
  H100     1.0000 0.05650  0.57950  0.68580  Biso   1.000  H
  H101     1.0000 0.69350  0.57950  0.06420  Biso   1.000  H
  H102     1.0000 0.05650  0.07950  0.18580  Biso   1.000  H
  H103     1.0000 0.69350  0.67050  0.18580  Biso   1.000  H
  H104     1.0000 0.19350  0.17050  0.18580  Biso   1.000  H
  H105     1.0000 0.19350  0.57950  0.56420  Biso   1.000  H
  H106     1.0000 0.55650  0.17050  0.56420  Biso   1.000  H
  H107     1.0000 0.19350  0.67050  0.68580  Biso   1.000  H
  H108     1.0000 0.19350  0.07950  0.06420  Biso   1.000  H
  H109     1.0000 0.69350  0.17050  0.68580  Biso   1.000  H
  H110     1.0000 0.05650  0.17050  0.06420  Biso   1.000  H
  H111     1.0000 0.69350  0.07950  0.56420  Biso   1.000  H
  H112     1.0000 0.05650  0.67050  0.56420  Biso   1.000  H
  H113     1.0000 0.44350  0.42050  0.81420  Biso   1.000  H
  H114     1.0000 0.44350  0.92050  0.31420  Biso   1.000  H
  H115     1.0000 0.44350  0.82950  0.43580  Biso   1.000  H
  H116     1.0000 0.94350  0.42050  0.31420  Biso   1.000  H
  H117     1.0000 0.80650  0.42050  0.43580  Biso   1.000  H
  H118     1.0000 0.94350  0.92050  0.81420  Biso   1.000  H
  H119     1.0000 0.80650  0.82950  0.81420  Biso   1.000  H
  H120     1.0000 0.30650  0.32950  0.81420  Biso   1.000  H
  H121     1.0000 0.30650  0.42050  0.93580  Biso   1.000  H
  H122     1.0000 0.44350  0.32950  0.93580  Biso   1.000  H
  H123     1.0000 0.30650  0.82950  0.31420  Biso   1.000  H
  H124     1.0000 0.30650  0.92050  0.43580  Biso   1.000  H
  H125     1.0000 0.80650  0.32950  0.31420  Biso   1.000  H
  H126     1.0000 0.94350  0.32950  0.43580  Biso   1.000  H
  H127     1.0000 0.80650  0.92050  0.93580  Biso   1.000  H
  H128     1.0000 0.94350  0.82950  0.93580  Biso   1.000  H
  C65      1.0000 0.52038  0.59318  0.12440  Biso   1.000  C
  C66      1.0000 0.52038  0.09318  0.62440  Biso   1.000  C
  C67      1.0000 0.52038  0.65682  0.12560  Biso   1.000  C
  C68      1.0000 0.02038  0.59318  0.62440  Biso   1.000  C
  C69      1.0000 0.72962  0.59318  0.12560  Biso   1.000  C
  C70      1.0000 0.02038  0.09318  0.12440  Biso   1.000  C
  C71      1.0000 0.72962  0.65682  0.12440  Biso   1.000  C
  C72      1.0000 0.22962  0.15682  0.12440  Biso   1.000  C
  C73      1.0000 0.22962  0.59318  0.62560  Biso   1.000  C
  C74      1.0000 0.52038  0.15682  0.62560  Biso   1.000  C
  C75      1.0000 0.22962  0.65682  0.62440  Biso   1.000  C
  C76      1.0000 0.22962  0.09318  0.12560  Biso   1.000  C
  C77      1.0000 0.72962  0.15682  0.62440  Biso   1.000  C
  C78      1.0000 0.02038  0.15682  0.12560  Biso   1.000  C
  C79      1.0000 0.72962  0.09318  0.62560  Biso   1.000  C
  C80      1.0000 0.02038  0.65682  0.62560  Biso   1.000  C
  C81      1.0000 0.47962  0.40682  0.87560  Biso   1.000  C
  C82      1.0000 0.47962  0.90682  0.37560  Biso   1.000  C
  C83      1.0000 0.47962  0.84318  0.37440  Biso   1.000  C
  C84      1.0000 0.97962  0.40682  0.37560  Biso   1.000  C
  C85      1.0000 0.77038  0.40682  0.37440  Biso   1.000  C
  C86      1.0000 0.97962  0.90682  0.87560  Biso   1.000  C
  C87      1.0000 0.77038  0.84318  0.87560  Biso   1.000  C
  C88      1.0000 0.27038  0.34318  0.87560  Biso   1.000  C
  C89      1.0000 0.27038  0.40682  0.87440  Biso   1.000  C
  C90      1.0000 0.47962  0.34318  0.87440  Biso   1.000  C
  C91      1.0000 0.27038  0.84318  0.37560  Biso   1.000  C
  C92      1.0000 0.27038  0.90682  0.37440  Biso   1.000  C
  C93      1.0000 0.77038  0.34318  0.37560  Biso   1.000  C
  C94      1.0000 0.97962  0.34318  0.37440  Biso   1.000  C
  C95      1.0000 0.77038  0.90682  0.87440  Biso   1.000  C
  C96      1.0000 0.97962  0.84318  0.87440  Biso   1.000  C
  C97      1.0000 0.49930  0.56371  0.08695  Biso   1.000  C
  C98      1.0000 0.49930  0.06371  0.58695  Biso   1.000  C
  C99      1.0000 0.49930  0.68629  0.16305  Biso   1.000  C
  C100     1.0000 0.99930  0.56371  0.58695  Biso   1.000  C
  C101     1.0000 0.75070  0.56371  0.16305  Biso   1.000  C
  C102     1.0000 0.99930  0.06371  0.08695  Biso   1.000  C
  C103     1.0000 0.75070  0.68629  0.08695  Biso   1.000  C
  C104     1.0000 0.25070  0.18629  0.08695  Biso   1.000  C
  C105     1.0000 0.25070  0.56371  0.66305  Biso   1.000  C
  C106     1.0000 0.49930  0.18629  0.66305  Biso   1.000  C
  C107     1.0000 0.25070  0.68629  0.58695  Biso   1.000  C
  C108     1.0000 0.25070  0.06371  0.16305  Biso   1.000  C
  C109     1.0000 0.75070  0.18629  0.58695  Biso   1.000  C
  C110     1.0000 0.99930  0.18629  0.16305  Biso   1.000  C
  C111     1.0000 0.75070  0.06371  0.66305  Biso   1.000  C
  C112     1.0000 0.99930  0.68629  0.66305  Biso   1.000  C
  C113     1.0000 0.50070  0.43629  0.91305  Biso   1.000  C
  C114     1.0000 0.50070  0.93629  0.41305  Biso   1.000  C
  C115     1.0000 0.50070  0.81371  0.33695  Biso   1.000  C
  C116     1.0000 0.00070  0.43629  0.41305  Biso   1.000  C
  C117     1.0000 0.74930  0.43629  0.33695  Biso   1.000  C
  C118     1.0000 0.00070  0.93629  0.91305  Biso   1.000  C
  C119     1.0000 0.74930  0.81371  0.91305  Biso   1.000  C
  C120     1.0000 0.24930  0.31371  0.91305  Biso   1.000  C
  C121     1.0000 0.24930  0.43629  0.83695  Biso   1.000  C
  C122     1.0000 0.50070  0.31371  0.83695  Biso   1.000  C
  C123     1.0000 0.24930  0.81371  0.41305  Biso   1.000  C
  C124     1.0000 0.24930  0.93629  0.33695  Biso   1.000  C
  C125     1.0000 0.74930  0.31371  0.41305  Biso   1.000  C
  C126     1.0000 0.00070  0.31371  0.33695  Biso   1.000  C
  C127     1.0000 0.74930  0.93629  0.83695  Biso   1.000  C
  C128     1.0000 0.00070  0.81371  0.83695  Biso   1.000  C
  H129     1.0000 0.48490  0.58360  0.06200  Biso   1.000  H
  H130     1.0000 0.48490  0.08360  0.56200  Biso   1.000  H
  H131     1.0000 0.48490  0.66640  0.18800  Biso   1.000  H
  H132     1.0000 0.98490  0.58360  0.56200  Biso   1.000  H
  H133     1.0000 0.76510  0.58360  0.18800  Biso   1.000  H
  H134     1.0000 0.98490  0.08360  0.06200  Biso   1.000  H
  H135     1.0000 0.76510  0.66640  0.06200  Biso   1.000  H
  H136     1.0000 0.26510  0.16640  0.06200  Biso   1.000  H
  H137     1.0000 0.26510  0.58360  0.68800  Biso   1.000  H
  H138     1.0000 0.48490  0.16640  0.68800  Biso   1.000  H
  H139     1.0000 0.26510  0.66640  0.56200  Biso   1.000  H
  H140     1.0000 0.26510  0.08360  0.18800  Biso   1.000  H
  H141     1.0000 0.76510  0.16640  0.56200  Biso   1.000  H
  H142     1.0000 0.98490  0.16640  0.18800  Biso   1.000  H
  H143     1.0000 0.76510  0.08360  0.68800  Biso   1.000  H
  H144     1.0000 0.98490  0.66640  0.68800  Biso   1.000  H
  H145     1.0000 0.51510  0.41640  0.93800  Biso   1.000  H
  H146     1.0000 0.51510  0.91640  0.43800  Biso   1.000  H
  H147     1.0000 0.51510  0.83360  0.31200  Biso   1.000  H
  H148     1.0000 0.01510  0.41640  0.43800  Biso   1.000  H
  H149     1.0000 0.73490  0.41640  0.31200  Biso   1.000  H
  H150     1.0000 0.01510  0.91640  0.93800  Biso   1.000  H
  H151     1.0000 0.73490  0.83360  0.93800  Biso   1.000  H
  H152     1.0000 0.23490  0.33360  0.93800  Biso   1.000  H
  H153     1.0000 0.23490  0.41640  0.81200  Biso   1.000  H
  H154     1.0000 0.51510  0.33360  0.81200  Biso   1.000  H
  H155     1.0000 0.23490  0.83360  0.43800  Biso   1.000  H
  H156     1.0000 0.23490  0.91640  0.31200  Biso   1.000  H
  H157     1.0000 0.73490  0.33360  0.43800  Biso   1.000  H
  H158     1.0000 0.01510  0.33360  0.31200  Biso   1.000  H
  H159     1.0000 0.73490  0.91640  0.81200  Biso   1.000  H
  H160     1.0000 0.01510  0.83360  0.81200  Biso   1.000  H
  C129     1.0000 0.49982  0.50469  0.08705  Biso   1.000  C
  C130     1.0000 0.49982  0.00469  0.58705  Biso   1.000  C
  C131     1.0000 0.49982  0.74531  0.16295  Biso   1.000  C
  C132     1.0000 0.99982  0.50469  0.58705  Biso   1.000  C
  C133     1.0000 0.75018  0.50469  0.16295  Biso   1.000  C
  C134     1.0000 0.99982  0.00469  0.08705  Biso   1.000  C
  C135     1.0000 0.75018  0.74531  0.08705  Biso   1.000  C
  C136     1.0000 0.25018  0.24531  0.08705  Biso   1.000  C
  C137     1.0000 0.25018  0.50469  0.66295  Biso   1.000  C
  C138     1.0000 0.49982  0.24531  0.66295  Biso   1.000  C
  C139     1.0000 0.25018  0.74531  0.58705  Biso   1.000  C
  C140     1.0000 0.25018  0.00469  0.16295  Biso   1.000  C
  C141     1.0000 0.75018  0.24531  0.58705  Biso   1.000  C
  C142     1.0000 0.99982  0.24531  0.16295  Biso   1.000  C
  C143     1.0000 0.75018  0.00469  0.66295  Biso   1.000  C
  C144     1.0000 0.99982  0.74531  0.66295  Biso   1.000  C
  C145     1.0000 0.50018  0.49531  0.91295  Biso   1.000  C
  C146     1.0000 0.50018  0.99531  0.41295  Biso   1.000  C
  C147     1.0000 0.50018  0.75469  0.33705  Biso   1.000  C
  C148     1.0000 0.00018  0.49531  0.41295  Biso   1.000  C
  C149     1.0000 0.74982  0.49531  0.33705  Biso   1.000  C
  C150     1.0000 0.00018  0.99531  0.91295  Biso   1.000  C
  C151     1.0000 0.74982  0.75469  0.91295  Biso   1.000  C
  C152     1.0000 0.24982  0.25469  0.91295  Biso   1.000  C
  C153     1.0000 0.24982  0.49531  0.83705  Biso   1.000  C
  C154     1.0000 0.50018  0.25469  0.83705  Biso   1.000  C
  C155     1.0000 0.24982  0.75469  0.41295  Biso   1.000  C
  C156     1.0000 0.24982  0.99531  0.33705  Biso   1.000  C
  C157     1.0000 0.74982  0.25469  0.41295  Biso   1.000  C
  C158     1.0000 0.00018  0.25469  0.33705  Biso   1.000  C
  C159     1.0000 0.74982  0.99531  0.83705  Biso   1.000  C
  C160     1.0000 0.00018  0.75469  0.83705  Biso   1.000  C
  H161     1.0000 0.48500  0.48560  0.06180  Biso   1.000  H
  H162     1.0000 0.48500  0.98560  0.56180  Biso   1.000  H
  H163     1.0000 0.48500  0.76440  0.18820  Biso   1.000  H
  H164     1.0000 0.98500  0.48560  0.56180  Biso   1.000  H
  H165     1.0000 0.76500  0.48560  0.18820  Biso   1.000  H
  H166     1.0000 0.98500  0.98560  0.06180  Biso   1.000  H
  H167     1.0000 0.76500  0.76440  0.06180  Biso   1.000  H
  H168     1.0000 0.26500  0.26440  0.06180  Biso   1.000  H
  H169     1.0000 0.26500  0.48560  0.68820  Biso   1.000  H
  H170     1.0000 0.48500  0.26440  0.68820  Biso   1.000  H
  H171     1.0000 0.26500  0.76440  0.56180  Biso   1.000  H
  H172     1.0000 0.26500  0.98560  0.18820  Biso   1.000  H
  H173     1.0000 0.76500  0.26440  0.56180  Biso   1.000  H
  H174     1.0000 0.98500  0.26440  0.18820  Biso   1.000  H
  H175     1.0000 0.76500  0.98560  0.68820  Biso   1.000  H
  H176     1.0000 0.98500  0.76440  0.68820  Biso   1.000  H
  H177     1.0000 0.51500  0.51440  0.93820  Biso   1.000  H
  H178     1.0000 0.51500  0.01440  0.43820  Biso   1.000  H
  H179     1.0000 0.51500  0.73560  0.31180  Biso   1.000  H
  H180     1.0000 0.01500  0.51440  0.43820  Biso   1.000  H
  H181     1.0000 0.73500  0.51440  0.31180  Biso   1.000  H
  H182     1.0000 0.01500  0.01440  0.93820  Biso   1.000  H
  H183     1.0000 0.73500  0.73560  0.93820  Biso   1.000  H
  H184     1.0000 0.23500  0.23560  0.93820  Biso   1.000  H
  H185     1.0000 0.23500  0.51440  0.81180  Biso   1.000  H
  H186     1.0000 0.51500  0.23560  0.81180  Biso   1.000  H
  H187     1.0000 0.23500  0.73560  0.43820  Biso   1.000  H
  H188     1.0000 0.23500  0.01440  0.31180  Biso   1.000  H
  H189     1.0000 0.73500  0.23560  0.43820  Biso   1.000  H
  H190     1.0000 0.01500  0.23560  0.31180  Biso   1.000  H
  H191     1.0000 0.73500  0.01440  0.81180  Biso   1.000  H
  H192     1.0000 0.01500  0.73560  0.81180  Biso   1.000  H
  C161     1.0000 0.46957  0.35530  0.21029  Biso   1.000  C
  C162     1.0000 0.46957  0.85530  0.71029  Biso   1.000  C
  C163     1.0000 0.46957  0.89470  0.03971  Biso   1.000  C
  C164     1.0000 0.96957  0.35530  0.71029  Biso   1.000  C
  C165     1.0000 0.78043  0.35530  0.03971  Biso   1.000  C
  C166     1.0000 0.96957  0.85530  0.21029  Biso   1.000  C
  C167     1.0000 0.78043  0.89470  0.21029  Biso   1.000  C
  C168     1.0000 0.28043  0.39470  0.21029  Biso   1.000  C
  C169     1.0000 0.28043  0.35530  0.53971  Biso   1.000  C
  C170     1.0000 0.46957  0.39470  0.53971  Biso   1.000  C
  C171     1.0000 0.28043  0.89470  0.71029  Biso   1.000  C
  C172     1.0000 0.28043  0.85530  0.03971  Biso   1.000  C
  C173     1.0000 0.78043  0.39470  0.71029  Biso   1.000  C
  C174     1.0000 0.96957  0.39470  0.03971  Biso   1.000  C
  C175     1.0000 0.78043  0.85530  0.53971  Biso   1.000  C
  C176     1.0000 0.96957  0.89470  0.53971  Biso   1.000  C
  C177     1.0000 0.53043  0.64470  0.78971  Biso   1.000  C
  C178     1.0000 0.53043  0.14470  0.28971  Biso   1.000  C
  C179     1.0000 0.53043  0.60530  0.46029  Biso   1.000  C
  C180     1.0000 0.03043  0.64470  0.28971  Biso   1.000  C
  C181     1.0000 0.71957  0.64470  0.46029  Biso   1.000  C
  C182     1.0000 0.03043  0.14470  0.78971  Biso   1.000  C
  C183     1.0000 0.71957  0.60530  0.78971  Biso   1.000  C
  C184     1.0000 0.21957  0.10530  0.78971  Biso   1.000  C
  C185     1.0000 0.21957  0.64470  0.96029  Biso   1.000  C
  C186     1.0000 0.53043  0.10530  0.96029  Biso   1.000  C
  C187     1.0000 0.21957  0.60530  0.28971  Biso   1.000  C
  C188     1.0000 0.21957  0.14470  0.46029  Biso   1.000  C
  C189     1.0000 0.71957  0.10530  0.28971  Biso   1.000  C
  C190     1.0000 0.03043  0.10530  0.46029  Biso   1.000  C
  C191     1.0000 0.71957  0.14470  0.96029  Biso   1.000  C
  C192     1.0000 0.03043  0.60530  0.96029  Biso   1.000  C
  H193     1.0000 0.49540  0.38750  0.21880  Biso   1.000  H
  H194     1.0000 0.49540  0.88750  0.71880  Biso   1.000  H
  H195     1.0000 0.49540  0.86250  0.03120  Biso   1.000  H
  H196     1.0000 0.99540  0.38750  0.71880  Biso   1.000  H
  H197     1.0000 0.75460  0.38750  0.03120  Biso   1.000  H
  H198     1.0000 0.99540  0.88750  0.21880  Biso   1.000  H
  H199     1.0000 0.75460  0.86250  0.21880  Biso   1.000  H
  H200     1.0000 0.25460  0.36250  0.21880  Biso   1.000  H
  H201     1.0000 0.25460  0.38750  0.53120  Biso   1.000  H
  H202     1.0000 0.49540  0.36250  0.53120  Biso   1.000  H
  H203     1.0000 0.25460  0.86250  0.71880  Biso   1.000  H
  H204     1.0000 0.25460  0.88750  0.03120  Biso   1.000  H
  H205     1.0000 0.75460  0.36250  0.71880  Biso   1.000  H
  H206     1.0000 0.99540  0.36250  0.03120  Biso   1.000  H
  H207     1.0000 0.75460  0.88750  0.53120  Biso   1.000  H
  H208     1.0000 0.99540  0.86250  0.53120  Biso   1.000  H
  H209     1.0000 0.50460  0.61250  0.78120  Biso   1.000  H
  H210     1.0000 0.50460  0.11250  0.28120  Biso   1.000  H
  H211     1.0000 0.50460  0.63750  0.46880  Biso   1.000  H
  H212     1.0000 0.00460  0.61250  0.28120  Biso   1.000  H
  H213     1.0000 0.74540  0.61250  0.46880  Biso   1.000  H
  H214     1.0000 0.00460  0.11250  0.78120  Biso   1.000  H
  H215     1.0000 0.74540  0.63750  0.78120  Biso   1.000  H
  H216     1.0000 0.24540  0.13750  0.78120  Biso   1.000  H
  H217     1.0000 0.24540  0.61250  0.96880  Biso   1.000  H
  H218     1.0000 0.50460  0.13750  0.96880  Biso   1.000  H
  H219     1.0000 0.24540  0.63750  0.28120  Biso   1.000  H
  H220     1.0000 0.24540  0.11250  0.46880  Biso   1.000  H
  H221     1.0000 0.74540  0.13750  0.28120  Biso   1.000  H
  H222     1.0000 0.00460  0.13750  0.46880  Biso   1.000  H
  H223     1.0000 0.74540  0.11250  0.96880  Biso   1.000  H
  H224     1.0000 0.00460  0.63750  0.96880  Biso   1.000  H
  C193     1.0000 0.42367  0.29865  0.15625  Biso   1.000  C
  C194     1.0000 0.42367  0.79865  0.65625  Biso   1.000  C
  C195     1.0000 0.42367  0.95135  0.09375  Biso   1.000  C
  C196     1.0000 0.92367  0.29865  0.65625  Biso   1.000  C
  C197     1.0000 0.82633  0.29865  0.09375  Biso   1.000  C
  C198     1.0000 0.92367  0.79865  0.15625  Biso   1.000  C
  C199     1.0000 0.82633  0.95135  0.15625  Biso   1.000  C
  C200     1.0000 0.32633  0.45135  0.15625  Biso   1.000  C
  C201     1.0000 0.32633  0.29865  0.59375  Biso   1.000  C
  C202     1.0000 0.42367  0.45135  0.59375  Biso   1.000  C
  C203     1.0000 0.32633  0.95135  0.65625  Biso   1.000  C
  C204     1.0000 0.32633  0.79865  0.09375  Biso   1.000  C
  C205     1.0000 0.82633  0.45135  0.65625  Biso   1.000  C
  C206     1.0000 0.92367  0.45135  0.09375  Biso   1.000  C
  C207     1.0000 0.82633  0.79865  0.59375  Biso   1.000  C
  C208     1.0000 0.92367  0.95135  0.59375  Biso   1.000  C
  C209     1.0000 0.57633  0.70135  0.84375  Biso   1.000  C
  C210     1.0000 0.57633  0.20135  0.34375  Biso   1.000  C
  C211     1.0000 0.57633  0.54865  0.40625  Biso   1.000  C
  C212     1.0000 0.07633  0.70135  0.34375  Biso   1.000  C
  C213     1.0000 0.67367  0.70135  0.40625  Biso   1.000  C
  C214     1.0000 0.07633  0.20135  0.84375  Biso   1.000  C
  C215     1.0000 0.67367  0.54865  0.84375  Biso   1.000  C
  C216     1.0000 0.17367  0.04865  0.84375  Biso   1.000  C
  C217     1.0000 0.17367  0.70135  0.90625  Biso   1.000  C
  C218     1.0000 0.57633  0.04865  0.90625  Biso   1.000  C
  C219     1.0000 0.17367  0.54865  0.34375  Biso   1.000  C
  C220     1.0000 0.17367  0.20135  0.40625  Biso   1.000  C
  C221     1.0000 0.67367  0.04865  0.34375  Biso   1.000  C
  C222     1.0000 0.07633  0.04865  0.40625  Biso   1.000  C
  C223     1.0000 0.67367  0.20135  0.90625  Biso   1.000  C
  C224     1.0000 0.07633  0.54865  0.90625  Biso   1.000  C
  H225     1.0000 0.41700  0.29100  0.12650  Biso   1.000  H
  H226     1.0000 0.41700  0.79100  0.62650  Biso   1.000  H
  H227     1.0000 0.41700  0.95900  0.12350  Biso   1.000  H
  H228     1.0000 0.91700  0.29100  0.62650  Biso   1.000  H
  H229     1.0000 0.83300  0.29100  0.12350  Biso   1.000  H
  H230     1.0000 0.91700  0.79100  0.12650  Biso   1.000  H
  H231     1.0000 0.83300  0.95900  0.12650  Biso   1.000  H
  H232     1.0000 0.33300  0.45900  0.12650  Biso   1.000  H
  H233     1.0000 0.33300  0.29100  0.62350  Biso   1.000  H
  H234     1.0000 0.41700  0.45900  0.62350  Biso   1.000  H
  H235     1.0000 0.33300  0.95900  0.62650  Biso   1.000  H
  H236     1.0000 0.33300  0.79100  0.12350  Biso   1.000  H
  H237     1.0000 0.83300  0.45900  0.62650  Biso   1.000  H
  H238     1.0000 0.91700  0.45900  0.12350  Biso   1.000  H
  H239     1.0000 0.83300  0.79100  0.62350  Biso   1.000  H
  H240     1.0000 0.91700  0.95900  0.62350  Biso   1.000  H
  H241     1.0000 0.58300  0.70900  0.87350  Biso   1.000  H
  H242     1.0000 0.58300  0.20900  0.37350  Biso   1.000  H
  H243     1.0000 0.58300  0.54100  0.37650  Biso   1.000  H
  H244     1.0000 0.08300  0.70900  0.37350  Biso   1.000  H
  H245     1.0000 0.66700  0.70900  0.37650  Biso   1.000  H
  H246     1.0000 0.08300  0.20900  0.87350  Biso   1.000  H
  H247     1.0000 0.66700  0.54100  0.87350  Biso   1.000  H
  H248     1.0000 0.16700  0.04100  0.87350  Biso   1.000  H
  H249     1.0000 0.16700  0.70900  0.87650  Biso   1.000  H
  H250     1.0000 0.58300  0.04100  0.87650  Biso   1.000  H
  H251     1.0000 0.16700  0.54100  0.37350  Biso   1.000  H
  H252     1.0000 0.16700  0.20900  0.37650  Biso   1.000  H
  H253     1.0000 0.66700  0.04100  0.37350  Biso   1.000  H
  H254     1.0000 0.08300  0.04100  0.37650  Biso   1.000  H
  H255     1.0000 0.66700  0.20900  0.87650  Biso   1.000  H
  H256     1.0000 0.08300  0.54100  0.87650  Biso   1.000  H
  C225     1.0000 0.44084  0.32112  0.24258  Biso   1.000  C
  C226     1.0000 0.44084  0.82112  0.74258  Biso   1.000  C
  C227     1.0000 0.44084  0.92888  0.00742  Biso   1.000  C
  C228     1.0000 0.94084  0.32112  0.74258  Biso   1.000  C
  C229     1.0000 0.80916  0.32112  0.00742  Biso   1.000  C
  C230     1.0000 0.94084  0.82112  0.24258  Biso   1.000  C
  C231     1.0000 0.80916  0.92888  0.24258  Biso   1.000  C
  C232     1.0000 0.30916  0.42888  0.24258  Biso   1.000  C
  C233     1.0000 0.30916  0.32112  0.50742  Biso   1.000  C
  C234     1.0000 0.44084  0.42888  0.50742  Biso   1.000  C
  C235     1.0000 0.30916  0.92888  0.74258  Biso   1.000  C
  C236     1.0000 0.30916  0.82112  0.00742  Biso   1.000  C
  C237     1.0000 0.80916  0.42888  0.74258  Biso   1.000  C
  C238     1.0000 0.94084  0.42888  0.00742  Biso   1.000  C
  C239     1.0000 0.80916  0.82112  0.50742  Biso   1.000  C
  C240     1.0000 0.94084  0.92888  0.50742  Biso   1.000  C
  C241     1.0000 0.55916  0.67888  0.75742  Biso   1.000  C
  C242     1.0000 0.55916  0.17888  0.25742  Biso   1.000  C
  C243     1.0000 0.55916  0.57112  0.49258  Biso   1.000  C
  C244     1.0000 0.05916  0.67888  0.25742  Biso   1.000  C
  C245     1.0000 0.69084  0.67888  0.49258  Biso   1.000  C
  C246     1.0000 0.05916  0.17888  0.75742  Biso   1.000  C
  C247     1.0000 0.69084  0.57112  0.75742  Biso   1.000  C
  C248     1.0000 0.19084  0.07112  0.75742  Biso   1.000  C
  C249     1.0000 0.19084  0.67888  0.99258  Biso   1.000  C
  C250     1.0000 0.55916  0.07112  0.99258  Biso   1.000  C
  C251     1.0000 0.19084  0.57112  0.25742  Biso   1.000  C
  C252     1.0000 0.19084  0.17888  0.49258  Biso   1.000  C
  C253     1.0000 0.69084  0.07112  0.25742  Biso   1.000  C
  C254     1.0000 0.05916  0.07112  0.49258  Biso   1.000  C
  C255     1.0000 0.69084  0.17888  0.99258  Biso   1.000  C
  C256     1.0000 0.05916  0.57112  0.99258  Biso   1.000  C
  H257     1.0000 0.44760  0.33020  0.27210  Biso   1.000  H
  H258     1.0000 0.44760  0.83020  0.77210  Biso   1.000  H
  H259     1.0000 0.44760  0.91980  0.97790  Biso   1.000  H
  H260     1.0000 0.94760  0.33020  0.77210  Biso   1.000  H
  H261     1.0000 0.80240  0.33020  0.97790  Biso   1.000  H
  H262     1.0000 0.94760  0.83020  0.27210  Biso   1.000  H
  H263     1.0000 0.80240  0.91980  0.27210  Biso   1.000  H
  H264     1.0000 0.30240  0.41980  0.27210  Biso   1.000  H
  H265     1.0000 0.30240  0.33020  0.47790  Biso   1.000  H
  H266     1.0000 0.44760  0.41980  0.47790  Biso   1.000  H
  H267     1.0000 0.30240  0.91980  0.77210  Biso   1.000  H
  H268     1.0000 0.30240  0.83020  0.97790  Biso   1.000  H
  H269     1.0000 0.80240  0.41980  0.77210  Biso   1.000  H
  H270     1.0000 0.94760  0.41980  0.97790  Biso   1.000  H
  H271     1.0000 0.80240  0.83020  0.47790  Biso   1.000  H
  H272     1.0000 0.94760  0.91980  0.47790  Biso   1.000  H
  H273     1.0000 0.55240  0.66980  0.72790  Biso   1.000  H
  H274     1.0000 0.55240  0.16980  0.22790  Biso   1.000  H
  H275     1.0000 0.55240  0.58020  0.52210  Biso   1.000  H
  H276     1.0000 0.05240  0.66980  0.22790  Biso   1.000  H
  H277     1.0000 0.69760  0.66980  0.52210  Biso   1.000  H
  H278     1.0000 0.05240  0.16980  0.72790  Biso   1.000  H
  H279     1.0000 0.69760  0.58020  0.72790  Biso   1.000  H
  H280     1.0000 0.19760  0.08020  0.72790  Biso   1.000  H
  H281     1.0000 0.19760  0.66980  0.02210  Biso   1.000  H
  H282     1.0000 0.55240  0.08020  0.02210  Biso   1.000  H
  H283     1.0000 0.19760  0.58020  0.22790  Biso   1.000  H
  H284     1.0000 0.19760  0.16980  0.52210  Biso   1.000  H
  H285     1.0000 0.69760  0.08020  0.22790  Biso   1.000  H
  H286     1.0000 0.05240  0.08020  0.52210  Biso   1.000  H
  H287     1.0000 0.69760  0.16980  0.02210  Biso   1.000  H
  H288     1.0000 0.05240  0.58020  0.02210  Biso   1.000  H
  C257     1.0000 0.39353  0.26227  0.18631  Biso   1.000  C
  C258     1.0000 0.39353  0.76227  0.68631  Biso   1.000  C
  C259     1.0000 0.39353  0.98773  0.06369  Biso   1.000  C
  C260     1.0000 0.89353  0.26227  0.68631  Biso   1.000  C
  C261     1.0000 0.85647  0.26227  0.06369  Biso   1.000  C
  C262     1.0000 0.89353  0.76227  0.18631  Biso   1.000  C
  C263     1.0000 0.85647  0.98773  0.18631  Biso   1.000  C
  C264     1.0000 0.35647  0.48773  0.18631  Biso   1.000  C
  C265     1.0000 0.35647  0.26227  0.56369  Biso   1.000  C
  C266     1.0000 0.39353  0.48773  0.56369  Biso   1.000  C
  C267     1.0000 0.35647  0.98773  0.68631  Biso   1.000  C
  C268     1.0000 0.35647  0.76227  0.06369  Biso   1.000  C
  C269     1.0000 0.85647  0.48773  0.68631  Biso   1.000  C
  C270     1.0000 0.89353  0.48773  0.06369  Biso   1.000  C
  C271     1.0000 0.85647  0.76227  0.56369  Biso   1.000  C
  C272     1.0000 0.89353  0.98773  0.56369  Biso   1.000  C
  C273     1.0000 0.60647  0.73773  0.81369  Biso   1.000  C
  C274     1.0000 0.60647  0.23773  0.31369  Biso   1.000  C
  C275     1.0000 0.60647  0.51227  0.43631  Biso   1.000  C
  C276     1.0000 0.10647  0.73773  0.31369  Biso   1.000  C
  C277     1.0000 0.64353  0.73773  0.43631  Biso   1.000  C
  C278     1.0000 0.10647  0.23773  0.81369  Biso   1.000  C
  C279     1.0000 0.64353  0.51227  0.81369  Biso   1.000  C
  C280     1.0000 0.14353  0.01227  0.81369  Biso   1.000  C
  C281     1.0000 0.14353  0.73773  0.93631  Biso   1.000  C
  C282     1.0000 0.60647  0.01227  0.93631  Biso   1.000  C
  C283     1.0000 0.14353  0.51227  0.31369  Biso   1.000  C
  C284     1.0000 0.14353  0.23773  0.43631  Biso   1.000  C
  C285     1.0000 0.64353  0.01227  0.31369  Biso   1.000  C
  C286     1.0000 0.10647  0.01227  0.43631  Biso   1.000  C
  C287     1.0000 0.64353  0.23773  0.93631  Biso   1.000  C
  C288     1.0000 0.10647  0.51227  0.93631  Biso   1.000  C
  H289     1.0000 0.36770  0.23060  0.17690  Biso   1.000  H
  H290     1.0000 0.36770  0.73060  0.67690  Biso   1.000  H
  H291     1.0000 0.36770  0.01940  0.07310  Biso   1.000  H
  H292     1.0000 0.86770  0.23060  0.67690  Biso   1.000  H
  H293     1.0000 0.88230  0.23060  0.07310  Biso   1.000  H
  H294     1.0000 0.86770  0.73060  0.17690  Biso   1.000  H
  H295     1.0000 0.88230  0.01940  0.17690  Biso   1.000  H
  H296     1.0000 0.38230  0.51940  0.17690  Biso   1.000  H
  H297     1.0000 0.38230  0.23060  0.57310  Biso   1.000  H
  H298     1.0000 0.36770  0.51940  0.57310  Biso   1.000  H
  H299     1.0000 0.38230  0.01940  0.67690  Biso   1.000  H
  H300     1.0000 0.38230  0.73060  0.07310  Biso   1.000  H
  H301     1.0000 0.88230  0.51940  0.67690  Biso   1.000  H
  H302     1.0000 0.86770  0.51940  0.07310  Biso   1.000  H
  H303     1.0000 0.88230  0.73060  0.57310  Biso   1.000  H
  H304     1.0000 0.86770  0.01940  0.57310  Biso   1.000  H
  H305     1.0000 0.63230  0.76940  0.82310  Biso   1.000  H
  H306     1.0000 0.63230  0.26940  0.32310  Biso   1.000  H
  H307     1.0000 0.63230  0.48060  0.42690  Biso   1.000  H
  H308     1.0000 0.13230  0.76940  0.32310  Biso   1.000  H
  H309     1.0000 0.61770  0.76940  0.42690  Biso   1.000  H
  H310     1.0000 0.13230  0.26940  0.82310  Biso   1.000  H
  H311     1.0000 0.61770  0.48060  0.82310  Biso   1.000  H
  H312     1.0000 0.11770  0.98060  0.82310  Biso   1.000  H
  H313     1.0000 0.11770  0.76940  0.92690  Biso   1.000  H
  H314     1.0000 0.63230  0.98060  0.92690  Biso   1.000  H
  H315     1.0000 0.11770  0.48060  0.32310  Biso   1.000  H
  H316     1.0000 0.11770  0.26940  0.42690  Biso   1.000  H
  H317     1.0000 0.61770  0.98060  0.32310  Biso   1.000  H
  H318     1.0000 0.13230  0.98060  0.42690  Biso   1.000  H
  H319     1.0000 0.61770  0.26940  0.92690  Biso   1.000  H
  H320     1.0000 0.13230  0.48060  0.92690  Biso   1.000  H
  C289     1.0000 0.40175  0.27295  0.23094  Biso   1.000  C
  C290     1.0000 0.40175  0.77295  0.73094  Biso   1.000  C
  C291     1.0000 0.40175  0.97705  0.01906  Biso   1.000  C
  C292     1.0000 0.90175  0.27295  0.73094  Biso   1.000  C
  C293     1.0000 0.84825  0.27295  0.01906  Biso   1.000  C
  C294     1.0000 0.90175  0.77295  0.23094  Biso   1.000  C
  C295     1.0000 0.84825  0.97705  0.23094  Biso   1.000  C
  C296     1.0000 0.34825  0.47705  0.23094  Biso   1.000  C
  C297     1.0000 0.34825  0.27295  0.51906  Biso   1.000  C
  C298     1.0000 0.40175  0.47705  0.51906  Biso   1.000  C
  C299     1.0000 0.34825  0.97705  0.73094  Biso   1.000  C
  C300     1.0000 0.34825  0.77295  0.01906  Biso   1.000  C
  C301     1.0000 0.84825  0.47705  0.73094  Biso   1.000  C
  C302     1.0000 0.90175  0.47705  0.01906  Biso   1.000  C
  C303     1.0000 0.84825  0.77295  0.51906  Biso   1.000  C
  C304     1.0000 0.90175  0.97705  0.51906  Biso   1.000  C
  C305     1.0000 0.59825  0.72705  0.76906  Biso   1.000  C
  C306     1.0000 0.59825  0.22705  0.26906  Biso   1.000  C
  C307     1.0000 0.59825  0.52295  0.48094  Biso   1.000  C
  C308     1.0000 0.09825  0.72705  0.26906  Biso   1.000  C
  C309     1.0000 0.65175  0.72705  0.48094  Biso   1.000  C
  C310     1.0000 0.09825  0.22705  0.76906  Biso   1.000  C
  C311     1.0000 0.65175  0.52295  0.76906  Biso   1.000  C
  C312     1.0000 0.15175  0.02295  0.76906  Biso   1.000  C
  C313     1.0000 0.15175  0.72705  0.98094  Biso   1.000  C
  C314     1.0000 0.59825  0.02295  0.98094  Biso   1.000  C
  C315     1.0000 0.15175  0.52295  0.26906  Biso   1.000  C
  C316     1.0000 0.15175  0.22705  0.48094  Biso   1.000  C
  C317     1.0000 0.65175  0.02295  0.26906  Biso   1.000  C
  C318     1.0000 0.09825  0.02295  0.48094  Biso   1.000  C
  C319     1.0000 0.65175  0.22705  0.98094  Biso   1.000  C
  C320     1.0000 0.09825  0.52295  0.98094  Biso   1.000  C
  C321     1.0000 0.37050  0.23469  0.26458  Biso   1.000  C
  C322     1.0000 0.37050  0.73469  0.76458  Biso   1.000  C
  C323     1.0000 0.37050  0.01531  0.98542  Biso   1.000  C
  C324     1.0000 0.87050  0.23469  0.76458  Biso   1.000  C
  C325     1.0000 0.87950  0.23469  0.98542  Biso   1.000  C
  C326     1.0000 0.87050  0.73469  0.26458  Biso   1.000  C
  C327     1.0000 0.87950  0.01531  0.26458  Biso   1.000  C
  C328     1.0000 0.37950  0.51531  0.26458  Biso   1.000  C
  C329     1.0000 0.37950  0.23469  0.48542  Biso   1.000  C
  C330     1.0000 0.37050  0.51531  0.48542  Biso   1.000  C
  C331     1.0000 0.37950  0.01531  0.76458  Biso   1.000  C
  C332     1.0000 0.37950  0.73469  0.98542  Biso   1.000  C
  C333     1.0000 0.87950  0.51531  0.76458  Biso   1.000  C
  C334     1.0000 0.87050  0.51531  0.98542  Biso   1.000  C
  C335     1.0000 0.87950  0.73469  0.48542  Biso   1.000  C
  C336     1.0000 0.87050  0.01531  0.48542  Biso   1.000  C
  C337     1.0000 0.62950  0.76531  0.73542  Biso   1.000  C
  C338     1.0000 0.62950  0.26531  0.23542  Biso   1.000  C
  C339     1.0000 0.62950  0.48469  0.51458  Biso   1.000  C
  C340     1.0000 0.12950  0.76531  0.23542  Biso   1.000  C
  C341     1.0000 0.62050  0.76531  0.51458  Biso   1.000  C
  C342     1.0000 0.12950  0.26531  0.73542  Biso   1.000  C
  C343     1.0000 0.62050  0.48469  0.73542  Biso   1.000  C
  C344     1.0000 0.12050  0.98469  0.73542  Biso   1.000  C
  C345     1.0000 0.12050  0.76531  0.01458  Biso   1.000  C
  C346     1.0000 0.62950  0.98469  0.01458  Biso   1.000  C
  C347     1.0000 0.12050  0.48469  0.23542  Biso   1.000  C
  C348     1.0000 0.12050  0.26531  0.51458  Biso   1.000  C
  C349     1.0000 0.62050  0.98469  0.23542  Biso   1.000  C
  C350     1.0000 0.12950  0.98469  0.51458  Biso   1.000  C
  C351     1.0000 0.62050  0.26531  0.01458  Biso   1.000  C
  C352     1.0000 0.12950  0.48469  0.01458  Biso   1.000  C
  C353     1.0000 0.34628  0.25540  0.30453  Biso   1.000  C
  C354     1.0000 0.34628  0.75540  0.80453  Biso   1.000  C
  C355     1.0000 0.34628  0.99460  0.94547  Biso   1.000  C
  C356     1.0000 0.84628  0.25540  0.80453  Biso   1.000  C
  C357     1.0000 0.90372  0.25540  0.94547  Biso   1.000  C
  C358     1.0000 0.84628  0.75540  0.30453  Biso   1.000  C
  C359     1.0000 0.90372  0.99460  0.30453  Biso   1.000  C
  C360     1.0000 0.40372  0.49460  0.30453  Biso   1.000  C
  C361     1.0000 0.40372  0.25540  0.44547  Biso   1.000  C
  C362     1.0000 0.34628  0.49460  0.44547  Biso   1.000  C
  C363     1.0000 0.40372  0.99460  0.80453  Biso   1.000  C
  C364     1.0000 0.40372  0.75540  0.94547  Biso   1.000  C
  C365     1.0000 0.90372  0.49460  0.80453  Biso   1.000  C
  C366     1.0000 0.84628  0.49460  0.94547  Biso   1.000  C
  C367     1.0000 0.90372  0.75540  0.44547  Biso   1.000  C
  C368     1.0000 0.84628  0.99460  0.44547  Biso   1.000  C
  C369     1.0000 0.65372  0.74460  0.69547  Biso   1.000  C
  C370     1.0000 0.65372  0.24460  0.19547  Biso   1.000  C
  C371     1.0000 0.65372  0.50540  0.55453  Biso   1.000  C
  C372     1.0000 0.15372  0.74460  0.19547  Biso   1.000  C
  C373     1.0000 0.59628  0.74460  0.55453  Biso   1.000  C
  C374     1.0000 0.15372  0.24460  0.69547  Biso   1.000  C
  C375     1.0000 0.59628  0.50540  0.69547  Biso   1.000  C
  C376     1.0000 0.09628  0.00540  0.69547  Biso   1.000  C
  C377     1.0000 0.09628  0.74460  0.05453  Biso   1.000  C
  C378     1.0000 0.65372  0.00540  0.05453  Biso   1.000  C
  C379     1.0000 0.09628  0.50540  0.19547  Biso   1.000  C
  C380     1.0000 0.09628  0.24460  0.55453  Biso   1.000  C
  C381     1.0000 0.59628  0.00540  0.19547  Biso   1.000  C
  C382     1.0000 0.15372  0.00540  0.55453  Biso   1.000  C
  C383     1.0000 0.59628  0.24460  0.05453  Biso   1.000  C
  C384     1.0000 0.15372  0.50540  0.05453  Biso   1.000  C
  H321     1.0000 0.34930  0.29430  0.31080  Biso   1.000  H
  H322     1.0000 0.34930  0.79430  0.81080  Biso   1.000  H
  H323     1.0000 0.34930  0.95570  0.93920  Biso   1.000  H
  H324     1.0000 0.84930  0.29430  0.81080  Biso   1.000  H
  H325     1.0000 0.90070  0.29430  0.93920  Biso   1.000  H
  H326     1.0000 0.84930  0.79430  0.31080  Biso   1.000  H
  H327     1.0000 0.90070  0.95570  0.31080  Biso   1.000  H
  H328     1.0000 0.40070  0.45570  0.31080  Biso   1.000  H
  H329     1.0000 0.40070  0.29430  0.43920  Biso   1.000  H
  H330     1.0000 0.34930  0.45570  0.43920  Biso   1.000  H
  H331     1.0000 0.40070  0.95570  0.81080  Biso   1.000  H
  H332     1.0000 0.40070  0.79430  0.93920  Biso   1.000  H
  H333     1.0000 0.90070  0.45570  0.81080  Biso   1.000  H
  H334     1.0000 0.84930  0.45570  0.93920  Biso   1.000  H
  H335     1.0000 0.90070  0.79430  0.43920  Biso   1.000  H
  H336     1.0000 0.84930  0.95570  0.43920  Biso   1.000  H
  H337     1.0000 0.65070  0.70570  0.68920  Biso   1.000  H
  H338     1.0000 0.65070  0.20570  0.18920  Biso   1.000  H
  H339     1.0000 0.65070  0.54430  0.56080  Biso   1.000  H
  H340     1.0000 0.15070  0.70570  0.18920  Biso   1.000  H
  H341     1.0000 0.59930  0.70570  0.56080  Biso   1.000  H
  H342     1.0000 0.15070  0.20570  0.68920  Biso   1.000  H
  H343     1.0000 0.59930  0.54430  0.68920  Biso   1.000  H
  H344     1.0000 0.09930  0.04430  0.68920  Biso   1.000  H
  H345     1.0000 0.09930  0.70570  0.06080  Biso   1.000  H
  H346     1.0000 0.65070  0.04430  0.06080  Biso   1.000  H
  H347     1.0000 0.09930  0.54430  0.18920  Biso   1.000  H
  H348     1.0000 0.09930  0.20570  0.56080  Biso   1.000  H
  H349     1.0000 0.59930  0.04430  0.18920  Biso   1.000  H
  H350     1.0000 0.15070  0.04430  0.56080  Biso   1.000  H
  H351     1.0000 0.59930  0.20570  0.06080  Biso   1.000  H
  H352     1.0000 0.15070  0.54430  0.06080  Biso   1.000  H
  C385     1.0000 0.36441  0.17610  0.25736  Biso   1.000  C
  C386     1.0000 0.36441  0.67610  0.75736  Biso   1.000  C
  C387     1.0000 0.36441  0.07390  0.99264  Biso   1.000  C
  C388     1.0000 0.86441  0.17610  0.75736  Biso   1.000  C
  C389     1.0000 0.88559  0.17610  0.99264  Biso   1.000  C
  C390     1.0000 0.86441  0.67610  0.25736  Biso   1.000  C
  C391     1.0000 0.88559  0.07390  0.25736  Biso   1.000  C
  C392     1.0000 0.38559  0.57390  0.25736  Biso   1.000  C
  C393     1.0000 0.38559  0.17610  0.49264  Biso   1.000  C
  C394     1.0000 0.36441  0.57390  0.49264  Biso   1.000  C
  C395     1.0000 0.38559  0.07390  0.75736  Biso   1.000  C
  C396     1.0000 0.38559  0.67610  0.99264  Biso   1.000  C
  C397     1.0000 0.88559  0.57390  0.75736  Biso   1.000  C
  C398     1.0000 0.86441  0.57390  0.99264  Biso   1.000  C
  C399     1.0000 0.88559  0.67610  0.49264  Biso   1.000  C
  C400     1.0000 0.86441  0.07390  0.49264  Biso   1.000  C
  C401     1.0000 0.63559  0.82390  0.74264  Biso   1.000  C
  C402     1.0000 0.63559  0.32390  0.24264  Biso   1.000  C
  C403     1.0000 0.63559  0.42610  0.50736  Biso   1.000  C
  C404     1.0000 0.13559  0.82390  0.24264  Biso   1.000  C
  C405     1.0000 0.61441  0.82390  0.50736  Biso   1.000  C
  C406     1.0000 0.13559  0.32390  0.74264  Biso   1.000  C
  C407     1.0000 0.61441  0.42610  0.74264  Biso   1.000  C
  C408     1.0000 0.11441  0.92610  0.74264  Biso   1.000  C
  C409     1.0000 0.11441  0.82390  0.00736  Biso   1.000  C
  C410     1.0000 0.63559  0.92610  0.00736  Biso   1.000  C
  C411     1.0000 0.11441  0.42610  0.24264  Biso   1.000  C
  C412     1.0000 0.11441  0.32390  0.50736  Biso   1.000  C
  C413     1.0000 0.61441  0.92610  0.24264  Biso   1.000  C
  C414     1.0000 0.13559  0.92610  0.50736  Biso   1.000  C
  C415     1.0000 0.61441  0.32390  0.00736  Biso   1.000  C
  C416     1.0000 0.13559  0.42610  0.00736  Biso   1.000  C
  H353     1.0000 0.37940  0.16020  0.23090  Biso   1.000  H
  H354     1.0000 0.37940  0.66020  0.73090  Biso   1.000  H
  H355     1.0000 0.37940  0.08980  0.01910  Biso   1.000  H
  H356     1.0000 0.87940  0.16020  0.73090  Biso   1.000  H
  H357     1.0000 0.87060  0.16020  0.01910  Biso   1.000  H
  H358     1.0000 0.87940  0.66020  0.23090  Biso   1.000  H
  H359     1.0000 0.87060  0.08980  0.23090  Biso   1.000  H
  H360     1.0000 0.37060  0.58980  0.23090  Biso   1.000  H
  H361     1.0000 0.37060  0.16020  0.51910  Biso   1.000  H
  H362     1.0000 0.37940  0.58980  0.51910  Biso   1.000  H
  H363     1.0000 0.37060  0.08980  0.73090  Biso   1.000  H
  H364     1.0000 0.37060  0.66020  0.01910  Biso   1.000  H
  H365     1.0000 0.87060  0.58980  0.73090  Biso   1.000  H
  H366     1.0000 0.87940  0.58980  0.01910  Biso   1.000  H
  H367     1.0000 0.87060  0.66020  0.51910  Biso   1.000  H
  H368     1.0000 0.87940  0.08980  0.51910  Biso   1.000  H
  H369     1.0000 0.62060  0.83980  0.76910  Biso   1.000  H
  H370     1.0000 0.62060  0.33980  0.26910  Biso   1.000  H
  H371     1.0000 0.62060  0.41020  0.48090  Biso   1.000  H
  H372     1.0000 0.12060  0.83980  0.26910  Biso   1.000  H
  H373     1.0000 0.62940  0.83980  0.48090  Biso   1.000  H
  H374     1.0000 0.12060  0.33980  0.76910  Biso   1.000  H
  H375     1.0000 0.62940  0.41020  0.76910  Biso   1.000  H
  H376     1.0000 0.12940  0.91020  0.76910  Biso   1.000  H
  H377     1.0000 0.12940  0.83980  0.98090  Biso   1.000  H
  H378     1.0000 0.62060  0.91020  0.98090  Biso   1.000  H
  H379     1.0000 0.12940  0.41020  0.26910  Biso   1.000  H
  H380     1.0000 0.12940  0.33980  0.48090  Biso   1.000  H
  H381     1.0000 0.62940  0.91020  0.26910  Biso   1.000  H
  H382     1.0000 0.12060  0.91020  0.48090  Biso   1.000  H
  H383     1.0000 0.62940  0.33980  0.98090  Biso   1.000  H
  H384     1.0000 0.12060  0.41020  0.98090  Biso   1.000  H
  C417     1.0000 0.33609  0.14174  0.28974  Biso   1.000  C
  C418     1.0000 0.33609  0.64174  0.78974  Biso   1.000  C
  C419     1.0000 0.33609  0.10826  0.96026  Biso   1.000  C
  C420     1.0000 0.83609  0.14174  0.78974  Biso   1.000  C
  C421     1.0000 0.91391  0.14174  0.96026  Biso   1.000  C
  C422     1.0000 0.83609  0.64174  0.28974  Biso   1.000  C
  C423     1.0000 0.91391  0.10826  0.28974  Biso   1.000  C
  C424     1.0000 0.41391  0.60826  0.28974  Biso   1.000  C
  C425     1.0000 0.41391  0.14174  0.46026  Biso   1.000  C
  C426     1.0000 0.33609  0.60826  0.46026  Biso   1.000  C
  C427     1.0000 0.41391  0.10826  0.78974  Biso   1.000  C
  C428     1.0000 0.41391  0.64174  0.96026  Biso   1.000  C
  C429     1.0000 0.91391  0.60826  0.78974  Biso   1.000  C
  C430     1.0000 0.83609  0.60826  0.96026  Biso   1.000  C
  C431     1.0000 0.91391  0.64174  0.46026  Biso   1.000  C
  C432     1.0000 0.83609  0.10826  0.46026  Biso   1.000  C
  C433     1.0000 0.66391  0.85826  0.71026  Biso   1.000  C
  C434     1.0000 0.66391  0.35826  0.21026  Biso   1.000  C
  C435     1.0000 0.66391  0.39174  0.53974  Biso   1.000  C
  C436     1.0000 0.16391  0.85826  0.21026  Biso   1.000  C
  C437     1.0000 0.58609  0.85826  0.53974  Biso   1.000  C
  C438     1.0000 0.16391  0.35826  0.71026  Biso   1.000  C
  C439     1.0000 0.58609  0.39174  0.71026  Biso   1.000  C
  C440     1.0000 0.08609  0.89174  0.71026  Biso   1.000  C
  C441     1.0000 0.08609  0.85826  0.03974  Biso   1.000  C
  C442     1.0000 0.66391  0.89174  0.03974  Biso   1.000  C
  C443     1.0000 0.08609  0.39174  0.21026  Biso   1.000  C
  C444     1.0000 0.08609  0.35826  0.53974  Biso   1.000  C
  C445     1.0000 0.58609  0.89174  0.21026  Biso   1.000  C
  C446     1.0000 0.16391  0.89174  0.53974  Biso   1.000  C
  C447     1.0000 0.58609  0.35826  0.03974  Biso   1.000  C
  C448     1.0000 0.16391  0.39174  0.03974  Biso   1.000  C
  H385     1.0000 0.33310  0.10260  0.28450  Biso   1.000  H
  H386     1.0000 0.33310  0.60260  0.78450  Biso   1.000  H
  H387     1.0000 0.33310  0.14740  0.96550  Biso   1.000  H
  H388     1.0000 0.83310  0.10260  0.78450  Biso   1.000  H
  H389     1.0000 0.91690  0.10260  0.96550  Biso   1.000  H
  H390     1.0000 0.83310  0.60260  0.28450  Biso   1.000  H
  H391     1.0000 0.91690  0.14740  0.28450  Biso   1.000  H
  H392     1.0000 0.41690  0.64740  0.28450  Biso   1.000  H
  H393     1.0000 0.41690  0.10260  0.46550  Biso   1.000  H
  H394     1.0000 0.33310  0.64740  0.46550  Biso   1.000  H
  H395     1.0000 0.41690  0.14740  0.78450  Biso   1.000  H
  H396     1.0000 0.41690  0.60260  0.96550  Biso   1.000  H
  H397     1.0000 0.91690  0.64740  0.78450  Biso   1.000  H
  H398     1.0000 0.83310  0.64740  0.96550  Biso   1.000  H
  H399     1.0000 0.91690  0.60260  0.46550  Biso   1.000  H
  H400     1.0000 0.83310  0.14740  0.46550  Biso   1.000  H
  H401     1.0000 0.66690  0.89740  0.71550  Biso   1.000  H
  H402     1.0000 0.66690  0.39740  0.21550  Biso   1.000  H
  H403     1.0000 0.66690  0.35260  0.53450  Biso   1.000  H
  H404     1.0000 0.16690  0.89740  0.21550  Biso   1.000  H
  H405     1.0000 0.58310  0.89740  0.53450  Biso   1.000  H
  H406     1.0000 0.16690  0.39740  0.71550  Biso   1.000  H
  H407     1.0000 0.58310  0.35260  0.71550  Biso   1.000  H
  H408     1.0000 0.08310  0.85260  0.71550  Biso   1.000  H
  H409     1.0000 0.08310  0.89740  0.03450  Biso   1.000  H
  H410     1.0000 0.66690  0.85260  0.03450  Biso   1.000  H
  H411     1.0000 0.08310  0.35260  0.21550  Biso   1.000  H
  H412     1.0000 0.08310  0.39740  0.53450  Biso   1.000  H
  H413     1.0000 0.58310  0.85260  0.21550  Biso   1.000  H
  H414     1.0000 0.16690  0.85260  0.53450  Biso   1.000  H
  H415     1.0000 0.58310  0.39740  0.03450  Biso   1.000  H
  H416     1.0000 0.16690  0.35260  0.03450  Biso   1.000  H
  C449     1.0000 0.31778  0.21821  0.33490  Biso   1.000  C
  C450     1.0000 0.31778  0.71821  0.83490  Biso   1.000  C
  C451     1.0000 0.31778  0.03179  0.91510  Biso   1.000  C
  C452     1.0000 0.81778  0.21821  0.83490  Biso   1.000  C
  C453     1.0000 0.93222  0.21821  0.91510  Biso   1.000  C
  C454     1.0000 0.81778  0.71821  0.33490  Biso   1.000  C
  C455     1.0000 0.93222  0.03179  0.33490  Biso   1.000  C
  C456     1.0000 0.43222  0.53179  0.33490  Biso   1.000  C
  C457     1.0000 0.43222  0.21821  0.41510  Biso   1.000  C
  C458     1.0000 0.31778  0.53179  0.41510  Biso   1.000  C
  C459     1.0000 0.43222  0.03179  0.83490  Biso   1.000  C
  C460     1.0000 0.43222  0.71821  0.91510  Biso   1.000  C
  C461     1.0000 0.93222  0.53179  0.83490  Biso   1.000  C
  C462     1.0000 0.81778  0.53179  0.91510  Biso   1.000  C
  C463     1.0000 0.93222  0.71821  0.41510  Biso   1.000  C
  C464     1.0000 0.81778  0.03179  0.41510  Biso   1.000  C
  C465     1.0000 0.68222  0.78179  0.66510  Biso   1.000  C
  C466     1.0000 0.68222  0.28179  0.16510  Biso   1.000  C
  C467     1.0000 0.68222  0.46821  0.58490  Biso   1.000  C
  C468     1.0000 0.18222  0.78179  0.16510  Biso   1.000  C
  C469     1.0000 0.56778  0.78179  0.58490  Biso   1.000  C
  C470     1.0000 0.18222  0.28179  0.66510  Biso   1.000  C
  C471     1.0000 0.56778  0.46821  0.66510  Biso   1.000  C
  C472     1.0000 0.06778  0.96821  0.66510  Biso   1.000  C
  C473     1.0000 0.06778  0.78179  0.08490  Biso   1.000  C
  C474     1.0000 0.68222  0.96821  0.08490  Biso   1.000  C
  C475     1.0000 0.06778  0.46821  0.16510  Biso   1.000  C
  C476     1.0000 0.06778  0.28179  0.58490  Biso   1.000  C
  C477     1.0000 0.56778  0.96821  0.16510  Biso   1.000  C
  C478     1.0000 0.18222  0.96821  0.58490  Biso   1.000  C
  C479     1.0000 0.56778  0.28179  0.08490  Biso   1.000  C
  C480     1.0000 0.18222  0.46821  0.08490  Biso   1.000  C
  H417     1.0000 0.30110  0.23310  0.36130  Biso   1.000  H
  H418     1.0000 0.30110  0.73310  0.86130  Biso   1.000  H
  H419     1.0000 0.30110  0.01690  0.88870  Biso   1.000  H
  H420     1.0000 0.80110  0.23310  0.86130  Biso   1.000  H
  H421     1.0000 0.94890  0.23310  0.88870  Biso   1.000  H
  H422     1.0000 0.80110  0.73310  0.36130  Biso   1.000  H
  H423     1.0000 0.94890  0.01690  0.36130  Biso   1.000  H
  H424     1.0000 0.44890  0.51690  0.36130  Biso   1.000  H
  H425     1.0000 0.44890  0.23310  0.38870  Biso   1.000  H
  H426     1.0000 0.30110  0.51690  0.38870  Biso   1.000  H
  H427     1.0000 0.44890  0.01690  0.86130  Biso   1.000  H
  H428     1.0000 0.44890  0.73310  0.88870  Biso   1.000  H
  H429     1.0000 0.94890  0.51690  0.86130  Biso   1.000  H
  H430     1.0000 0.80110  0.51690  0.88870  Biso   1.000  H
  H431     1.0000 0.94890  0.73310  0.38870  Biso   1.000  H
  H432     1.0000 0.80110  0.01690  0.38870  Biso   1.000  H
  H433     1.0000 0.69890  0.76690  0.63870  Biso   1.000  H
  H434     1.0000 0.69890  0.26690  0.13870  Biso   1.000  H
  H435     1.0000 0.69890  0.48310  0.61130  Biso   1.000  H
  H436     1.0000 0.19890  0.76690  0.13870  Biso   1.000  H
  H437     1.0000 0.55110  0.76690  0.61130  Biso   1.000  H
  H438     1.0000 0.19890  0.26690  0.63870  Biso   1.000  H
  H439     1.0000 0.55110  0.48310  0.63870  Biso   1.000  H
  H440     1.0000 0.05110  0.98310  0.63870  Biso   1.000  H
  H441     1.0000 0.05110  0.76690  0.11130  Biso   1.000  H
  H442     1.0000 0.69890  0.98310  0.11130  Biso   1.000  H
  H443     1.0000 0.05110  0.48310  0.13870  Biso   1.000  H
  H444     1.0000 0.05110  0.26690  0.61130  Biso   1.000  H
  H445     1.0000 0.55110  0.98310  0.13870  Biso   1.000  H
  H446     1.0000 0.19890  0.98310  0.61130  Biso   1.000  H
  H447     1.0000 0.55110  0.26690  0.11130  Biso   1.000  H
  H448     1.0000 0.19890  0.48310  0.11130  Biso   1.000  H
