data_image0
_cell_length_a       18.777
_cell_length_b       23.3593
_cell_length_c       30.4231
_cell_angle_alpha    90
_cell_angle_beta     90
_cell_angle_gamma    90

_symmetry_space_group_name_H-M    "P 1"
_symmetry_int_tables_number       1

loop_
  _symmetry_equiv_pos_as_xyz
  'x, y, z'

loop_
  _atom_site_label
  _atom_site_occupancy
  _atom_site_fract_x
  _atom_site_fract_y
  _atom_site_fract_z
  _atom_site_thermal_displace_type
  _atom_site_B_iso_or_equiv
  _atom_site_type_symbol
  Cu1      1.0000 0.23583  0.36023  0.12145  Biso   1.000  Cu
  Cu2      1.0000 0.23583  0.86023  0.62145  Biso   1.000  Cu
  Cu3      1.0000 0.23583  0.88977  0.12855  Biso   1.000  Cu
  Cu4      1.0000 0.73583  0.36023  0.62145  Biso   1.000  Cu
  Cu5      1.0000 0.01417  0.36023  0.12855  Biso   1.000  Cu
  Cu6      1.0000 0.73583  0.86023  0.12145  Biso   1.000  Cu
  Cu7      1.0000 0.01417  0.88977  0.12145  Biso   1.000  Cu
  Cu8      1.0000 0.48583  0.61023  0.87855  Biso   1.000  Cu
  Cu9      1.0000 0.48583  0.63977  0.37145  Biso   1.000  Cu
  Cu10     1.0000 0.76417  0.61023  0.37145  Biso   1.000  Cu
  Cu11     1.0000 0.48583  0.61023  0.37855  Biso   1.000  Cu
  Cu12     1.0000 0.48583  0.13977  0.37145  Biso   1.000  Cu
  Cu13     1.0000 0.26417  0.61023  0.37145  Biso   1.000  Cu
  Cu14     1.0000 0.76417  0.63977  0.87855  Biso   1.000  Cu
  Cu15     1.0000 0.76417  0.13977  0.37855  Biso   1.000  Cu
  Cu16     1.0000 0.26417  0.63977  0.37855  Biso   1.000  Cu
  Cu17     1.0000 0.26417  0.13977  0.87855  Biso   1.000  Cu
  Cu18     1.0000 0.01417  0.88977  0.62145  Biso   1.000  Cu
  Cu19     1.0000 0.01417  0.86023  0.12855  Biso   1.000  Cu
  Cu20     1.0000 0.73583  0.88977  0.12855  Biso   1.000  Cu
  N1       1.0000 0.28780  0.40542  0.16730  Biso   1.000  N
  N2       1.0000 0.28780  0.90542  0.66730  Biso   1.000  N
  N3       1.0000 0.28780  0.84458  0.08270  Biso   1.000  N
  N4       1.0000 0.78780  0.40542  0.66730  Biso   1.000  N
  N5       1.0000 0.96220  0.40542  0.08270  Biso   1.000  N
  N6       1.0000 0.78780  0.90542  0.16730  Biso   1.000  N
  N7       1.0000 0.96220  0.84458  0.16730  Biso   1.000  N
  N8       1.0000 0.53780  0.65542  0.83270  Biso   1.000  N
  N9       1.0000 0.53780  0.59458  0.41730  Biso   1.000  N
  N10      1.0000 0.71220  0.65542  0.41730  Biso   1.000  N
  N11      1.0000 0.53780  0.65542  0.33270  Biso   1.000  N
  N12      1.0000 0.53780  0.09458  0.41730  Biso   1.000  N
  N13      1.0000 0.21220  0.65542  0.41730  Biso   1.000  N
  N14      1.0000 0.71220  0.59458  0.83270  Biso   1.000  N
  N15      1.0000 0.71220  0.09458  0.33270  Biso   1.000  N
  N16      1.0000 0.21220  0.59458  0.33270  Biso   1.000  N
  N17      1.0000 0.21220  0.09458  0.83270  Biso   1.000  N
  N18      1.0000 0.96220  0.84458  0.66730  Biso   1.000  N
  N19      1.0000 0.96220  0.90542  0.08270  Biso   1.000  N
  N20      1.0000 0.78780  0.84458  0.08270  Biso   1.000  N
  N21      1.0000 0.43710  0.58827  0.32842  Biso   1.000  N
  N22      1.0000 0.43710  0.08827  0.82842  Biso   1.000  N
  N23      1.0000 0.43710  0.66173  0.92158  Biso   1.000  N
  N24      1.0000 0.93710  0.58827  0.82842  Biso   1.000  N
  N25      1.0000 0.81290  0.58827  0.92158  Biso   1.000  N
  N26      1.0000 0.93710  0.08827  0.32842  Biso   1.000  N
  N27      1.0000 0.81290  0.66173  0.32842  Biso   1.000  N
  N28      1.0000 0.68710  0.83827  0.67158  Biso   1.000  N
  N29      1.0000 0.68710  0.41173  0.57842  Biso   1.000  N
  N30      1.0000 0.56290  0.83827  0.57842  Biso   1.000  N
  N31      1.0000 0.68710  0.83827  0.17158  Biso   1.000  N
  N32      1.0000 0.68710  0.91173  0.57842  Biso   1.000  N
  N33      1.0000 0.06290  0.83827  0.57842  Biso   1.000  N
  N34      1.0000 0.56290  0.41173  0.67158  Biso   1.000  N
  N35      1.0000 0.56290  0.91173  0.17158  Biso   1.000  N
  N36      1.0000 0.06290  0.41173  0.17158  Biso   1.000  N
  N37      1.0000 0.06290  0.91173  0.67158  Biso   1.000  N
  N38      1.0000 0.81290  0.66173  0.82842  Biso   1.000  N
  N39      1.0000 0.81290  0.08827  0.92158  Biso   1.000  N
  N40      1.0000 0.93710  0.66173  0.92158  Biso   1.000  N
  N41      1.0000 0.22920  0.27642  0.12170  Biso   1.000  N
  N42      1.0000 0.22920  0.77642  0.62170  Biso   1.000  N
  N43      1.0000 0.22920  0.97358  0.12830  Biso   1.000  N
  N44      1.0000 0.72920  0.27642  0.62170  Biso   1.000  N
  N45      1.0000 0.02080  0.27642  0.12830  Biso   1.000  N
  N46      1.0000 0.72920  0.77642  0.12170  Biso   1.000  N
  N47      1.0000 0.02080  0.97358  0.12170  Biso   1.000  N
  N48      1.0000 0.47920  0.52642  0.87830  Biso   1.000  N
  N49      1.0000 0.47920  0.72358  0.37170  Biso   1.000  N
  N50      1.0000 0.77080  0.52642  0.37170  Biso   1.000  N
  N51      1.0000 0.47920  0.52642  0.37830  Biso   1.000  N
  N52      1.0000 0.47920  0.22358  0.37170  Biso   1.000  N
  N53      1.0000 0.27080  0.52642  0.37170  Biso   1.000  N
  N54      1.0000 0.77080  0.72358  0.87830  Biso   1.000  N
  N55      1.0000 0.77080  0.22358  0.37830  Biso   1.000  N
  N56      1.0000 0.27080  0.72358  0.37830  Biso   1.000  N
  N57      1.0000 0.27080  0.22358  0.87830  Biso   1.000  N
  N58      1.0000 0.02080  0.97358  0.62170  Biso   1.000  N
  N59      1.0000 0.02080  0.77642  0.12830  Biso   1.000  N
  N60      1.0000 0.72920  0.97358  0.12830  Biso   1.000  N
  C1       1.0000 0.32660  0.45130  0.15647  Biso   1.000  C
  C2       1.0000 0.32660  0.95130  0.65647  Biso   1.000  C
  C3       1.0000 0.32660  0.79870  0.09353  Biso   1.000  C
  C4       1.0000 0.82660  0.45130  0.65647  Biso   1.000  C
  C5       1.0000 0.92340  0.45130  0.09353  Biso   1.000  C
  C6       1.0000 0.82660  0.95130  0.15647  Biso   1.000  C
  C7       1.0000 0.92340  0.79870  0.15647  Biso   1.000  C
  C8       1.0000 0.57660  0.70130  0.84353  Biso   1.000  C
  C9       1.0000 0.57660  0.54870  0.40647  Biso   1.000  C
  C10      1.0000 0.67340  0.70130  0.40647  Biso   1.000  C
  C11      1.0000 0.57660  0.70130  0.34353  Biso   1.000  C
  C12      1.0000 0.57660  0.04870  0.40647  Biso   1.000  C
  C13      1.0000 0.17340  0.70130  0.40647  Biso   1.000  C
  C14      1.0000 0.67340  0.54870  0.84353  Biso   1.000  C
  C15      1.0000 0.67340  0.04870  0.34353  Biso   1.000  C
  C16      1.0000 0.17340  0.54870  0.34353  Biso   1.000  C
  C17      1.0000 0.17340  0.04870  0.84353  Biso   1.000  C
  C18      1.0000 0.92340  0.79870  0.65647  Biso   1.000  C
  C19      1.0000 0.92340  0.95130  0.09353  Biso   1.000  C
  C20      1.0000 0.82660  0.79870  0.09353  Biso   1.000  C
  H1       1.0000 0.33360  0.45900  0.12680  Biso   1.000  H
  H2       1.0000 0.33360  0.95900  0.62680  Biso   1.000  H
  H3       1.0000 0.33360  0.79100  0.12320  Biso   1.000  H
  H4       1.0000 0.83360  0.45900  0.62680  Biso   1.000  H
  H5       1.0000 0.91640  0.45900  0.12320  Biso   1.000  H
  H6       1.0000 0.83360  0.95900  0.12680  Biso   1.000  H
  H7       1.0000 0.91640  0.79100  0.12680  Biso   1.000  H
  H8       1.0000 0.58360  0.70900  0.87320  Biso   1.000  H
  H9       1.0000 0.58360  0.54100  0.37680  Biso   1.000  H
  H10      1.0000 0.66640  0.70900  0.37680  Biso   1.000  H
  H11      1.0000 0.58360  0.70900  0.37320  Biso   1.000  H
  H12      1.0000 0.58360  0.04100  0.37680  Biso   1.000  H
  H13      1.0000 0.16640  0.70900  0.37680  Biso   1.000  H
  H14      1.0000 0.66640  0.54100  0.87320  Biso   1.000  H
  H15      1.0000 0.66640  0.04100  0.37320  Biso   1.000  H
  H16      1.0000 0.16640  0.54100  0.37320  Biso   1.000  H
  H17      1.0000 0.16640  0.04100  0.87320  Biso   1.000  H
  H18      1.0000 0.91640  0.79100  0.62680  Biso   1.000  H
  H19      1.0000 0.91640  0.95900  0.12320  Biso   1.000  H
  H20      1.0000 0.83360  0.79100  0.12320  Biso   1.000  H
  C21      1.0000 0.35640  0.48750  0.18631  Biso   1.000  C
  C22      1.0000 0.35640  0.98750  0.68631  Biso   1.000  C
  C23      1.0000 0.35640  0.76250  0.06369  Biso   1.000  C
  C24      1.0000 0.85640  0.48750  0.68631  Biso   1.000  C
  C25      1.0000 0.89360  0.48750  0.06369  Biso   1.000  C
  C26      1.0000 0.85640  0.98750  0.18631  Biso   1.000  C
  C27      1.0000 0.89360  0.76250  0.18631  Biso   1.000  C
  C28      1.0000 0.60640  0.73750  0.81369  Biso   1.000  C
  C29      1.0000 0.60640  0.51250  0.43631  Biso   1.000  C
  C30      1.0000 0.64360  0.73750  0.43631  Biso   1.000  C
  C31      1.0000 0.60640  0.73750  0.31369  Biso   1.000  C
  C32      1.0000 0.60640  0.01250  0.43631  Biso   1.000  C
  C33      1.0000 0.14360  0.73750  0.43631  Biso   1.000  C
  C34      1.0000 0.64360  0.51250  0.81369  Biso   1.000  C
  C35      1.0000 0.64360  0.01250  0.31369  Biso   1.000  C
  C36      1.0000 0.14360  0.51250  0.31369  Biso   1.000  C
  C37      1.0000 0.14360  0.01250  0.81369  Biso   1.000  C
  C38      1.0000 0.89360  0.76250  0.68631  Biso   1.000  C
  C39      1.0000 0.89360  0.98750  0.06369  Biso   1.000  C
  C40      1.0000 0.85640  0.76250  0.06369  Biso   1.000  C
  H21      1.0000 0.38220  0.51910  0.17670  Biso   1.000  H
  H22      1.0000 0.38220  0.01910  0.67670  Biso   1.000  H
  H23      1.0000 0.38220  0.73090  0.07330  Biso   1.000  H
  H24      1.0000 0.88220  0.51910  0.67670  Biso   1.000  H
  H25      1.0000 0.86780  0.51910  0.07330  Biso   1.000  H
  H26      1.0000 0.88220  0.01910  0.17670  Biso   1.000  H
  H27      1.0000 0.86780  0.73090  0.17670  Biso   1.000  H
  H28      1.0000 0.63220  0.76910  0.82330  Biso   1.000  H
  H29      1.0000 0.63220  0.48090  0.42670  Biso   1.000  H
  H30      1.0000 0.61780  0.76910  0.42670  Biso   1.000  H
  H31      1.0000 0.63220  0.76910  0.32330  Biso   1.000  H
  H32      1.0000 0.63220  0.98090  0.42670  Biso   1.000  H
  H33      1.0000 0.11780  0.76910  0.42670  Biso   1.000  H
  H34      1.0000 0.61780  0.48090  0.82330  Biso   1.000  H
  H35      1.0000 0.61780  0.98090  0.32330  Biso   1.000  H
  H36      1.0000 0.11780  0.48090  0.32330  Biso   1.000  H
  H37      1.0000 0.11780  0.98090  0.82330  Biso   1.000  H
  H38      1.0000 0.86780  0.73090  0.67670  Biso   1.000  H
  H39      1.0000 0.86780  0.01910  0.07330  Biso   1.000  H
  H40      1.0000 0.88220  0.73090  0.07330  Biso   1.000  H
  C41      1.0000 0.28090  0.39510  0.21022  Biso   1.000  C
  C42      1.0000 0.28090  0.89510  0.71022  Biso   1.000  C
  C43      1.0000 0.28090  0.85490  0.03978  Biso   1.000  C
  C44      1.0000 0.78090  0.39510  0.71022  Biso   1.000  C
  C45      1.0000 0.96910  0.39510  0.03978  Biso   1.000  C
  C46      1.0000 0.78090  0.89510  0.21022  Biso   1.000  C
  C47      1.0000 0.96910  0.85490  0.21022  Biso   1.000  C
  C48      1.0000 0.53090  0.64510  0.78978  Biso   1.000  C
  C49      1.0000 0.53090  0.60490  0.46022  Biso   1.000  C
  C50      1.0000 0.71910  0.64510  0.46022  Biso   1.000  C
  C51      1.0000 0.53090  0.64510  0.28978  Biso   1.000  C
  C52      1.0000 0.53090  0.10490  0.46022  Biso   1.000  C
  C53      1.0000 0.21910  0.64510  0.46022  Biso   1.000  C
  C54      1.0000 0.71910  0.60490  0.78978  Biso   1.000  C
  C55      1.0000 0.71910  0.10490  0.28978  Biso   1.000  C
  C56      1.0000 0.21910  0.60490  0.28978  Biso   1.000  C
  C57      1.0000 0.21910  0.10490  0.78978  Biso   1.000  C
  C58      1.0000 0.96910  0.85490  0.71022  Biso   1.000  C
  C59      1.0000 0.96910  0.89510  0.03978  Biso   1.000  C
  C60      1.0000 0.78090  0.85490  0.03978  Biso   1.000  C
  H41      1.0000 0.25550  0.36280  0.21870  Biso   1.000  H
  H42      1.0000 0.25550  0.86280  0.71870  Biso   1.000  H
  H43      1.0000 0.25550  0.88720  0.03130  Biso   1.000  H
  H44      1.0000 0.75550  0.36280  0.71870  Biso   1.000  H
  H45      1.0000 0.99450  0.36280  0.03130  Biso   1.000  H
  H46      1.0000 0.75550  0.86280  0.21870  Biso   1.000  H
  H47      1.0000 0.99450  0.88720  0.21870  Biso   1.000  H
  H48      1.0000 0.50550  0.61280  0.78130  Biso   1.000  H
  H49      1.0000 0.50550  0.63720  0.46870  Biso   1.000  H
  H50      1.0000 0.74450  0.61280  0.46870  Biso   1.000  H
  H51      1.0000 0.50550  0.61280  0.28130  Biso   1.000  H
  H52      1.0000 0.50550  0.13720  0.46870  Biso   1.000  H
  H53      1.0000 0.24450  0.61280  0.46870  Biso   1.000  H
  H54      1.0000 0.74450  0.63720  0.78130  Biso   1.000  H
  H55      1.0000 0.74450  0.13720  0.28130  Biso   1.000  H
  H56      1.0000 0.24450  0.63720  0.28130  Biso   1.000  H
  H57      1.0000 0.24450  0.13720  0.78130  Biso   1.000  H
  H58      1.0000 0.99450  0.88720  0.71870  Biso   1.000  H
  H59      1.0000 0.99450  0.86280  0.03130  Biso   1.000  H
  H60      1.0000 0.75550  0.88720  0.03130  Biso   1.000  H
  C61      1.0000 0.30900  0.42910  0.24246  Biso   1.000  C
  C62      1.0000 0.30900  0.92910  0.74246  Biso   1.000  C
  C63      1.0000 0.30900  0.82090  0.00754  Biso   1.000  C
  C64      1.0000 0.80900  0.42910  0.74246  Biso   1.000  C
  C65      1.0000 0.94100  0.42910  0.00754  Biso   1.000  C
  C66      1.0000 0.80900  0.92910  0.24246  Biso   1.000  C
  C67      1.0000 0.94100  0.82090  0.24246  Biso   1.000  C
  C68      1.0000 0.55900  0.67910  0.75754  Biso   1.000  C
  C69      1.0000 0.55900  0.57090  0.49246  Biso   1.000  C
  C70      1.0000 0.69100  0.67910  0.49246  Biso   1.000  C
  C71      1.0000 0.55900  0.67910  0.25754  Biso   1.000  C
  C72      1.0000 0.55900  0.07090  0.49246  Biso   1.000  C
  C73      1.0000 0.19100  0.67910  0.49246  Biso   1.000  C
  C74      1.0000 0.69100  0.57090  0.75754  Biso   1.000  C
  C75      1.0000 0.69100  0.07090  0.25754  Biso   1.000  C
  C76      1.0000 0.19100  0.57090  0.25754  Biso   1.000  C
  C77      1.0000 0.19100  0.07090  0.75754  Biso   1.000  C
  C78      1.0000 0.94100  0.82090  0.74246  Biso   1.000  C
  C79      1.0000 0.94100  0.92910  0.00754  Biso   1.000  C
  C80      1.0000 0.80900  0.82090  0.00754  Biso   1.000  C
  H61      1.0000 0.30190  0.42000  0.27190  Biso   1.000  H
  H62      1.0000 0.30190  0.92000  0.77190  Biso   1.000  H
  H63      1.0000 0.30190  0.83000  0.97810  Biso   1.000  H
  H64      1.0000 0.80190  0.42000  0.77190  Biso   1.000  H
  H65      1.0000 0.94810  0.42000  0.97810  Biso   1.000  H
  H66      1.0000 0.80190  0.92000  0.27190  Biso   1.000  H
  H67      1.0000 0.94810  0.83000  0.27190  Biso   1.000  H
  H68      1.0000 0.55190  0.67000  0.72810  Biso   1.000  H
  H69      1.0000 0.55190  0.58000  0.52190  Biso   1.000  H
  H70      1.0000 0.69810  0.67000  0.52190  Biso   1.000  H
  H71      1.0000 0.55190  0.67000  0.22810  Biso   1.000  H
  H72      1.0000 0.55190  0.08000  0.52190  Biso   1.000  H
  H73      1.0000 0.19810  0.67000  0.52190  Biso   1.000  H
  H74      1.0000 0.69810  0.58000  0.72810  Biso   1.000  H
  H75      1.0000 0.69810  0.08000  0.22810  Biso   1.000  H
  H76      1.0000 0.19810  0.58000  0.22810  Biso   1.000  H
  H77      1.0000 0.19810  0.08000  0.72810  Biso   1.000  H
  H78      1.0000 0.94810  0.83000  0.77190  Biso   1.000  H
  H79      1.0000 0.94810  0.92000  0.97810  Biso   1.000  H
  H80      1.0000 0.80190  0.83000  0.97810  Biso   1.000  H
  C81      1.0000 0.34840  0.47740  0.23094  Biso   1.000  C
  C82      1.0000 0.34840  0.97740  0.73094  Biso   1.000  C
  C83      1.0000 0.34840  0.77260  0.01906  Biso   1.000  C
  C84      1.0000 0.84840  0.47740  0.73094  Biso   1.000  C
  C85      1.0000 0.90160  0.47740  0.01906  Biso   1.000  C
  C86      1.0000 0.84840  0.97740  0.23094  Biso   1.000  C
  C87      1.0000 0.90160  0.77260  0.23094  Biso   1.000  C
  C88      1.0000 0.59840  0.72740  0.76906  Biso   1.000  C
  C89      1.0000 0.59840  0.52260  0.48094  Biso   1.000  C
  C90      1.0000 0.65160  0.72740  0.48094  Biso   1.000  C
  C91      1.0000 0.59840  0.72740  0.26906  Biso   1.000  C
  C92      1.0000 0.59840  0.02260  0.48094  Biso   1.000  C
  C93      1.0000 0.15160  0.72740  0.48094  Biso   1.000  C
  C94      1.0000 0.65160  0.52260  0.76906  Biso   1.000  C
  C95      1.0000 0.65160  0.02260  0.26906  Biso   1.000  C
  C96      1.0000 0.15160  0.52260  0.26906  Biso   1.000  C
  C97      1.0000 0.15160  0.02260  0.76906  Biso   1.000  C
  C98      1.0000 0.90160  0.77260  0.73094  Biso   1.000  C
  C99      1.0000 0.90160  0.97740  0.01906  Biso   1.000  C
  C100     1.0000 0.84840  0.77260  0.01906  Biso   1.000  C
  C101     1.0000 0.37950  0.51510  0.26475  Biso   1.000  C
  C102     1.0000 0.37950  0.01510  0.76475  Biso   1.000  C
  C103     1.0000 0.37950  0.73490  0.98525  Biso   1.000  C
  C104     1.0000 0.87950  0.51510  0.76475  Biso   1.000  C
  C105     1.0000 0.87050  0.51510  0.98525  Biso   1.000  C
  C106     1.0000 0.87950  0.01510  0.26475  Biso   1.000  C
  C107     1.0000 0.87050  0.73490  0.26475  Biso   1.000  C
  C108     1.0000 0.62950  0.76510  0.73525  Biso   1.000  C
  C109     1.0000 0.62950  0.48490  0.51475  Biso   1.000  C
  C110     1.0000 0.62050  0.76510  0.51475  Biso   1.000  C
  C111     1.0000 0.62950  0.76510  0.23525  Biso   1.000  C
  C112     1.0000 0.62950  0.98490  0.51475  Biso   1.000  C
  C113     1.0000 0.12050  0.76510  0.51475  Biso   1.000  C
  C114     1.0000 0.62050  0.48490  0.73525  Biso   1.000  C
  C115     1.0000 0.62050  0.98490  0.23525  Biso   1.000  C
  C116     1.0000 0.12050  0.48490  0.23525  Biso   1.000  C
  C117     1.0000 0.12050  0.98490  0.73525  Biso   1.000  C
  C118     1.0000 0.87050  0.73490  0.76475  Biso   1.000  C
  C119     1.0000 0.87050  0.01510  0.98525  Biso   1.000  C
  C120     1.0000 0.87950  0.73490  0.98525  Biso   1.000  C
  C121     1.0000 0.40420  0.49460  0.30455  Biso   1.000  C
  C122     1.0000 0.40420  0.99460  0.80455  Biso   1.000  C
  C123     1.0000 0.40420  0.75540  0.94545  Biso   1.000  C
  C124     1.0000 0.90420  0.49460  0.80455  Biso   1.000  C
  C125     1.0000 0.84580  0.49460  0.94545  Biso   1.000  C
  C126     1.0000 0.90420  0.99460  0.30455  Biso   1.000  C
  C127     1.0000 0.84580  0.75540  0.30455  Biso   1.000  C
  C128     1.0000 0.65420  0.74460  0.69545  Biso   1.000  C
  C129     1.0000 0.65420  0.50540  0.55455  Biso   1.000  C
  C130     1.0000 0.59580  0.74460  0.55455  Biso   1.000  C
  C131     1.0000 0.65420  0.74460  0.19545  Biso   1.000  C
  C132     1.0000 0.65420  0.00540  0.55455  Biso   1.000  C
  C133     1.0000 0.09580  0.74460  0.55455  Biso   1.000  C
  C134     1.0000 0.59580  0.50540  0.69545  Biso   1.000  C
  C135     1.0000 0.59580  0.00540  0.19545  Biso   1.000  C
  C136     1.0000 0.09580  0.50540  0.19545  Biso   1.000  C
  C137     1.0000 0.09580  0.00540  0.69545  Biso   1.000  C
  C138     1.0000 0.84580  0.75540  0.80455  Biso   1.000  C
  C139     1.0000 0.84580  0.99460  0.94545  Biso   1.000  C
  C140     1.0000 0.90420  0.75540  0.94545  Biso   1.000  C
  H81      1.0000 0.40200  0.45570  0.31070  Biso   1.000  H
  H82      1.0000 0.40200  0.95570  0.81070  Biso   1.000  H
  H83      1.0000 0.40200  0.79430  0.93930  Biso   1.000  H
  H84      1.0000 0.90200  0.45570  0.81070  Biso   1.000  H
  H85      1.0000 0.84800  0.45570  0.93930  Biso   1.000  H
  H86      1.0000 0.90200  0.95570  0.31070  Biso   1.000  H
  H87      1.0000 0.84800  0.79430  0.31070  Biso   1.000  H
  H88      1.0000 0.65200  0.70570  0.68930  Biso   1.000  H
  H89      1.0000 0.65200  0.54430  0.56070  Biso   1.000  H
  H90      1.0000 0.59800  0.70570  0.56070  Biso   1.000  H
  H91      1.0000 0.65200  0.70570  0.18930  Biso   1.000  H
  H92      1.0000 0.65200  0.04430  0.56070  Biso   1.000  H
  H93      1.0000 0.09800  0.70570  0.56070  Biso   1.000  H
  H94      1.0000 0.59800  0.54430  0.68930  Biso   1.000  H
  H95      1.0000 0.59800  0.04430  0.18930  Biso   1.000  H
  H96      1.0000 0.09800  0.54430  0.18930  Biso   1.000  H
  H97      1.0000 0.09800  0.04430  0.68930  Biso   1.000  H
  H98      1.0000 0.84800  0.79430  0.81070  Biso   1.000  H
  H99      1.0000 0.84800  0.95570  0.93930  Biso   1.000  H
  H100     1.0000 0.90200  0.79430  0.93930  Biso   1.000  H
  C141     1.0000 0.43210  0.53150  0.33479  Biso   1.000  C
  C142     1.0000 0.43210  0.03150  0.83479  Biso   1.000  C
  C143     1.0000 0.43210  0.71850  0.91521  Biso   1.000  C
  C144     1.0000 0.93210  0.53150  0.83479  Biso   1.000  C
  C145     1.0000 0.81790  0.53150  0.91521  Biso   1.000  C
  C146     1.0000 0.93210  0.03150  0.33479  Biso   1.000  C
  C147     1.0000 0.81790  0.71850  0.33479  Biso   1.000  C
  C148     1.0000 0.68210  0.78150  0.66521  Biso   1.000  C
  C149     1.0000 0.68210  0.46850  0.58479  Biso   1.000  C
  C150     1.0000 0.56790  0.78150  0.58479  Biso   1.000  C
  C151     1.0000 0.68210  0.78150  0.16521  Biso   1.000  C
  C152     1.0000 0.68210  0.96850  0.58479  Biso   1.000  C
  C153     1.0000 0.06790  0.78150  0.58479  Biso   1.000  C
  C154     1.0000 0.56790  0.46850  0.66521  Biso   1.000  C
  C155     1.0000 0.56790  0.96850  0.16521  Biso   1.000  C
  C156     1.0000 0.06790  0.46850  0.16521  Biso   1.000  C
  C157     1.0000 0.06790  0.96850  0.66521  Biso   1.000  C
  C158     1.0000 0.81790  0.71850  0.83479  Biso   1.000  C
  C159     1.0000 0.81790  0.03150  0.91521  Biso   1.000  C
  C160     1.0000 0.93210  0.71850  0.91521  Biso   1.000  C
  H101     1.0000 0.44840  0.51660  0.36130  Biso   1.000  H
  H102     1.0000 0.44840  0.01660  0.86130  Biso   1.000  H
  H103     1.0000 0.44840  0.73340  0.88870  Biso   1.000  H
  H104     1.0000 0.94840  0.51660  0.86130  Biso   1.000  H
  H105     1.0000 0.80160  0.51660  0.88870  Biso   1.000  H
  H106     1.0000 0.94840  0.01660  0.36130  Biso   1.000  H
  H107     1.0000 0.80160  0.73340  0.36130  Biso   1.000  H
  H108     1.0000 0.69840  0.76660  0.63870  Biso   1.000  H
  H109     1.0000 0.69840  0.48340  0.61130  Biso   1.000  H
  H110     1.0000 0.55160  0.76660  0.61130  Biso   1.000  H
  H111     1.0000 0.69840  0.76660  0.13870  Biso   1.000  H
  H112     1.0000 0.69840  0.98340  0.61130  Biso   1.000  H
  H113     1.0000 0.05160  0.76660  0.61130  Biso   1.000  H
  H114     1.0000 0.55160  0.48340  0.63870  Biso   1.000  H
  H115     1.0000 0.55160  0.98340  0.13870  Biso   1.000  H
  H116     1.0000 0.05160  0.48340  0.13870  Biso   1.000  H
  H117     1.0000 0.05160  0.98340  0.63870  Biso   1.000  H
  H118     1.0000 0.80160  0.73340  0.86130  Biso   1.000  H
  H119     1.0000 0.80160  0.01660  0.88870  Biso   1.000  H
  H120     1.0000 0.94840  0.73340  0.88870  Biso   1.000  H
  C161     1.0000 0.38560  0.57410  0.25745  Biso   1.000  C
  C162     1.0000 0.38560  0.07410  0.75745  Biso   1.000  C
  C163     1.0000 0.38560  0.67590  0.99255  Biso   1.000  C
  C164     1.0000 0.88560  0.57410  0.75745  Biso   1.000  C
  C165     1.0000 0.86440  0.57410  0.99255  Biso   1.000  C
  C166     1.0000 0.88560  0.07410  0.25745  Biso   1.000  C
  C167     1.0000 0.86440  0.67590  0.25745  Biso   1.000  C
  C168     1.0000 0.63560  0.82410  0.74255  Biso   1.000  C
  C169     1.0000 0.63560  0.42590  0.50745  Biso   1.000  C
  C170     1.0000 0.61440  0.82410  0.50745  Biso   1.000  C
  C171     1.0000 0.63560  0.82410  0.24255  Biso   1.000  C
  C172     1.0000 0.63560  0.92590  0.50745  Biso   1.000  C
  C173     1.0000 0.11440  0.82410  0.50745  Biso   1.000  C
  C174     1.0000 0.61440  0.42590  0.74255  Biso   1.000  C
  C175     1.0000 0.61440  0.92590  0.24255  Biso   1.000  C
  C176     1.0000 0.11440  0.42590  0.24255  Biso   1.000  C
  C177     1.0000 0.11440  0.92590  0.74255  Biso   1.000  C
  C178     1.0000 0.86440  0.67590  0.75745  Biso   1.000  C
  C179     1.0000 0.86440  0.07410  0.99255  Biso   1.000  C
  C180     1.0000 0.88560  0.67590  0.99255  Biso   1.000  C
  H121     1.0000 0.37090  0.58980  0.23090  Biso   1.000  H
  H122     1.0000 0.37090  0.08980  0.73090  Biso   1.000  H
  H123     1.0000 0.37090  0.66020  0.01910  Biso   1.000  H
  H124     1.0000 0.87090  0.58980  0.73090  Biso   1.000  H
  H125     1.0000 0.87910  0.58980  0.01910  Biso   1.000  H
  H126     1.0000 0.87090  0.08980  0.23090  Biso   1.000  H
  H127     1.0000 0.87910  0.66020  0.23090  Biso   1.000  H
  H128     1.0000 0.62090  0.83980  0.76910  Biso   1.000  H
  H129     1.0000 0.62090  0.41020  0.48090  Biso   1.000  H
  H130     1.0000 0.62910  0.83980  0.48090  Biso   1.000  H
  H131     1.0000 0.62090  0.83980  0.26910  Biso   1.000  H
  H132     1.0000 0.62090  0.91020  0.48090  Biso   1.000  H
  H133     1.0000 0.12910  0.83980  0.48090  Biso   1.000  H
  H134     1.0000 0.62910  0.41020  0.76910  Biso   1.000  H
  H135     1.0000 0.62910  0.91020  0.26910  Biso   1.000  H
  H136     1.0000 0.12910  0.41020  0.26910  Biso   1.000  H
  H137     1.0000 0.12910  0.91020  0.76910  Biso   1.000  H
  H138     1.0000 0.87910  0.66020  0.73090  Biso   1.000  H
  H139     1.0000 0.87910  0.08980  0.01910  Biso   1.000  H
  H140     1.0000 0.87090  0.66020  0.01910  Biso   1.000  H
  C181     1.0000 0.41360  0.60850  0.28969  Biso   1.000  C
  C182     1.0000 0.41360  0.10850  0.78969  Biso   1.000  C
  C183     1.0000 0.41360  0.64150  0.96031  Biso   1.000  C
  C184     1.0000 0.91360  0.60850  0.78969  Biso   1.000  C
  C185     1.0000 0.83640  0.60850  0.96031  Biso   1.000  C
  C186     1.0000 0.91360  0.10850  0.28969  Biso   1.000  C
  C187     1.0000 0.83640  0.64150  0.28969  Biso   1.000  C
  C188     1.0000 0.66360  0.85850  0.71031  Biso   1.000  C
  C189     1.0000 0.66360  0.39150  0.53969  Biso   1.000  C
  C190     1.0000 0.58640  0.85850  0.53969  Biso   1.000  C
  C191     1.0000 0.66360  0.85850  0.21031  Biso   1.000  C
  C192     1.0000 0.66360  0.89150  0.53969  Biso   1.000  C
  C193     1.0000 0.08640  0.85850  0.53969  Biso   1.000  C
  C194     1.0000 0.58640  0.39150  0.71031  Biso   1.000  C
  C195     1.0000 0.58640  0.89150  0.21031  Biso   1.000  C
  C196     1.0000 0.08640  0.39150  0.21031  Biso   1.000  C
  C197     1.0000 0.08640  0.89150  0.71031  Biso   1.000  C
  C198     1.0000 0.83640  0.64150  0.78969  Biso   1.000  C
  C199     1.0000 0.83640  0.10850  0.96031  Biso   1.000  C
  C200     1.0000 0.91360  0.64150  0.96031  Biso   1.000  C
  H141     1.0000 0.41640  0.64770  0.28450  Biso   1.000  H
  H142     1.0000 0.41640  0.14770  0.78450  Biso   1.000  H
  H143     1.0000 0.41640  0.60230  0.96550  Biso   1.000  H
  H144     1.0000 0.91640  0.64770  0.78450  Biso   1.000  H
  H145     1.0000 0.83360  0.64770  0.96550  Biso   1.000  H
  H146     1.0000 0.91640  0.14770  0.28450  Biso   1.000  H
  H147     1.0000 0.83360  0.60230  0.28450  Biso   1.000  H
  H148     1.0000 0.66640  0.89770  0.71550  Biso   1.000  H
  H149     1.0000 0.66640  0.35230  0.53450  Biso   1.000  H
  H150     1.0000 0.58360  0.89770  0.53450  Biso   1.000  H
  H151     1.0000 0.66640  0.89770  0.21550  Biso   1.000  H
  H152     1.0000 0.66640  0.85230  0.53450  Biso   1.000  H
  H153     1.0000 0.08360  0.89770  0.53450  Biso   1.000  H
  H154     1.0000 0.58360  0.35230  0.71550  Biso   1.000  H
  H155     1.0000 0.58360  0.85230  0.21550  Biso   1.000  H
  H156     1.0000 0.08360  0.35230  0.21550  Biso   1.000  H
  H157     1.0000 0.08360  0.85230  0.71550  Biso   1.000  H
  H158     1.0000 0.83360  0.60230  0.78450  Biso   1.000  H
  H159     1.0000 0.83360  0.14770  0.96550  Biso   1.000  H
  H160     1.0000 0.91640  0.60230  0.96550  Biso   1.000  H
  C201     1.0000 0.24990  0.24540  0.08708  Biso   1.000  C
  C202     1.0000 0.24990  0.74540  0.58708  Biso   1.000  C
  C203     1.0000 0.24990  0.00460  0.16292  Biso   1.000  C
  C204     1.0000 0.74990  0.24540  0.58708  Biso   1.000  C
  C205     1.0000 0.00010  0.24540  0.16292  Biso   1.000  C
  C206     1.0000 0.74990  0.74540  0.08708  Biso   1.000  C
  C207     1.0000 0.00010  0.00460  0.08708  Biso   1.000  C
  C208     1.0000 0.49990  0.49540  0.91292  Biso   1.000  C
  C209     1.0000 0.49990  0.75460  0.33708  Biso   1.000  C
  C210     1.0000 0.75010  0.49540  0.33708  Biso   1.000  C
  C211     1.0000 0.49990  0.49540  0.41292  Biso   1.000  C
  C212     1.0000 0.49990  0.25460  0.33708  Biso   1.000  C
  C213     1.0000 0.25010  0.49540  0.33708  Biso   1.000  C
  C214     1.0000 0.75010  0.75460  0.91292  Biso   1.000  C
  C215     1.0000 0.75010  0.25460  0.41292  Biso   1.000  C
  C216     1.0000 0.25010  0.75460  0.41292  Biso   1.000  C
  C217     1.0000 0.25010  0.25460  0.91292  Biso   1.000  C
  C218     1.0000 0.00010  0.00460  0.58708  Biso   1.000  C
  C219     1.0000 0.00010  0.74540  0.16292  Biso   1.000  C
  C220     1.0000 0.74990  0.00460  0.16292  Biso   1.000  C
  H161     1.0000 0.26440  0.26440  0.06180  Biso   1.000  H
  H162     1.0000 0.26440  0.76440  0.56180  Biso   1.000  H
  H163     1.0000 0.26440  0.98560  0.18820  Biso   1.000  H
  H164     1.0000 0.76440  0.26440  0.56180  Biso   1.000  H
  H165     1.0000 0.98560  0.26440  0.18820  Biso   1.000  H
  H166     1.0000 0.76440  0.76440  0.06180  Biso   1.000  H
  H167     1.0000 0.98560  0.98560  0.06180  Biso   1.000  H
  H168     1.0000 0.51440  0.51440  0.93820  Biso   1.000  H
  H169     1.0000 0.51440  0.73560  0.31180  Biso   1.000  H
  H170     1.0000 0.73560  0.51440  0.31180  Biso   1.000  H
  H171     1.0000 0.51440  0.51440  0.43820  Biso   1.000  H
  H172     1.0000 0.51440  0.23560  0.31180  Biso   1.000  H
  H173     1.0000 0.23560  0.51440  0.31180  Biso   1.000  H
  H174     1.0000 0.73560  0.73560  0.93820  Biso   1.000  H
  H175     1.0000 0.73560  0.23560  0.43820  Biso   1.000  H
  H176     1.0000 0.23560  0.73560  0.43820  Biso   1.000  H
  H177     1.0000 0.23560  0.23560  0.93820  Biso   1.000  H
  H178     1.0000 0.98560  0.98560  0.56180  Biso   1.000  H
  H179     1.0000 0.98560  0.76440  0.18820  Biso   1.000  H
  H180     1.0000 0.76440  0.98560  0.18820  Biso   1.000  H
  C221     1.0000 0.25060  0.18630  0.08723  Biso   1.000  C
  C222     1.0000 0.25060  0.68630  0.58723  Biso   1.000  C
  C223     1.0000 0.25060  0.06370  0.16277  Biso   1.000  C
  C224     1.0000 0.75060  0.18630  0.58723  Biso   1.000  C
  C225     1.0000 0.99940  0.18630  0.16277  Biso   1.000  C
  C226     1.0000 0.75060  0.68630  0.08723  Biso   1.000  C
  C227     1.0000 0.99940  0.06370  0.08723  Biso   1.000  C
  C228     1.0000 0.50060  0.43630  0.91277  Biso   1.000  C
  C229     1.0000 0.50060  0.81370  0.33723  Biso   1.000  C
  C230     1.0000 0.74940  0.43630  0.33723  Biso   1.000  C
  C231     1.0000 0.50060  0.43630  0.41277  Biso   1.000  C
  C232     1.0000 0.50060  0.31370  0.33723  Biso   1.000  C
  C233     1.0000 0.24940  0.43630  0.33723  Biso   1.000  C
  C234     1.0000 0.74940  0.81370  0.91277  Biso   1.000  C
  C235     1.0000 0.74940  0.31370  0.41277  Biso   1.000  C
  C236     1.0000 0.24940  0.81370  0.41277  Biso   1.000  C
  C237     1.0000 0.24940  0.31370  0.91277  Biso   1.000  C
  C238     1.0000 0.99940  0.06370  0.58723  Biso   1.000  C
  C239     1.0000 0.99940  0.68630  0.16277  Biso   1.000  C
  C240     1.0000 0.75060  0.06370  0.16277  Biso   1.000  C
  H181     1.0000 0.26510  0.16640  0.06230  Biso   1.000  H
  H182     1.0000 0.26510  0.66640  0.56230  Biso   1.000  H
  H183     1.0000 0.26510  0.08360  0.18770  Biso   1.000  H
  H184     1.0000 0.76510  0.16640  0.56230  Biso   1.000  H
  H185     1.0000 0.98490  0.16640  0.18770  Biso   1.000  H
  H186     1.0000 0.76510  0.66640  0.06230  Biso   1.000  H
  H187     1.0000 0.98490  0.08360  0.06230  Biso   1.000  H
  H188     1.0000 0.51510  0.41640  0.93770  Biso   1.000  H
  H189     1.0000 0.51510  0.83360  0.31230  Biso   1.000  H
  H190     1.0000 0.73490  0.41640  0.31230  Biso   1.000  H
  H191     1.0000 0.51510  0.41640  0.43770  Biso   1.000  H
  H192     1.0000 0.51510  0.33360  0.31230  Biso   1.000  H
  H193     1.0000 0.23490  0.41640  0.31230  Biso   1.000  H
  H194     1.0000 0.73490  0.83360  0.93770  Biso   1.000  H
  H195     1.0000 0.73490  0.33360  0.43770  Biso   1.000  H
  H196     1.0000 0.23490  0.83360  0.43770  Biso   1.000  H
  H197     1.0000 0.23490  0.33360  0.93770  Biso   1.000  H
  H198     1.0000 0.98490  0.08360  0.56230  Biso   1.000  H
  H199     1.0000 0.98490  0.66640  0.18770  Biso   1.000  H
  H200     1.0000 0.76510  0.08360  0.18770  Biso   1.000  H
  C241     1.0000 0.20770  0.24760  0.15745  Biso   1.000  C
  C242     1.0000 0.20770  0.74760  0.65745  Biso   1.000  C
  C243     1.0000 0.20770  0.00240  0.09255  Biso   1.000  C
  C244     1.0000 0.70770  0.24760  0.65745  Biso   1.000  C
  C245     1.0000 0.04230  0.24760  0.09255  Biso   1.000  C
  C246     1.0000 0.70770  0.74760  0.15745  Biso   1.000  C
  C247     1.0000 0.04230  0.00240  0.15745  Biso   1.000  C
  C248     1.0000 0.45770  0.49760  0.84255  Biso   1.000  C
  C249     1.0000 0.45770  0.75240  0.40745  Biso   1.000  C
  C250     1.0000 0.79230  0.49760  0.40745  Biso   1.000  C
  C251     1.0000 0.45770  0.49760  0.34255  Biso   1.000  C
  C252     1.0000 0.45770  0.25240  0.40745  Biso   1.000  C
  C253     1.0000 0.29230  0.49760  0.40745  Biso   1.000  C
  C254     1.0000 0.79230  0.75240  0.84255  Biso   1.000  C
  C255     1.0000 0.79230  0.25240  0.34255  Biso   1.000  C
  C256     1.0000 0.29230  0.75240  0.34255  Biso   1.000  C
  C257     1.0000 0.29230  0.25240  0.84255  Biso   1.000  C
  C258     1.0000 0.04230  0.00240  0.65745  Biso   1.000  C
  C259     1.0000 0.04230  0.74760  0.09255  Biso   1.000  C
  C260     1.0000 0.70770  0.00240  0.09255  Biso   1.000  C
  H201     1.0000 0.19180  0.26840  0.18160  Biso   1.000  H
  H202     1.0000 0.19180  0.76840  0.68160  Biso   1.000  H
  H203     1.0000 0.19180  0.98160  0.06840  Biso   1.000  H
  H204     1.0000 0.69180  0.26840  0.68160  Biso   1.000  H
  H205     1.0000 0.05820  0.26840  0.06840  Biso   1.000  H
  H206     1.0000 0.69180  0.76840  0.18160  Biso   1.000  H
  H207     1.0000 0.05820  0.98160  0.18160  Biso   1.000  H
  H208     1.0000 0.44180  0.51840  0.81840  Biso   1.000  H
  H209     1.0000 0.44180  0.73160  0.43160  Biso   1.000  H
  H210     1.0000 0.80820  0.51840  0.43160  Biso   1.000  H
  H211     1.0000 0.44180  0.51840  0.31840  Biso   1.000  H
  H212     1.0000 0.44180  0.23160  0.43160  Biso   1.000  H
  H213     1.0000 0.30820  0.51840  0.43160  Biso   1.000  H
  H214     1.0000 0.80820  0.73160  0.81840  Biso   1.000  H
  H215     1.0000 0.80820  0.23160  0.31840  Biso   1.000  H
  H216     1.0000 0.30820  0.73160  0.31840  Biso   1.000  H
  H217     1.0000 0.30820  0.23160  0.81840  Biso   1.000  H
  H218     1.0000 0.05820  0.98160  0.68160  Biso   1.000  H
  H219     1.0000 0.05820  0.76840  0.06840  Biso   1.000  H
  H220     1.0000 0.69180  0.98160  0.06840  Biso   1.000  H
  C261     1.0000 0.20790  0.18890  0.15999  Biso   1.000  C
  C262     1.0000 0.20790  0.68890  0.65999  Biso   1.000  C
  C263     1.0000 0.20790  0.06110  0.09001  Biso   1.000  C
  C264     1.0000 0.70790  0.18890  0.65999  Biso   1.000  C
  C265     1.0000 0.04210  0.18890  0.09001  Biso   1.000  C
  C266     1.0000 0.70790  0.68890  0.15999  Biso   1.000  C
  C267     1.0000 0.04210  0.06110  0.15999  Biso   1.000  C
  C268     1.0000 0.45790  0.43890  0.84001  Biso   1.000  C
  C269     1.0000 0.45790  0.81110  0.40999  Biso   1.000  C
  C270     1.0000 0.79210  0.43890  0.40999  Biso   1.000  C
  C271     1.0000 0.45790  0.43890  0.34001  Biso   1.000  C
  C272     1.0000 0.45790  0.31110  0.40999  Biso   1.000  C
  C273     1.0000 0.29210  0.43890  0.40999  Biso   1.000  C
  C274     1.0000 0.79210  0.81110  0.84001  Biso   1.000  C
  C275     1.0000 0.79210  0.31110  0.34001  Biso   1.000  C
  C276     1.0000 0.29210  0.81110  0.34001  Biso   1.000  C
  C277     1.0000 0.29210  0.31110  0.84001  Biso   1.000  C
  C278     1.0000 0.04210  0.06110  0.65999  Biso   1.000  C
  C279     1.0000 0.04210  0.68890  0.09001  Biso   1.000  C
  C280     1.0000 0.70790  0.06110  0.09001  Biso   1.000  C
  H221     1.0000 0.19350  0.17090  0.18570  Biso   1.000  H
  H222     1.0000 0.19350  0.67090  0.68570  Biso   1.000  H
  H223     1.0000 0.19350  0.07910  0.06430  Biso   1.000  H
  H224     1.0000 0.69350  0.17090  0.68570  Biso   1.000  H
  H225     1.0000 0.05650  0.17090  0.06430  Biso   1.000  H
  H226     1.0000 0.69350  0.67090  0.18570  Biso   1.000  H
  H227     1.0000 0.05650  0.07910  0.18570  Biso   1.000  H
  H228     1.0000 0.44350  0.42090  0.81430  Biso   1.000  H
  H229     1.0000 0.44350  0.82910  0.43570  Biso   1.000  H
  H230     1.0000 0.80650  0.42090  0.43570  Biso   1.000  H
  H231     1.0000 0.44350  0.42090  0.31430  Biso   1.000  H
  H232     1.0000 0.44350  0.32910  0.43570  Biso   1.000  H
  H233     1.0000 0.30650  0.42090  0.43570  Biso   1.000  H
  H234     1.0000 0.80650  0.82910  0.81430  Biso   1.000  H
  H235     1.0000 0.80650  0.32910  0.31430  Biso   1.000  H
  H236     1.0000 0.30650  0.82910  0.31430  Biso   1.000  H
  H237     1.0000 0.30650  0.32910  0.81430  Biso   1.000  H
  H238     1.0000 0.05650  0.07910  0.68570  Biso   1.000  H
  H239     1.0000 0.05650  0.67090  0.06430  Biso   1.000  H
  H240     1.0000 0.69350  0.07910  0.06430  Biso   1.000  H
  C281     1.0000 0.22960  0.15680  0.12447  Biso   1.000  C
  C282     1.0000 0.22960  0.65680  0.62447  Biso   1.000  C
  C283     1.0000 0.22960  0.09320  0.12553  Biso   1.000  C
  C284     1.0000 0.72960  0.15680  0.62447  Biso   1.000  C
  C285     1.0000 0.02040  0.15680  0.12553  Biso   1.000  C
  C286     1.0000 0.72960  0.65680  0.12447  Biso   1.000  C
  C287     1.0000 0.02040  0.09320  0.12447  Biso   1.000  C
  C288     1.0000 0.47960  0.40680  0.87553  Biso   1.000  C
  C289     1.0000 0.47960  0.84320  0.37447  Biso   1.000  C
  C290     1.0000 0.77040  0.40680  0.37447  Biso   1.000  C
  C291     1.0000 0.47960  0.40680  0.37553  Biso   1.000  C
  C292     1.0000 0.47960  0.34320  0.37447  Biso   1.000  C
  C293     1.0000 0.27040  0.40680  0.37447  Biso   1.000  C
  C294     1.0000 0.77040  0.84320  0.87553  Biso   1.000  C
  C295     1.0000 0.77040  0.34320  0.37553  Biso   1.000  C
  C296     1.0000 0.27040  0.84320  0.37553  Biso   1.000  C
  C297     1.0000 0.27040  0.34320  0.87553  Biso   1.000  C
  C298     1.0000 0.02040  0.09320  0.62447  Biso   1.000  C
  C299     1.0000 0.02040  0.65680  0.12553  Biso   1.000  C
  C300     1.0000 0.72960  0.09320  0.12553  Biso   1.000  C
  Cl1      1.0000 0.37500  0.37500  0.02855  Biso   1.000  Cl
  Cl2      1.0000 0.37500  0.87500  0.52855  Biso   1.000  Cl
  Cl3      1.0000 0.37500  0.87500  0.22145  Biso   1.000  Cl
  Cl4      1.0000 0.87500  0.37500  0.52855  Biso   1.000  Cl
  Cl5      1.0000 0.87500  0.37500  0.22145  Biso   1.000  Cl
  Cl6      1.0000 0.87500  0.87500  0.02855  Biso   1.000  Cl
  Cl7      1.0000 0.62500  0.62500  0.97145  Biso   1.000  Cl
  Cl8      1.0000 0.62500  0.62500  0.27855  Biso   1.000  Cl
  Cl9      1.0000 0.62500  0.62500  0.47145  Biso   1.000  Cl
  Cl10     1.0000 0.62500  0.12500  0.27855  Biso   1.000  Cl
  Cl11     1.0000 0.12500  0.62500  0.27855  Biso   1.000  Cl
  Cl12     1.0000 0.62500  0.12500  0.47145  Biso   1.000  Cl
  Cl13     1.0000 0.12500  0.62500  0.47145  Biso   1.000  Cl
  Cl14     1.0000 0.12500  0.12500  0.97145  Biso   1.000  Cl
  Cl15     1.0000 0.87500  0.87500  0.52855  Biso   1.000  Cl
  Cl16     1.0000 0.87500  0.87500  0.22145  Biso   1.000  Cl
  O1       1.0000 0.32270  0.42180  0.01950  Biso   1.000  O
  O2       1.0000 0.32270  0.92180  0.51950  Biso   1.000  O
  O3       1.0000 0.32270  0.82820  0.23050  Biso   1.000  O
  O4       1.0000 0.82270  0.42180  0.51950  Biso   1.000  O
  O5       1.0000 0.92730  0.42180  0.23050  Biso   1.000  O
  O6       1.0000 0.82270  0.92180  0.01950  Biso   1.000  O
  O7       1.0000 0.92730  0.82820  0.01950  Biso   1.000  O
  O8       1.0000 0.57270  0.67180  0.98050  Biso   1.000  O
  O9       1.0000 0.57270  0.57820  0.26950  Biso   1.000  O
  O10      1.0000 0.67730  0.67180  0.26950  Biso   1.000  O
  O11      1.0000 0.57270  0.67180  0.48050  Biso   1.000  O
  O12      1.0000 0.57270  0.07820  0.26950  Biso   1.000  O
  O13      1.0000 0.17730  0.67180  0.26950  Biso   1.000  O
  O14      1.0000 0.67730  0.57820  0.98050  Biso   1.000  O
  O15      1.0000 0.67730  0.07820  0.48050  Biso   1.000  O
  O16      1.0000 0.17730  0.57820  0.48050  Biso   1.000  O
  O17      1.0000 0.17730  0.07820  0.98050  Biso   1.000  O
  O18      1.0000 0.92730  0.82820  0.51950  Biso   1.000  O
  O19      1.0000 0.92730  0.92180  0.23050  Biso   1.000  O
  O20      1.0000 0.82270  0.82820  0.23050  Biso   1.000  O
  O21      1.0000 0.32580  0.34380  0.00790  Biso   1.000  O
  O22      1.0000 0.32580  0.84380  0.50790  Biso   1.000  O
  O23      1.0000 0.32580  0.90620  0.24210  Biso   1.000  O
  O24      1.0000 0.82580  0.34380  0.50790  Biso   1.000  O
  O25      1.0000 0.92420  0.34380  0.24210  Biso   1.000  O
  O26      1.0000 0.82580  0.84380  0.00790  Biso   1.000  O
  O27      1.0000 0.92420  0.90620  0.00790  Biso   1.000  O
  O28      1.0000 0.57580  0.59380  0.99210  Biso   1.000  O
  O29      1.0000 0.57580  0.65620  0.25790  Biso   1.000  O
  O30      1.0000 0.67420  0.59380  0.25790  Biso   1.000  O
  O31      1.0000 0.57580  0.59380  0.49210  Biso   1.000  O
  O32      1.0000 0.57580  0.15620  0.25790  Biso   1.000  O
  O33      1.0000 0.17420  0.59380  0.25790  Biso   1.000  O
  O34      1.0000 0.67420  0.65620  0.99210  Biso   1.000  O
  O35      1.0000 0.67420  0.15620  0.49210  Biso   1.000  O
  O36      1.0000 0.17420  0.65620  0.49210  Biso   1.000  O
  O37      1.0000 0.17420  0.15620  0.99210  Biso   1.000  O
  O38      1.0000 0.92420  0.90620  0.50790  Biso   1.000  O
  O39      1.0000 0.92420  0.84380  0.24210  Biso   1.000  O
  O40      1.0000 0.82580  0.90620  0.24210  Biso   1.000  O
  O41      1.0000 0.37500  0.37500  0.07330  Biso   1.000  O
  O42      1.0000 0.37500  0.87500  0.57330  Biso   1.000  O
  O43      1.0000 0.37500  0.87500  0.17670  Biso   1.000  O
  O44      1.0000 0.87500  0.37500  0.57330  Biso   1.000  O
  O45      1.0000 0.87500  0.37500  0.17670  Biso   1.000  O
  O46      1.0000 0.87500  0.87500  0.07330  Biso   1.000  O
  O47      1.0000 0.62500  0.62500  0.92670  Biso   1.000  O
  O48      1.0000 0.62500  0.62500  0.32330  Biso   1.000  O
  O49      1.0000 0.62500  0.62500  0.42670  Biso   1.000  O
  O50      1.0000 0.62500  0.12500  0.32330  Biso   1.000  O
  O51      1.0000 0.12500  0.62500  0.32330  Biso   1.000  O
  O52      1.0000 0.62500  0.12500  0.42670  Biso   1.000  O
  O53      1.0000 0.12500  0.62500  0.42670  Biso   1.000  O
  O54      1.0000 0.12500  0.12500  0.92670  Biso   1.000  O
  O55      1.0000 0.87500  0.87500  0.57330  Biso   1.000  O
  O56      1.0000 0.87500  0.87500  0.17670  Biso   1.000  O
  Cl17     1.0000 0.77566  0.12500  0.12500  Biso   1.000  Cl
  Cl18     1.0000 0.77566  0.62500  0.62500  Biso   1.000  Cl
  Cl19     1.0000 0.27566  0.12500  0.62500  Biso   1.000  Cl
  Cl20     1.0000 0.47434  0.12500  0.12500  Biso   1.000  Cl
  Cl21     1.0000 0.27566  0.62500  0.12500  Biso   1.000  Cl
  Cl22     1.0000 0.02566  0.37500  0.87500  Biso   1.000  Cl
  Cl23     1.0000 0.02566  0.87500  0.37500  Biso   1.000  Cl
  Cl24     1.0000 0.22434  0.37500  0.37500  Biso   1.000  Cl
  Cl25     1.0000 0.02566  0.37500  0.37500  Biso   1.000  Cl
  Cl26     1.0000 0.72434  0.37500  0.37500  Biso   1.000  Cl
  Cl27     1.0000 0.22434  0.87500  0.87500  Biso   1.000  Cl
  Cl28     1.0000 0.72434  0.87500  0.37500  Biso   1.000  Cl
  Cl29     1.0000 0.72434  0.37500  0.87500  Biso   1.000  Cl
  Cl30     1.0000 0.47434  0.12500  0.62500  Biso   1.000  Cl
  Cl31     1.0000 0.47434  0.62500  0.12500  Biso   1.000  Cl
  Cl32     1.0000 0.27566  0.12500  0.12500  Biso   1.000  Cl
  O57      1.0000 0.73440  0.16310  0.10240  Biso   1.000  O
  O58      1.0000 0.73440  0.66310  0.60240  Biso   1.000  O
  O59      1.0000 0.73440  0.08690  0.14760  Biso   1.000  O
  O60      1.0000 0.23440  0.16310  0.60240  Biso   1.000  O
  O61      1.0000 0.51560  0.16310  0.14760  Biso   1.000  O
  O62      1.0000 0.23440  0.66310  0.10240  Biso   1.000  O
  O63      1.0000 0.51560  0.08690  0.10240  Biso   1.000  O
  O64      1.0000 0.98440  0.41310  0.89760  Biso   1.000  O
  O65      1.0000 0.98440  0.83690  0.35240  Biso   1.000  O
  O66      1.0000 0.26560  0.41310  0.35240  Biso   1.000  O
  O67      1.0000 0.98440  0.41310  0.39760  Biso   1.000  O
  O68      1.0000 0.98440  0.33690  0.35240  Biso   1.000  O
  O69      1.0000 0.76560  0.41310  0.35240  Biso   1.000  O
  O70      1.0000 0.26560  0.83690  0.89760  Biso   1.000  O
  O71      1.0000 0.26560  0.33690  0.39760  Biso   1.000  O
  O72      1.0000 0.76560  0.83690  0.39760  Biso   1.000  O
  O73      1.0000 0.76560  0.33690  0.89760  Biso   1.000  O
  O74      1.0000 0.51560  0.08690  0.60240  Biso   1.000  O
  O75      1.0000 0.51560  0.66310  0.14760  Biso   1.000  O
  O76      1.0000 0.23440  0.08690  0.14760  Biso   1.000  O
  O77      1.0000 0.81550  0.09550  0.09730  Biso   1.000  O
  O78      1.0000 0.81550  0.59550  0.59730  Biso   1.000  O
  O79      1.0000 0.81550  0.15450  0.15270  Biso   1.000  O
  O80      1.0000 0.31550  0.09550  0.59730  Biso   1.000  O
  O81      1.0000 0.43450  0.09550  0.15270  Biso   1.000  O
  O82      1.0000 0.31550  0.59550  0.09730  Biso   1.000  O
  O83      1.0000 0.43450  0.15450  0.09730  Biso   1.000  O
  O84      1.0000 0.06550  0.34550  0.90270  Biso   1.000  O
  O85      1.0000 0.06550  0.90450  0.34730  Biso   1.000  O
  O86      1.0000 0.18450  0.34550  0.34730  Biso   1.000  O
  O87      1.0000 0.06550  0.34550  0.40270  Biso   1.000  O
  O88      1.0000 0.06550  0.40450  0.34730  Biso   1.000  O
  O89      1.0000 0.68450  0.34550  0.34730  Biso   1.000  O
  O90      1.0000 0.18450  0.90450  0.90270  Biso   1.000  O
  O91      1.0000 0.18450  0.40450  0.40270  Biso   1.000  O
  O92      1.0000 0.68450  0.90450  0.40270  Biso   1.000  O
  O93      1.0000 0.68450  0.40450  0.90270  Biso   1.000  O
  O94      1.0000 0.43450  0.15450  0.59730  Biso   1.000  O
  O95      1.0000 0.43450  0.59550  0.15270  Biso   1.000  O
  O96      1.0000 0.31550  0.15450  0.15270  Biso   1.000  O
  O97      1.0000 0.33460  0.53980  0.01380  Biso   1.000  O
  O98      1.0000 0.33460  0.03980  0.51380  Biso   1.000  O
  O99      1.0000 0.33460  0.71020  0.23620  Biso   1.000  O
  O100     1.0000 0.83460  0.53980  0.51380  Biso   1.000  O
  O101     1.0000 0.91540  0.53980  0.23620  Biso   1.000  O
  O102     1.0000 0.83460  0.03980  0.01380  Biso   1.000  O
  O103     1.0000 0.91540  0.71020  0.01380  Biso   1.000  O
  O104     1.0000 0.58460  0.78980  0.98620  Biso   1.000  O
  O105     1.0000 0.58460  0.46020  0.26380  Biso   1.000  O
  O106     1.0000 0.66540  0.78980  0.26380  Biso   1.000  O
  O107     1.0000 0.58460  0.78980  0.48620  Biso   1.000  O
  O108     1.0000 0.58460  0.96020  0.26380  Biso   1.000  O
  O109     1.0000 0.16540  0.78980  0.26380  Biso   1.000  O
  O110     1.0000 0.66540  0.46020  0.98620  Biso   1.000  O
  O111     1.0000 0.66540  0.96020  0.48620  Biso   1.000  O
  O112     1.0000 0.16540  0.46020  0.48620  Biso   1.000  O
  O113     1.0000 0.16540  0.96020  0.98620  Biso   1.000  O
  O114     1.0000 0.91540  0.71020  0.51380  Biso   1.000  O
  O115     1.0000 0.91540  0.03980  0.23620  Biso   1.000  O
  O116     1.0000 0.83460  0.71020  0.23620  Biso   1.000  O
  H241     1.0000 0.33800  0.54900  0.03700  Biso   1.000  H
  H242     1.0000 0.33800  0.04900  0.53700  Biso   1.000  H
  H243     1.0000 0.33800  0.70100  0.21300  Biso   1.000  H
  H244     1.0000 0.83800  0.54900  0.53700  Biso   1.000  H
  H245     1.0000 0.91200  0.54900  0.21300  Biso   1.000  H
  H246     1.0000 0.83800  0.04900  0.03700  Biso   1.000  H
  H247     1.0000 0.91200  0.70100  0.03700  Biso   1.000  H
  H248     1.0000 0.58800  0.79900  0.96300  Biso   1.000  H
  H249     1.0000 0.58800  0.45100  0.28700  Biso   1.000  H
  H250     1.0000 0.66200  0.79900  0.28700  Biso   1.000  H
  H251     1.0000 0.58800  0.79900  0.46300  Biso   1.000  H
  H252     1.0000 0.58800  0.95100  0.28700  Biso   1.000  H
  H253     1.0000 0.16200  0.79900  0.28700  Biso   1.000  H
  H254     1.0000 0.66200  0.45100  0.96300  Biso   1.000  H
  H255     1.0000 0.66200  0.95100  0.46300  Biso   1.000  H
  H256     1.0000 0.16200  0.45100  0.46300  Biso   1.000  H
  H257     1.0000 0.16200  0.95100  0.96300  Biso   1.000  H
  H258     1.0000 0.91200  0.70100  0.53700  Biso   1.000  H
  H259     1.0000 0.91200  0.04900  0.21300  Biso   1.000  H
  H260     1.0000 0.83800  0.70100  0.21300  Biso   1.000  H
  H261     1.0000 0.32500  0.50600  0.01600  Biso   1.000  H
  H262     1.0000 0.32500  0.00600  0.51600  Biso   1.000  H
  H263     1.0000 0.32500  0.74400  0.23400  Biso   1.000  H
  H264     1.0000 0.82500  0.50600  0.51600  Biso   1.000  H
  H265     1.0000 0.92500  0.50600  0.23400  Biso   1.000  H
  H266     1.0000 0.82500  0.00600  0.01600  Biso   1.000  H
  H267     1.0000 0.92500  0.74400  0.01600  Biso   1.000  H
  H268     1.0000 0.57500  0.75600  0.98400  Biso   1.000  H
  H269     1.0000 0.57500  0.49400  0.26600  Biso   1.000  H
  H270     1.0000 0.67500  0.75600  0.26600  Biso   1.000  H
  H271     1.0000 0.57500  0.75600  0.48400  Biso   1.000  H
  H272     1.0000 0.57500  0.99400  0.26600  Biso   1.000  H
  H273     1.0000 0.17500  0.75600  0.26600  Biso   1.000  H
  H274     1.0000 0.67500  0.49400  0.98400  Biso   1.000  H
  H275     1.0000 0.67500  0.99400  0.48400  Biso   1.000  H
  H276     1.0000 0.17500  0.49400  0.48400  Biso   1.000  H
  H277     1.0000 0.17500  0.99400  0.98400  Biso   1.000  H
  H278     1.0000 0.92500  0.74400  0.51600  Biso   1.000  H
  H279     1.0000 0.92500  0.00600  0.23400  Biso   1.000  H
  H280     1.0000 0.82500  0.74400  0.23400  Biso   1.000  H
  C301     1.0000 0.22960  0.59320  0.62553  Biso   1.000  C
  C302     1.0000 0.72960  0.09320  0.62553  Biso   1.000  C
  C303     1.0000 0.72960  0.59320  0.12553  Biso   1.000  C
  C304     1.0000 0.47960  0.34320  0.87447  Biso   1.000  C
  C305     1.0000 0.47960  0.90680  0.37553  Biso   1.000  C
  C306     1.0000 0.27040  0.34320  0.37553  Biso   1.000  C
  C307     1.0000 0.77040  0.90680  0.87447  Biso   1.000  C
  C308     1.0000 0.27040  0.90680  0.37447  Biso   1.000  C
  C309     1.0000 0.27040  0.40680  0.87447  Biso   1.000  C
  C310     1.0000 0.02040  0.15680  0.62553  Biso   1.000  C
  C311     1.0000 0.02040  0.59320  0.12447  Biso   1.000  C
  C312     1.0000 0.72960  0.15680  0.12447  Biso   1.000  C
  C313     1.0000 0.25060  0.56370  0.66277  Biso   1.000  C
  C314     1.0000 0.75060  0.06370  0.66277  Biso   1.000  C
  C315     1.0000 0.75060  0.56370  0.16277  Biso   1.000  C
  C316     1.0000 0.50060  0.31370  0.83723  Biso   1.000  C
  C317     1.0000 0.50060  0.93630  0.41277  Biso   1.000  C
  C318     1.0000 0.24940  0.31370  0.41277  Biso   1.000  C
  C319     1.0000 0.74940  0.93630  0.83723  Biso   1.000  C
  C320     1.0000 0.24940  0.93630  0.33723  Biso   1.000  C
  C321     1.0000 0.24940  0.43630  0.83723  Biso   1.000  C
  C322     1.0000 0.99940  0.18630  0.66277  Biso   1.000  C
  C323     1.0000 0.99940  0.56370  0.08723  Biso   1.000  C
  C324     1.0000 0.75060  0.18630  0.08723  Biso   1.000  C
  C325     1.0000 0.24990  0.50460  0.66292  Biso   1.000  C
  C326     1.0000 0.74990  0.00460  0.66292  Biso   1.000  C
  C327     1.0000 0.74990  0.50460  0.16292  Biso   1.000  C
  C328     1.0000 0.49990  0.25460  0.83708  Biso   1.000  C
  C329     1.0000 0.49990  0.99540  0.41292  Biso   1.000  C
  C330     1.0000 0.25010  0.25460  0.41292  Biso   1.000  C
  C331     1.0000 0.75010  0.99540  0.83708  Biso   1.000  C
  C332     1.0000 0.25010  0.99540  0.33708  Biso   1.000  C
  C333     1.0000 0.25010  0.49540  0.83708  Biso   1.000  C
  C334     1.0000 0.00010  0.24540  0.66292  Biso   1.000  C
  C335     1.0000 0.00010  0.50460  0.08708  Biso   1.000  C
  C336     1.0000 0.74990  0.24540  0.08708  Biso   1.000  C
  N61      1.0000 0.22920  0.47358  0.62830  Biso   1.000  N
  N62      1.0000 0.72920  0.97358  0.62830  Biso   1.000  N
  N63      1.0000 0.72920  0.47358  0.12830  Biso   1.000  N
  N64      1.0000 0.47920  0.22358  0.87170  Biso   1.000  N
  N65      1.0000 0.47920  0.02642  0.37830  Biso   1.000  N
  N66      1.0000 0.27080  0.22358  0.37830  Biso   1.000  N
  N67      1.0000 0.77080  0.02642  0.87170  Biso   1.000  N
  N68      1.0000 0.27080  0.02642  0.37170  Biso   1.000  N
  N69      1.0000 0.27080  0.52642  0.87170  Biso   1.000  N
  N70      1.0000 0.02080  0.27642  0.62830  Biso   1.000  N
  N71      1.0000 0.02080  0.47358  0.12170  Biso   1.000  N
  N72      1.0000 0.72920  0.27642  0.12170  Biso   1.000  N
  C337     1.0000 0.20770  0.50240  0.59255  Biso   1.000  C
  C338     1.0000 0.70770  0.00240  0.59255  Biso   1.000  C
  C339     1.0000 0.70770  0.50240  0.09255  Biso   1.000  C
  C340     1.0000 0.45770  0.25240  0.90745  Biso   1.000  C
  C341     1.0000 0.45770  0.99760  0.34255  Biso   1.000  C
  C342     1.0000 0.29230  0.25240  0.34255  Biso   1.000  C
  C343     1.0000 0.79230  0.99760  0.90745  Biso   1.000  C
  C344     1.0000 0.29230  0.99760  0.40745  Biso   1.000  C
  C345     1.0000 0.29230  0.49760  0.90745  Biso   1.000  C
  C346     1.0000 0.04230  0.24760  0.59255  Biso   1.000  C
  C347     1.0000 0.04230  0.50240  0.15745  Biso   1.000  C
  C348     1.0000 0.70770  0.24760  0.15745  Biso   1.000  C
  H281     1.0000 0.19180  0.48160  0.56840  Biso   1.000  H
  H282     1.0000 0.69180  0.98160  0.56840  Biso   1.000  H
  H283     1.0000 0.69180  0.48160  0.06840  Biso   1.000  H
  H284     1.0000 0.44180  0.23160  0.93160  Biso   1.000  H
  H285     1.0000 0.44180  0.01840  0.31840  Biso   1.000  H
  H286     1.0000 0.30820  0.23160  0.31840  Biso   1.000  H
  H287     1.0000 0.80820  0.01840  0.93160  Biso   1.000  H
  H288     1.0000 0.30820  0.01840  0.43160  Biso   1.000  H
  H289     1.0000 0.30820  0.51840  0.93160  Biso   1.000  H
  H290     1.0000 0.05820  0.26840  0.56840  Biso   1.000  H
  H291     1.0000 0.05820  0.48160  0.18160  Biso   1.000  H
  H292     1.0000 0.69180  0.26840  0.18160  Biso   1.000  H
  C349     1.0000 0.20790  0.56110  0.59001  Biso   1.000  C
  C350     1.0000 0.70790  0.06110  0.59001  Biso   1.000  C
  C351     1.0000 0.70790  0.56110  0.09001  Biso   1.000  C
  C352     1.0000 0.45790  0.31110  0.90999  Biso   1.000  C
  C353     1.0000 0.45790  0.93890  0.34001  Biso   1.000  C
  C354     1.0000 0.29210  0.31110  0.34001  Biso   1.000  C
  C355     1.0000 0.79210  0.93890  0.90999  Biso   1.000  C
  C356     1.0000 0.29210  0.93890  0.40999  Biso   1.000  C
  C357     1.0000 0.29210  0.43890  0.90999  Biso   1.000  C
  C358     1.0000 0.04210  0.18890  0.59001  Biso   1.000  C
  C359     1.0000 0.04210  0.56110  0.15999  Biso   1.000  C
  C360     1.0000 0.70790  0.18890  0.15999  Biso   1.000  C
  H293     1.0000 0.19350  0.57910  0.56430  Biso   1.000  H
  H294     1.0000 0.69350  0.07910  0.56430  Biso   1.000  H
  H295     1.0000 0.69350  0.57910  0.06430  Biso   1.000  H
  H296     1.0000 0.44350  0.32910  0.93570  Biso   1.000  H
  H297     1.0000 0.44350  0.92090  0.31430  Biso   1.000  H
  H298     1.0000 0.30650  0.32910  0.31430  Biso   1.000  H
  H299     1.0000 0.80650  0.92090  0.93570  Biso   1.000  H
  H300     1.0000 0.30650  0.92090  0.43570  Biso   1.000  H
  H301     1.0000 0.30650  0.42090  0.93570  Biso   1.000  H
  H302     1.0000 0.05650  0.17090  0.56430  Biso   1.000  H
  H303     1.0000 0.05650  0.57910  0.18570  Biso   1.000  H
  H304     1.0000 0.69350  0.17090  0.18570  Biso   1.000  H
  H305     1.0000 0.26440  0.48560  0.68820  Biso   1.000  H
  H306     1.0000 0.76440  0.98560  0.68820  Biso   1.000  H
  H307     1.0000 0.76440  0.48560  0.18820  Biso   1.000  H
  H308     1.0000 0.51440  0.23560  0.81180  Biso   1.000  H
  H309     1.0000 0.51440  0.01440  0.43820  Biso   1.000  H
  H310     1.0000 0.23560  0.23560  0.43820  Biso   1.000  H
  H311     1.0000 0.73560  0.01440  0.81180  Biso   1.000  H
  H312     1.0000 0.23560  0.01440  0.31180  Biso   1.000  H
  H313     1.0000 0.23560  0.51440  0.81180  Biso   1.000  H
  H314     1.0000 0.98560  0.26440  0.68820  Biso   1.000  H
  H315     1.0000 0.98560  0.48560  0.06180  Biso   1.000  H
  H316     1.0000 0.76440  0.26440  0.06180  Biso   1.000  H
  H317     1.0000 0.26510  0.58360  0.68770  Biso   1.000  H
  H318     1.0000 0.76510  0.08360  0.68770  Biso   1.000  H
  H319     1.0000 0.76510  0.58360  0.18770  Biso   1.000  H
  H320     1.0000 0.51510  0.33360  0.81230  Biso   1.000  H
  H321     1.0000 0.51510  0.91640  0.43770  Biso   1.000  H
  H322     1.0000 0.23490  0.33360  0.43770  Biso   1.000  H
  H323     1.0000 0.73490  0.91640  0.81230  Biso   1.000  H
  H324     1.0000 0.23490  0.91640  0.31230  Biso   1.000  H
  H325     1.0000 0.23490  0.41640  0.81230  Biso   1.000  H
  H326     1.0000 0.98490  0.16640  0.68770  Biso   1.000  H
  H327     1.0000 0.98490  0.58360  0.06230  Biso   1.000  H
  H328     1.0000 0.76510  0.16640  0.06230  Biso   1.000  H
  O117     1.0000 0.42730  0.32820  0.01950  Biso   1.000  O
  O118     1.0000 0.42730  0.82820  0.51950  Biso   1.000  O
  O119     1.0000 0.42730  0.92180  0.23050  Biso   1.000  O
  O120     1.0000 0.92730  0.32820  0.51950  Biso   1.000  O
  O121     1.0000 0.82270  0.32820  0.23050  Biso   1.000  O
  O122     1.0000 0.67730  0.57820  0.48050  Biso   1.000  O
  O123     1.0000 0.67730  0.17180  0.26950  Biso   1.000  O
  O124     1.0000 0.07270  0.57820  0.26950  Biso   1.000  O
  O125     1.0000 0.57270  0.17180  0.48050  Biso   1.000  O
  O126     1.0000 0.07270  0.67180  0.48050  Biso   1.000  O
  O127     1.0000 0.07270  0.17180  0.98050  Biso   1.000  O
  O128     1.0000 0.82270  0.92180  0.51950  Biso   1.000  O
  O129     1.0000 0.42420  0.40620  0.00790  Biso   1.000  O
  O130     1.0000 0.42420  0.90620  0.50790  Biso   1.000  O
  O131     1.0000 0.42420  0.84380  0.24210  Biso   1.000  O
  O132     1.0000 0.92420  0.40620  0.50790  Biso   1.000  O
  O133     1.0000 0.82580  0.40620  0.24210  Biso   1.000  O
  O134     1.0000 0.67420  0.65620  0.49210  Biso   1.000  O
  O135     1.0000 0.67420  0.09380  0.25790  Biso   1.000  O
  O136     1.0000 0.07580  0.65620  0.25790  Biso   1.000  O
  O137     1.0000 0.57580  0.09380  0.49210  Biso   1.000  O
  O138     1.0000 0.07580  0.59380  0.49210  Biso   1.000  O
  O139     1.0000 0.07580  0.09380  0.99210  Biso   1.000  O
  O140     1.0000 0.82580  0.84380  0.50790  Biso   1.000  O
  O141     1.0000 0.73440  0.58690  0.64760  Biso   1.000  O
  O142     1.0000 0.23440  0.08690  0.64760  Biso   1.000  O
  O143     1.0000 0.23440  0.58690  0.14760  Biso   1.000  O
  O144     1.0000 0.98440  0.33690  0.85240  Biso   1.000  O
  O145     1.0000 0.98440  0.91310  0.39760  Biso   1.000  O
  O146     1.0000 0.76560  0.33690  0.39760  Biso   1.000  O
  O147     1.0000 0.26560  0.91310  0.85240  Biso   1.000  O
  O148     1.0000 0.76560  0.91310  0.35240  Biso   1.000  O
  O149     1.0000 0.76560  0.41310  0.85240  Biso   1.000  O
  O150     1.0000 0.51560  0.16310  0.64760  Biso   1.000  O
  O151     1.0000 0.51560  0.58690  0.10240  Biso   1.000  O
  O152     1.0000 0.23440  0.16310  0.10240  Biso   1.000  O
  O153     1.0000 0.81550  0.65450  0.65270  Biso   1.000  O
  O154     1.0000 0.31550  0.15450  0.65270  Biso   1.000  O
  O155     1.0000 0.31550  0.65450  0.15270  Biso   1.000  O
  O156     1.0000 0.06550  0.40450  0.84730  Biso   1.000  O
  O157     1.0000 0.06550  0.84550  0.40270  Biso   1.000  O
  O158     1.0000 0.68450  0.40450  0.40270  Biso   1.000  O
  O159     1.0000 0.18450  0.84550  0.84730  Biso   1.000  O
  O160     1.0000 0.68450  0.84550  0.34730  Biso   1.000  O
  O161     1.0000 0.68450  0.34550  0.84730  Biso   1.000  O
  O162     1.0000 0.43450  0.09550  0.65270  Biso   1.000  O
  O163     1.0000 0.43450  0.65450  0.09730  Biso   1.000  O
  O164     1.0000 0.31550  0.09550  0.09730  Biso   1.000  O
  N73      1.0000 0.03780  0.59458  0.91730  Biso   1.000  N
  N74      1.0000 0.03780  0.09458  0.41730  Biso   1.000  N
  N75      1.0000 0.03780  0.65542  0.33270  Biso   1.000  N
  N76      1.0000 0.53780  0.09458  0.91730  Biso   1.000  N
  N77      1.0000 0.21220  0.65542  0.91730  Biso   1.000  N
  N78      1.0000 0.28780  0.84458  0.58270  Biso   1.000  N
  N79      1.0000 0.28780  0.90542  0.16730  Biso   1.000  N
  N80      1.0000 0.46220  0.84458  0.16730  Biso   1.000  N
  N81      1.0000 0.96220  0.90542  0.58270  Biso   1.000  N
  N82      1.0000 0.46220  0.40542  0.58270  Biso   1.000  N
  N83      1.0000 0.46220  0.90542  0.08270  Biso   1.000  N
  N84      1.0000 0.21220  0.09458  0.33270  Biso   1.000  N
  N85      1.0000 0.18710  0.41173  0.07842  Biso   1.000  N
  N86      1.0000 0.18710  0.91173  0.57842  Biso   1.000  N
  N87      1.0000 0.18710  0.83827  0.17158  Biso   1.000  N
  N88      1.0000 0.68710  0.91173  0.07842  Biso   1.000  N
  N89      1.0000 0.06290  0.83827  0.07842  Biso   1.000  N
  N90      1.0000 0.43710  0.66173  0.42158  Biso   1.000  N
  N91      1.0000 0.43710  0.08827  0.32842  Biso   1.000  N
  N92      1.0000 0.31290  0.66173  0.32842  Biso   1.000  N
  N93      1.0000 0.81290  0.08827  0.42158  Biso   1.000  N
  N94      1.0000 0.31290  0.58827  0.42158  Biso   1.000  N
  N95      1.0000 0.31290  0.08827  0.92158  Biso   1.000  N
  N96      1.0000 0.06290  0.91173  0.17158  Biso   1.000  N
  C361     1.0000 0.07660  0.54870  0.90647  Biso   1.000  C
  C362     1.0000 0.07660  0.04870  0.40647  Biso   1.000  C
  C363     1.0000 0.07660  0.70130  0.34353  Biso   1.000  C
  C364     1.0000 0.57660  0.04870  0.90647  Biso   1.000  C
  C365     1.0000 0.17340  0.70130  0.90647  Biso   1.000  C
  C366     1.0000 0.32660  0.79870  0.59353  Biso   1.000  C
  C367     1.0000 0.32660  0.95130  0.15647  Biso   1.000  C
  C368     1.0000 0.42340  0.79870  0.15647  Biso   1.000  C
  C369     1.0000 0.92340  0.95130  0.59353  Biso   1.000  C
  C370     1.0000 0.42340  0.45130  0.59353  Biso   1.000  C
  C371     1.0000 0.42340  0.95130  0.09353  Biso   1.000  C
  C372     1.0000 0.17340  0.04870  0.34353  Biso   1.000  C
  H329     1.0000 0.08360  0.54100  0.87680  Biso   1.000  H
  H330     1.0000 0.08360  0.04100  0.37680  Biso   1.000  H
  H331     1.0000 0.08360  0.70900  0.37320  Biso   1.000  H
  H332     1.0000 0.58360  0.04100  0.87680  Biso   1.000  H
  H333     1.0000 0.16640  0.70900  0.87680  Biso   1.000  H
  H334     1.0000 0.33360  0.79100  0.62320  Biso   1.000  H
  H335     1.0000 0.33360  0.95900  0.12680  Biso   1.000  H
  H336     1.0000 0.41640  0.79100  0.12680  Biso   1.000  H
  H337     1.0000 0.91640  0.95900  0.62320  Biso   1.000  H
  H338     1.0000 0.41640  0.45900  0.62320  Biso   1.000  H
  H339     1.0000 0.41640  0.95900  0.12320  Biso   1.000  H
  H340     1.0000 0.16640  0.04100  0.37320  Biso   1.000  H
  C373     1.0000 0.10640  0.51250  0.93631  Biso   1.000  C
  C374     1.0000 0.10640  0.01250  0.43631  Biso   1.000  C
  C375     1.0000 0.10640  0.73750  0.31369  Biso   1.000  C
  C376     1.0000 0.60640  0.01250  0.93631  Biso   1.000  C
  C377     1.0000 0.14360  0.73750  0.93631  Biso   1.000  C
  C378     1.0000 0.35640  0.76250  0.56369  Biso   1.000  C
  C379     1.0000 0.35640  0.98750  0.18631  Biso   1.000  C
  C380     1.0000 0.39360  0.76250  0.18631  Biso   1.000  C
  C381     1.0000 0.89360  0.98750  0.56369  Biso   1.000  C
  C382     1.0000 0.39360  0.48750  0.56369  Biso   1.000  C
  C383     1.0000 0.39360  0.98750  0.06369  Biso   1.000  C
  C384     1.0000 0.14360  0.01250  0.31369  Biso   1.000  C
  H341     1.0000 0.13220  0.48090  0.92670  Biso   1.000  H
  H342     1.0000 0.13220  0.98090  0.42670  Biso   1.000  H
  H343     1.0000 0.13220  0.76910  0.32330  Biso   1.000  H
  H344     1.0000 0.63220  0.98090  0.92670  Biso   1.000  H
  H345     1.0000 0.11780  0.76910  0.92670  Biso   1.000  H
  H346     1.0000 0.38220  0.73090  0.57330  Biso   1.000  H
  H347     1.0000 0.38220  0.01910  0.17670  Biso   1.000  H
  H348     1.0000 0.36780  0.73090  0.17670  Biso   1.000  H
  H349     1.0000 0.86780  0.01910  0.57330  Biso   1.000  H
  H350     1.0000 0.36780  0.51910  0.57330  Biso   1.000  H
  H351     1.0000 0.36780  0.01910  0.07330  Biso   1.000  H
  H352     1.0000 0.11780  0.98090  0.32330  Biso   1.000  H
  C385     1.0000 0.03090  0.60490  0.96022  Biso   1.000  C
  C386     1.0000 0.03090  0.10490  0.46022  Biso   1.000  C
  C387     1.0000 0.03090  0.64510  0.28978  Biso   1.000  C
  C388     1.0000 0.53090  0.10490  0.96022  Biso   1.000  C
  C389     1.0000 0.21910  0.64510  0.96022  Biso   1.000  C
  C390     1.0000 0.28090  0.85490  0.53978  Biso   1.000  C
  C391     1.0000 0.28090  0.89510  0.21022  Biso   1.000  C
  C392     1.0000 0.46910  0.85490  0.21022  Biso   1.000  C
  C393     1.0000 0.96910  0.89510  0.53978  Biso   1.000  C
  C394     1.0000 0.46910  0.39510  0.53978  Biso   1.000  C
  C395     1.0000 0.46910  0.89510  0.03978  Biso   1.000  C
  C396     1.0000 0.21910  0.10490  0.28978  Biso   1.000  C
  H353     1.0000 0.00550  0.63720  0.96870  Biso   1.000  H
  H354     1.0000 0.00550  0.13720  0.46870  Biso   1.000  H
  H355     1.0000 0.00550  0.61280  0.28130  Biso   1.000  H
  H356     1.0000 0.50550  0.13720  0.96870  Biso   1.000  H
  H357     1.0000 0.24450  0.61280  0.96870  Biso   1.000  H
  H358     1.0000 0.25550  0.88720  0.53130  Biso   1.000  H
  H359     1.0000 0.25550  0.86280  0.21870  Biso   1.000  H
  H360     1.0000 0.49450  0.88720  0.21870  Biso   1.000  H
  H361     1.0000 0.99450  0.86280  0.53130  Biso   1.000  H
  H362     1.0000 0.49450  0.36280  0.53130  Biso   1.000  H
  H363     1.0000 0.49450  0.86280  0.03130  Biso   1.000  H
  H364     1.0000 0.24450  0.13720  0.28130  Biso   1.000  H
  C397     1.0000 0.05900  0.57090  0.99246  Biso   1.000  C
  C398     1.0000 0.05900  0.07090  0.49246  Biso   1.000  C
  C399     1.0000 0.05900  0.67910  0.25754  Biso   1.000  C
  C400     1.0000 0.55900  0.07090  0.99246  Biso   1.000  C
  C401     1.0000 0.19100  0.67910  0.99246  Biso   1.000  C
  C402     1.0000 0.30900  0.82090  0.50754  Biso   1.000  C
  C403     1.0000 0.30900  0.92910  0.24246  Biso   1.000  C
  C404     1.0000 0.44100  0.82090  0.24246  Biso   1.000  C
  C405     1.0000 0.94100  0.92910  0.50754  Biso   1.000  C
  C406     1.0000 0.44100  0.42910  0.50754  Biso   1.000  C
  C407     1.0000 0.44100  0.92910  0.00754  Biso   1.000  C
  C408     1.0000 0.19100  0.07090  0.25754  Biso   1.000  C
  H365     1.0000 0.05190  0.58000  0.02190  Biso   1.000  H
  H366     1.0000 0.05190  0.08000  0.52190  Biso   1.000  H
  H367     1.0000 0.05190  0.67000  0.22810  Biso   1.000  H
  H368     1.0000 0.55190  0.08000  0.02190  Biso   1.000  H
  H369     1.0000 0.19810  0.67000  0.02190  Biso   1.000  H
  H370     1.0000 0.30190  0.83000  0.47810  Biso   1.000  H
  H371     1.0000 0.30190  0.92000  0.27190  Biso   1.000  H
  H372     1.0000 0.44810  0.83000  0.27190  Biso   1.000  H
  H373     1.0000 0.94810  0.92000  0.47810  Biso   1.000  H
  H374     1.0000 0.44810  0.42000  0.47810  Biso   1.000  H
  H375     1.0000 0.44810  0.92000  0.97810  Biso   1.000  H
  H376     1.0000 0.19810  0.08000  0.22810  Biso   1.000  H
  C409     1.0000 0.09840  0.52260  0.98094  Biso   1.000  C
  C410     1.0000 0.09840  0.02260  0.48094  Biso   1.000  C
  C411     1.0000 0.09840  0.72740  0.26906  Biso   1.000  C
  C412     1.0000 0.59840  0.02260  0.98094  Biso   1.000  C
  C413     1.0000 0.15160  0.72740  0.98094  Biso   1.000  C
  C414     1.0000 0.34840  0.77260  0.51906  Biso   1.000  C
  C415     1.0000 0.34840  0.97740  0.23094  Biso   1.000  C
  C416     1.0000 0.40160  0.77260  0.23094  Biso   1.000  C
  C417     1.0000 0.90160  0.97740  0.51906  Biso   1.000  C
  C418     1.0000 0.40160  0.47740  0.51906  Biso   1.000  C
  C419     1.0000 0.40160  0.97740  0.01906  Biso   1.000  C
  C420     1.0000 0.15160  0.02260  0.26906  Biso   1.000  C
  C421     1.0000 0.12950  0.48490  0.01475  Biso   1.000  C
  C422     1.0000 0.12950  0.98490  0.51475  Biso   1.000  C
  C423     1.0000 0.12950  0.76510  0.23525  Biso   1.000  C
  C424     1.0000 0.62950  0.98490  0.01475  Biso   1.000  C
  C425     1.0000 0.12050  0.76510  0.01475  Biso   1.000  C
  C426     1.0000 0.37950  0.73490  0.48525  Biso   1.000  C
  C427     1.0000 0.37950  0.01510  0.26475  Biso   1.000  C
  C428     1.0000 0.37050  0.73490  0.26475  Biso   1.000  C
  C429     1.0000 0.87050  0.01510  0.48525  Biso   1.000  C
  C430     1.0000 0.37050  0.51510  0.48525  Biso   1.000  C
  C431     1.0000 0.37050  0.01510  0.98525  Biso   1.000  C
  C432     1.0000 0.12050  0.98490  0.23525  Biso   1.000  C
  C433     1.0000 0.15420  0.50540  0.05455  Biso   1.000  C
  C434     1.0000 0.15420  0.00540  0.55455  Biso   1.000  C
  C435     1.0000 0.15420  0.74460  0.19545  Biso   1.000  C
  C436     1.0000 0.65420  0.00540  0.05455  Biso   1.000  C
  C437     1.0000 0.09580  0.74460  0.05455  Biso   1.000  C
  C438     1.0000 0.40420  0.75540  0.44545  Biso   1.000  C
  C439     1.0000 0.40420  0.99460  0.30455  Biso   1.000  C
  C440     1.0000 0.34580  0.75540  0.30455  Biso   1.000  C
  C441     1.0000 0.84580  0.99460  0.44545  Biso   1.000  C
  C442     1.0000 0.34580  0.49460  0.44545  Biso   1.000  C
  C443     1.0000 0.34580  0.99460  0.94545  Biso   1.000  C
  C444     1.0000 0.09580  0.00540  0.19545  Biso   1.000  C
  H377     1.0000 0.15200  0.54430  0.06070  Biso   1.000  H
  H378     1.0000 0.15200  0.04430  0.56070  Biso   1.000  H
  H379     1.0000 0.15200  0.70570  0.18930  Biso   1.000  H
  H380     1.0000 0.65200  0.04430  0.06070  Biso   1.000  H
  H381     1.0000 0.09800  0.70570  0.06070  Biso   1.000  H
  H382     1.0000 0.40200  0.79430  0.43930  Biso   1.000  H
  H383     1.0000 0.40200  0.95570  0.31070  Biso   1.000  H
  H384     1.0000 0.34800  0.79430  0.31070  Biso   1.000  H
  H385     1.0000 0.84800  0.95570  0.43930  Biso   1.000  H
  H386     1.0000 0.34800  0.45570  0.43930  Biso   1.000  H
  H387     1.0000 0.34800  0.95570  0.93930  Biso   1.000  H
  H388     1.0000 0.09800  0.04430  0.18930  Biso   1.000  H
  C445     1.0000 0.18210  0.46850  0.08479  Biso   1.000  C
  C446     1.0000 0.18210  0.96850  0.58479  Biso   1.000  C
  C447     1.0000 0.18210  0.78150  0.16521  Biso   1.000  C
  C448     1.0000 0.68210  0.96850  0.08479  Biso   1.000  C
  C449     1.0000 0.06790  0.78150  0.08479  Biso   1.000  C
  C450     1.0000 0.43210  0.71850  0.41521  Biso   1.000  C
  C451     1.0000 0.43210  0.03150  0.33479  Biso   1.000  C
  C452     1.0000 0.31790  0.71850  0.33479  Biso   1.000  C
  C453     1.0000 0.81790  0.03150  0.41521  Biso   1.000  C
  C454     1.0000 0.31790  0.53150  0.41521  Biso   1.000  C
  C455     1.0000 0.31790  0.03150  0.91521  Biso   1.000  C
  C456     1.0000 0.06790  0.96850  0.16521  Biso   1.000  C
  H389     1.0000 0.19840  0.48340  0.11130  Biso   1.000  H
  H390     1.0000 0.19840  0.98340  0.61130  Biso   1.000  H
  H391     1.0000 0.19840  0.76660  0.13870  Biso   1.000  H
  H392     1.0000 0.69840  0.98340  0.11130  Biso   1.000  H
  H393     1.0000 0.05160  0.76660  0.11130  Biso   1.000  H
  H394     1.0000 0.44840  0.73340  0.38870  Biso   1.000  H
  H395     1.0000 0.44840  0.01660  0.36130  Biso   1.000  H
  H396     1.0000 0.30160  0.73340  0.36130  Biso   1.000  H
  H397     1.0000 0.80160  0.01660  0.38870  Biso   1.000  H
  H398     1.0000 0.30160  0.51660  0.38870  Biso   1.000  H
  H399     1.0000 0.30160  0.01660  0.88870  Biso   1.000  H
  H400     1.0000 0.05160  0.98340  0.13870  Biso   1.000  H
  C457     1.0000 0.13560  0.42590  0.00745  Biso   1.000  C
  C458     1.0000 0.13560  0.92590  0.50745  Biso   1.000  C
  C459     1.0000 0.13560  0.82410  0.24255  Biso   1.000  C
  C460     1.0000 0.63560  0.92590  0.00745  Biso   1.000  C
  C461     1.0000 0.11440  0.82410  0.00745  Biso   1.000  C
  C462     1.0000 0.38560  0.67590  0.49255  Biso   1.000  C
  C463     1.0000 0.38560  0.07410  0.25745  Biso   1.000  C
  C464     1.0000 0.36440  0.67590  0.25745  Biso   1.000  C
  C465     1.0000 0.86440  0.07410  0.49255  Biso   1.000  C
  C466     1.0000 0.36440  0.57410  0.49255  Biso   1.000  C
  C467     1.0000 0.36440  0.07410  0.99255  Biso   1.000  C
  C468     1.0000 0.11440  0.92590  0.24255  Biso   1.000  C
  H401     1.0000 0.12090  0.41020  0.98090  Biso   1.000  H
  H402     1.0000 0.12090  0.91020  0.48090  Biso   1.000  H
  H403     1.0000 0.12090  0.83980  0.26910  Biso   1.000  H
  H404     1.0000 0.62090  0.91020  0.98090  Biso   1.000  H
  H405     1.0000 0.12910  0.83980  0.98090  Biso   1.000  H
  H406     1.0000 0.37090  0.66020  0.51910  Biso   1.000  H
  H407     1.0000 0.37090  0.08980  0.23090  Biso   1.000  H
  H408     1.0000 0.37910  0.66020  0.23090  Biso   1.000  H
  H409     1.0000 0.87910  0.08980  0.51910  Biso   1.000  H
  H410     1.0000 0.37910  0.58980  0.51910  Biso   1.000  H
  H411     1.0000 0.37910  0.08980  0.01910  Biso   1.000  H
  H412     1.0000 0.12910  0.91020  0.26910  Biso   1.000  H
  C469     1.0000 0.16360  0.39150  0.03969  Biso   1.000  C
  C470     1.0000 0.16360  0.89150  0.53969  Biso   1.000  C
  C471     1.0000 0.16360  0.85850  0.21031  Biso   1.000  C
  C472     1.0000 0.66360  0.89150  0.03969  Biso   1.000  C
  C473     1.0000 0.08640  0.85850  0.03969  Biso   1.000  C
  C474     1.0000 0.41360  0.64150  0.46031  Biso   1.000  C
  C475     1.0000 0.41360  0.10850  0.28969  Biso   1.000  C
  C476     1.0000 0.33640  0.64150  0.28969  Biso   1.000  C
  C477     1.0000 0.83640  0.10850  0.46031  Biso   1.000  C
  C478     1.0000 0.33640  0.60850  0.46031  Biso   1.000  C
  C479     1.0000 0.33640  0.10850  0.96031  Biso   1.000  C
  C480     1.0000 0.08640  0.89150  0.21031  Biso   1.000  C
  H413     1.0000 0.16640  0.35230  0.03450  Biso   1.000  H
  H414     1.0000 0.16640  0.85230  0.53450  Biso   1.000  H
  H415     1.0000 0.16640  0.89770  0.21550  Biso   1.000  H
  H416     1.0000 0.66640  0.85230  0.03450  Biso   1.000  H
  H417     1.0000 0.08360  0.89770  0.03450  Biso   1.000  H
  H418     1.0000 0.41640  0.60230  0.46550  Biso   1.000  H
  H419     1.0000 0.41640  0.14770  0.28450  Biso   1.000  H
  H420     1.0000 0.33360  0.60230  0.28450  Biso   1.000  H
  H421     1.0000 0.83360  0.14770  0.46550  Biso   1.000  H
  H422     1.0000 0.33360  0.64770  0.46550  Biso   1.000  H
  H423     1.0000 0.33360  0.14770  0.96550  Biso   1.000  H
  H424     1.0000 0.08360  0.85230  0.21550  Biso   1.000  H
  Cu21     1.0000 0.98583  0.63977  0.87145  Biso   1.000  Cu
  Cu22     1.0000 0.98583  0.13977  0.37145  Biso   1.000  Cu
  Cu23     1.0000 0.98583  0.61023  0.37855  Biso   1.000  Cu
  Cu24     1.0000 0.48583  0.13977  0.87145  Biso   1.000  Cu
  Cu25     1.0000 0.26417  0.61023  0.87145  Biso   1.000  Cu
  Cu26     1.0000 0.23583  0.88977  0.62855  Biso   1.000  Cu
  Cu27     1.0000 0.23583  0.86023  0.12145  Biso   1.000  Cu
  Cu28     1.0000 0.51417  0.88977  0.12145  Biso   1.000  Cu
  Cu29     1.0000 0.01417  0.86023  0.62855  Biso   1.000  Cu
  Cu30     1.0000 0.51417  0.36023  0.62855  Biso   1.000  Cu
  Cu31     1.0000 0.51417  0.86023  0.12855  Biso   1.000  Cu
  Cu32     1.0000 0.26417  0.13977  0.37855  Biso   1.000  Cu
  Cu33     1.0000 0.73583  0.88977  0.62855  Biso   1.000  Cu
  Cu34     1.0000 0.51417  0.88977  0.62145  Biso   1.000  Cu
  Cu35     1.0000 0.73583  0.86023  0.62145  Biso   1.000  Cu
  Cu36     1.0000 0.76417  0.61023  0.87145  Biso   1.000  Cu
  Cu37     1.0000 0.76417  0.13977  0.87855  Biso   1.000  Cu
  Cu38     1.0000 0.98583  0.61023  0.87855  Biso   1.000  Cu
  Cu39     1.0000 0.23583  0.38977  0.62855  Biso   1.000  Cu
  Cu40     1.0000 0.73583  0.38977  0.12855  Biso   1.000  Cu
  Cu41     1.0000 0.48583  0.11023  0.37855  Biso   1.000  Cu
  Cu42     1.0000 0.76417  0.11023  0.87145  Biso   1.000  Cu
  Cu43     1.0000 0.26417  0.11023  0.37145  Biso   1.000  Cu
  Cu44     1.0000 0.01417  0.36023  0.62855  Biso   1.000  Cu
  Cu45     1.0000 0.01417  0.38977  0.12145  Biso   1.000  Cu
  Cu46     1.0000 0.73583  0.36023  0.12145  Biso   1.000  Cu
  N97      1.0000 0.93710  0.66173  0.42158  Biso   1.000  N
  N98      1.0000 0.31290  0.66173  0.82842  Biso   1.000  N
  N99      1.0000 0.18710  0.83827  0.67158  Biso   1.000  N
  N100     1.0000 0.18710  0.91173  0.07842  Biso   1.000  N
  N101     1.0000 0.56290  0.83827  0.07842  Biso   1.000  N
  N102     1.0000 0.31290  0.08827  0.42158  Biso   1.000  N
  N103     1.0000 0.97920  0.72358  0.87170  Biso   1.000  N
  N104     1.0000 0.97920  0.22358  0.37170  Biso   1.000  N
  N105     1.0000 0.97920  0.52642  0.37830  Biso   1.000  N
  N106     1.0000 0.22920  0.97358  0.62830  Biso   1.000  N
  N107     1.0000 0.22920  0.77642  0.12170  Biso   1.000  N
  N108     1.0000 0.52080  0.97358  0.12170  Biso   1.000  N
  N109     1.0000 0.02080  0.77642  0.62830  Biso   1.000  N
  N110     1.0000 0.52080  0.27642  0.62830  Biso   1.000  N
  N111     1.0000 0.52080  0.77642  0.12830  Biso   1.000  N
