data_image0
_cell_length_a       14.923
_cell_length_b       14.923
_cell_length_c       14.923
_cell_angle_alpha    90
_cell_angle_beta     90
_cell_angle_gamma    90

_symmetry_space_group_name_H-M    "P 1"
_symmetry_int_tables_number       1

loop_
  _symmetry_equiv_pos_as_xyz
  'x, y, z'

loop_
  _atom_site_label
  _atom_site_occupancy
  _atom_site_fract_x
  _atom_site_fract_y
  _atom_site_fract_z
  _atom_site_thermal_displace_type
  _atom_site_B_iso_or_equiv
  _atom_site_type_symbol
  Cu1      1.0000 0.38532  0.50000  0.00000  Biso   1.000  Cu
  Cu2      1.0000 0.00000  0.38532  0.50000  Biso   1.000  Cu
  Cu3      1.0000 0.50000  0.00000  0.38532  Biso   1.000  Cu
  Cu4      1.0000 0.88532  0.00000  0.50000  Biso   1.000  Cu
  Cu5      1.0000 0.50000  0.88532  0.00000  Biso   1.000  Cu
  Cu6      1.0000 0.00000  0.50000  0.88532  Biso   1.000  Cu
  Cu7      1.0000 0.61468  0.50000  0.00000  Biso   1.000  Cu
  Cu8      1.0000 0.00000  0.61468  0.50000  Biso   1.000  Cu
  Cu9      1.0000 0.50000  0.00000  0.61468  Biso   1.000  Cu
  Cu10     1.0000 0.11468  0.00000  0.50000  Biso   1.000  Cu
  Cu11     1.0000 0.50000  0.11468  0.00000  Biso   1.000  Cu
  Cu12     1.0000 0.00000  0.50000  0.11468  Biso   1.000  Cu
  N1       1.0000 0.25340  0.50000  0.00000  Biso   1.000  N
  N2       1.0000 0.00000  0.25340  0.50000  Biso   1.000  N
  N3       1.0000 0.50000  0.00000  0.25340  Biso   1.000  N
  N4       1.0000 0.75340  0.00000  0.50000  Biso   1.000  N
  N5       1.0000 0.50000  0.75340  0.00000  Biso   1.000  N
  N6       1.0000 0.00000  0.50000  0.75340  Biso   1.000  N
  N7       1.0000 0.74660  0.50000  0.00000  Biso   1.000  N
  N8       1.0000 0.00000  0.74660  0.50000  Biso   1.000  N
  N9       1.0000 0.50000  0.00000  0.74660  Biso   1.000  N
  N10      1.0000 0.24660  0.00000  0.50000  Biso   1.000  N
  N11      1.0000 0.50000  0.24660  0.00000  Biso   1.000  N
  N12      1.0000 0.00000  0.50000  0.24660  Biso   1.000  N
  N13      1.0000 0.11210  0.50000  0.04570  Biso   1.000  N
  N14      1.0000 0.04570  0.11210  0.50000  Biso   1.000  N
  N15      1.0000 0.50000  0.04570  0.11210  Biso   1.000  N
  N16      1.0000 0.61210  0.00000  0.54570  Biso   1.000  N
  N17      1.0000 0.54570  0.61210  0.00000  Biso   1.000  N
  N18      1.0000 0.00000  0.54570  0.61210  Biso   1.000  N
  N19      1.0000 0.11210  0.50000  0.95430  Biso   1.000  N
  N20      1.0000 0.88790  0.50000  0.04570  Biso   1.000  N
  N21      1.0000 0.95430  0.11210  0.50000  Biso   1.000  N
  N22      1.0000 0.04570  0.88790  0.50000  Biso   1.000  N
  N23      1.0000 0.50000  0.95430  0.11210  Biso   1.000  N
  N24      1.0000 0.50000  0.04570  0.88790  Biso   1.000  N
  N25      1.0000 0.61210  0.00000  0.45430  Biso   1.000  N
  N26      1.0000 0.38790  0.00000  0.54570  Biso   1.000  N
  N27      1.0000 0.45430  0.61210  0.00000  Biso   1.000  N
  N28      1.0000 0.54570  0.38790  0.00000  Biso   1.000  N
  N29      1.0000 0.00000  0.45430  0.61210  Biso   1.000  N
  N30      1.0000 0.00000  0.54570  0.38790  Biso   1.000  N
  N31      1.0000 0.88790  0.50000  0.95430  Biso   1.000  N
  N32      1.0000 0.95430  0.88790  0.50000  Biso   1.000  N
  N33      1.0000 0.50000  0.95430  0.88790  Biso   1.000  N
  N34      1.0000 0.38790  0.00000  0.45430  Biso   1.000  N
  N35      1.0000 0.45430  0.38790  0.00000  Biso   1.000  N
  N36      1.0000 0.00000  0.45430  0.38790  Biso   1.000  N
  C1       1.0000 0.19730  0.50000  0.07050  Biso   1.000  C
  C2       1.0000 0.07050  0.19730  0.50000  Biso   1.000  C
  C3       1.0000 0.50000  0.07050  0.19730  Biso   1.000  C
  C4       1.0000 0.69730  0.00000  0.57050  Biso   1.000  C
  C5       1.0000 0.57050  0.69730  0.00000  Biso   1.000  C
  C6       1.0000 0.00000  0.57050  0.69730  Biso   1.000  C
  C7       1.0000 0.19730  0.50000  0.92950  Biso   1.000  C
  C8       1.0000 0.80270  0.50000  0.07050  Biso   1.000  C
  C9       1.0000 0.92950  0.19730  0.50000  Biso   1.000  C
  C10      1.0000 0.07050  0.80270  0.50000  Biso   1.000  C
  C11      1.0000 0.50000  0.92950  0.19730  Biso   1.000  C
  C12      1.0000 0.50000  0.07050  0.80270  Biso   1.000  C
  C13      1.0000 0.69730  0.00000  0.42950  Biso   1.000  C
  C14      1.0000 0.30270  0.00000  0.57050  Biso   1.000  C
  C15      1.0000 0.42950  0.69730  0.00000  Biso   1.000  C
  C16      1.0000 0.57050  0.30270  0.00000  Biso   1.000  C
  C17      1.0000 0.00000  0.42950  0.69730  Biso   1.000  C
  C18      1.0000 0.00000  0.57050  0.30270  Biso   1.000  C
  C19      1.0000 0.80270  0.50000  0.92950  Biso   1.000  C
  C20      1.0000 0.92950  0.80270  0.50000  Biso   1.000  C
  C21      1.0000 0.50000  0.92950  0.80270  Biso   1.000  C
  C22      1.0000 0.30270  0.00000  0.42950  Biso   1.000  C
  C23      1.0000 0.42950  0.30270  0.00000  Biso   1.000  C
  C24      1.0000 0.00000  0.42950  0.30270  Biso   1.000  C
  C25      1.0000 0.23360  0.46290  0.15830  Biso   1.000  C
  C26      1.0000 0.15830  0.23360  0.46290  Biso   1.000  C
  C27      1.0000 0.46290  0.15830  0.23360  Biso   1.000  C
  C28      1.0000 0.73360  0.96290  0.65830  Biso   1.000  C
  C29      1.0000 0.65830  0.73360  0.96290  Biso   1.000  C
  C30      1.0000 0.96290  0.65830  0.73360  Biso   1.000  C
  C31      1.0000 0.23360  0.46290  0.84170  Biso   1.000  C
  C32      1.0000 0.23360  0.53710  0.15830  Biso   1.000  C
  C33      1.0000 0.76640  0.46290  0.15830  Biso   1.000  C
  C34      1.0000 0.84170  0.23360  0.46290  Biso   1.000  C
  C35      1.0000 0.15830  0.23360  0.53710  Biso   1.000  C
  C36      1.0000 0.15830  0.76640  0.46290  Biso   1.000  C
  C37      1.0000 0.46290  0.84170  0.23360  Biso   1.000  C
  C38      1.0000 0.53710  0.15830  0.23360  Biso   1.000  C
  C39      1.0000 0.46290  0.15830  0.76640  Biso   1.000  C
  C40      1.0000 0.73360  0.96290  0.34170  Biso   1.000  C
  C41      1.0000 0.73360  0.03710  0.65830  Biso   1.000  C
  C42      1.0000 0.26640  0.96290  0.65830  Biso   1.000  C
  C43      1.0000 0.34170  0.73360  0.96290  Biso   1.000  C
  C44      1.0000 0.65830  0.73360  0.03710  Biso   1.000  C
  C45      1.0000 0.65830  0.26640  0.96290  Biso   1.000  C
  C46      1.0000 0.96290  0.34170  0.73360  Biso   1.000  C
  C47      1.0000 0.03710  0.65830  0.73360  Biso   1.000  C
  C48      1.0000 0.96290  0.65830  0.26640  Biso   1.000  C
  C49      1.0000 0.76640  0.53710  0.84170  Biso   1.000  C
  C50      1.0000 0.84170  0.76640  0.53710  Biso   1.000  C
  C51      1.0000 0.53710  0.84170  0.76640  Biso   1.000  C
  C52      1.0000 0.26640  0.03710  0.34170  Biso   1.000  C
  C53      1.0000 0.34170  0.26640  0.03710  Biso   1.000  C
  C54      1.0000 0.03710  0.34170  0.26640  Biso   1.000  C
  C55      1.0000 0.76640  0.53710  0.15830  Biso   1.000  C
  C56      1.0000 0.76640  0.46290  0.84170  Biso   1.000  C
  C57      1.0000 0.23360  0.53710  0.84170  Biso   1.000  C
  C58      1.0000 0.15830  0.76640  0.53710  Biso   1.000  C
  C59      1.0000 0.84170  0.76640  0.46290  Biso   1.000  C
  C60      1.0000 0.84170  0.23360  0.53710  Biso   1.000  C
  C61      1.0000 0.53710  0.15830  0.76640  Biso   1.000  C
  C62      1.0000 0.46290  0.84170  0.76640  Biso   1.000  C
  C63      1.0000 0.53710  0.84170  0.23360  Biso   1.000  C
  C64      1.0000 0.26640  0.03710  0.65830  Biso   1.000  C
  C65      1.0000 0.26640  0.96290  0.34170  Biso   1.000  C
  C66      1.0000 0.73360  0.03710  0.34170  Biso   1.000  C
  C67      1.0000 0.65830  0.26640  0.03710  Biso   1.000  C
  C68      1.0000 0.34170  0.26640  0.96290  Biso   1.000  C
  C69      1.0000 0.34170  0.73360  0.03710  Biso   1.000  C
  C70      1.0000 0.03710  0.65830  0.26640  Biso   1.000  C
  C71      1.0000 0.96290  0.34170  0.26640  Biso   1.000  C
  C72      1.0000 0.03710  0.34170  0.73360  Biso   1.000  C
  H1       1.0000 0.28060  0.41920  0.15380  Biso   1.000  H
  H2       1.0000 0.15380  0.28060  0.41920  Biso   1.000  H
  H3       1.0000 0.41920  0.15380  0.28060  Biso   1.000  H
  H4       1.0000 0.78060  0.91920  0.65380  Biso   1.000  H
  H5       1.0000 0.65380  0.78060  0.91920  Biso   1.000  H
  H6       1.0000 0.91920  0.65380  0.78060  Biso   1.000  H
  H7       1.0000 0.28060  0.41920  0.84620  Biso   1.000  H
  H8       1.0000 0.28060  0.58080  0.15380  Biso   1.000  H
  H9       1.0000 0.71940  0.41920  0.15380  Biso   1.000  H
  H10      1.0000 0.84620  0.28060  0.41920  Biso   1.000  H
  H11      1.0000 0.15380  0.28060  0.58080  Biso   1.000  H
  H12      1.0000 0.15380  0.71940  0.41920  Biso   1.000  H
  H13      1.0000 0.41920  0.84620  0.28060  Biso   1.000  H
  H14      1.0000 0.58080  0.15380  0.28060  Biso   1.000  H
  H15      1.0000 0.41920  0.15380  0.71940  Biso   1.000  H
  H16      1.0000 0.78060  0.91920  0.34620  Biso   1.000  H
  H17      1.0000 0.78060  0.08080  0.65380  Biso   1.000  H
  H18      1.0000 0.21940  0.91920  0.65380  Biso   1.000  H
  H19      1.0000 0.34620  0.78060  0.91920  Biso   1.000  H
  H20      1.0000 0.65380  0.78060  0.08080  Biso   1.000  H
  H21      1.0000 0.65380  0.21940  0.91920  Biso   1.000  H
  H22      1.0000 0.91920  0.34620  0.78060  Biso   1.000  H
  H23      1.0000 0.08080  0.65380  0.78060  Biso   1.000  H
  H24      1.0000 0.91920  0.65380  0.21940  Biso   1.000  H
  H25      1.0000 0.71940  0.58080  0.84620  Biso   1.000  H
  H26      1.0000 0.84620  0.71940  0.58080  Biso   1.000  H
  H27      1.0000 0.58080  0.84620  0.71940  Biso   1.000  H
  H28      1.0000 0.21940  0.08080  0.34620  Biso   1.000  H
  H29      1.0000 0.34620  0.21940  0.08080  Biso   1.000  H
  H30      1.0000 0.08080  0.34620  0.21940  Biso   1.000  H
  H31      1.0000 0.71940  0.58080  0.15380  Biso   1.000  H
  H32      1.0000 0.71940  0.41920  0.84620  Biso   1.000  H
  H33      1.0000 0.28060  0.58080  0.84620  Biso   1.000  H
  H34      1.0000 0.15380  0.71940  0.58080  Biso   1.000  H
  H35      1.0000 0.84620  0.71940  0.41920  Biso   1.000  H
  H36      1.0000 0.84620  0.28060  0.58080  Biso   1.000  H
  H37      1.0000 0.58080  0.15380  0.71940  Biso   1.000  H
  H38      1.0000 0.41920  0.84620  0.71940  Biso   1.000  H
  H39      1.0000 0.58080  0.84620  0.28060  Biso   1.000  H
  H40      1.0000 0.21940  0.08080  0.65380  Biso   1.000  H
  H41      1.0000 0.21940  0.91920  0.34620  Biso   1.000  H
  H42      1.0000 0.78060  0.08080  0.34620  Biso   1.000  H
  H43      1.0000 0.65380  0.21940  0.08080  Biso   1.000  H
  H44      1.0000 0.34620  0.21940  0.91920  Biso   1.000  H
  H45      1.0000 0.34620  0.78060  0.08080  Biso   1.000  H
  H46      1.0000 0.08080  0.65380  0.21940  Biso   1.000  H
  H47      1.0000 0.91920  0.34620  0.21940  Biso   1.000  H
  H48      1.0000 0.08080  0.34620  0.78060  Biso   1.000  H
  H49      1.0000 0.18480  0.43780  0.19190  Biso   1.000  H
  H50      1.0000 0.19190  0.18480  0.43780  Biso   1.000  H
  H51      1.0000 0.43780  0.19190  0.18480  Biso   1.000  H
  H52      1.0000 0.68480  0.93780  0.69190  Biso   1.000  H
  H53      1.0000 0.69190  0.68480  0.93780  Biso   1.000  H
  H54      1.0000 0.93780  0.69190  0.68480  Biso   1.000  H
  H55      1.0000 0.18480  0.43780  0.80810  Biso   1.000  H
  H56      1.0000 0.18480  0.56220  0.19190  Biso   1.000  H
  H57      1.0000 0.81520  0.43780  0.19190  Biso   1.000  H
  H58      1.0000 0.80810  0.18480  0.43780  Biso   1.000  H
  H59      1.0000 0.19190  0.18480  0.56220  Biso   1.000  H
  H60      1.0000 0.19190  0.81520  0.43780  Biso   1.000  H
  H61      1.0000 0.43780  0.80810  0.18480  Biso   1.000  H
  H62      1.0000 0.56220  0.19190  0.18480  Biso   1.000  H
  H63      1.0000 0.43780  0.19190  0.81520  Biso   1.000  H
  H64      1.0000 0.68480  0.93780  0.30810  Biso   1.000  H
  H65      1.0000 0.68480  0.06220  0.69190  Biso   1.000  H
  H66      1.0000 0.31520  0.93780  0.69190  Biso   1.000  H
  H67      1.0000 0.30810  0.68480  0.93780  Biso   1.000  H
  H68      1.0000 0.69190  0.68480  0.06220  Biso   1.000  H
  H69      1.0000 0.69190  0.31520  0.93780  Biso   1.000  H
  H70      1.0000 0.93780  0.30810  0.68480  Biso   1.000  H
  H71      1.0000 0.06220  0.69190  0.68480  Biso   1.000  H
  H72      1.0000 0.93780  0.69190  0.31520  Biso   1.000  H
  H73      1.0000 0.81520  0.56220  0.80810  Biso   1.000  H
  H74      1.0000 0.80810  0.81520  0.56220  Biso   1.000  H
  H75      1.0000 0.56220  0.80810  0.81520  Biso   1.000  H
  H76      1.0000 0.31520  0.06220  0.30810  Biso   1.000  H
  H77      1.0000 0.30810  0.31520  0.06220  Biso   1.000  H
  H78      1.0000 0.06220  0.30810  0.31520  Biso   1.000  H
  H79      1.0000 0.81520  0.56220  0.19190  Biso   1.000  H
  H80      1.0000 0.81520  0.43780  0.80810  Biso   1.000  H
  H81      1.0000 0.18480  0.56220  0.80810  Biso   1.000  H
  H82      1.0000 0.19190  0.81520  0.56220  Biso   1.000  H
  H83      1.0000 0.80810  0.81520  0.43780  Biso   1.000  H
  H84      1.0000 0.80810  0.18480  0.56220  Biso   1.000  H
  H85      1.0000 0.56220  0.19190  0.81520  Biso   1.000  H
  H86      1.0000 0.43780  0.80810  0.81520  Biso   1.000  H
  H87      1.0000 0.56220  0.80810  0.18480  Biso   1.000  H
  H88      1.0000 0.31520  0.06220  0.69190  Biso   1.000  H
  H89      1.0000 0.31520  0.93780  0.30810  Biso   1.000  H
  H90      1.0000 0.68480  0.06220  0.30810  Biso   1.000  H
  H91      1.0000 0.69190  0.31520  0.06220  Biso   1.000  H
  H92      1.0000 0.30810  0.31520  0.93780  Biso   1.000  H
  H93      1.0000 0.30810  0.68480  0.06220  Biso   1.000  H
  H94      1.0000 0.06220  0.69190  0.31520  Biso   1.000  H
  H95      1.0000 0.93780  0.30810  0.31520  Biso   1.000  H
  H96      1.0000 0.06220  0.30810  0.68480  Biso   1.000  H
  C73      1.0000 0.26690  0.54180  0.21240  Biso   1.000  C
  C74      1.0000 0.21240  0.26690  0.54180  Biso   1.000  C
  C75      1.0000 0.54180  0.21240  0.26690  Biso   1.000  C
  C76      1.0000 0.76690  0.04180  0.71240  Biso   1.000  C
  C77      1.0000 0.71240  0.76690  0.04180  Biso   1.000  C
  C78      1.0000 0.04180  0.71240  0.76690  Biso   1.000  C
  C79      1.0000 0.26690  0.54180  0.78760  Biso   1.000  C
  C80      1.0000 0.26690  0.45820  0.21240  Biso   1.000  C
  C81      1.0000 0.73310  0.54180  0.21240  Biso   1.000  C
  C82      1.0000 0.78760  0.26690  0.54180  Biso   1.000  C
  C83      1.0000 0.21240  0.26690  0.45820  Biso   1.000  C
  C84      1.0000 0.21240  0.73310  0.54180  Biso   1.000  C
  C85      1.0000 0.54180  0.78760  0.26690  Biso   1.000  C
  C86      1.0000 0.45820  0.21240  0.26690  Biso   1.000  C
  C87      1.0000 0.54180  0.21240  0.73310  Biso   1.000  C
  C88      1.0000 0.76690  0.04180  0.28760  Biso   1.000  C
  C89      1.0000 0.76690  0.95820  0.71240  Biso   1.000  C
  C90      1.0000 0.23310  0.04180  0.71240  Biso   1.000  C
  C91      1.0000 0.28760  0.76690  0.04180  Biso   1.000  C
  C92      1.0000 0.71240  0.76690  0.95820  Biso   1.000  C
  C93      1.0000 0.71240  0.23310  0.04180  Biso   1.000  C
  C94      1.0000 0.04180  0.28760  0.76690  Biso   1.000  C
  C95      1.0000 0.95820  0.71240  0.76690  Biso   1.000  C
  C96      1.0000 0.04180  0.71240  0.23310  Biso   1.000  C
  C97      1.0000 0.73310  0.45820  0.78760  Biso   1.000  C
  C98      1.0000 0.78760  0.73310  0.45820  Biso   1.000  C
  C99      1.0000 0.45820  0.78760  0.73310  Biso   1.000  C
  C100     1.0000 0.23310  0.95820  0.28760  Biso   1.000  C
  C101     1.0000 0.28760  0.23310  0.95820  Biso   1.000  C
  C102     1.0000 0.95820  0.28760  0.23310  Biso   1.000  C
  C103     1.0000 0.73310  0.45820  0.21240  Biso   1.000  C
  C104     1.0000 0.73310  0.54180  0.78760  Biso   1.000  C
  C105     1.0000 0.26690  0.45820  0.78760  Biso   1.000  C
  C106     1.0000 0.21240  0.73310  0.45820  Biso   1.000  C
  C107     1.0000 0.78760  0.73310  0.54180  Biso   1.000  C
  C108     1.0000 0.78760  0.26690  0.45820  Biso   1.000  C
  C109     1.0000 0.45820  0.21240  0.73310  Biso   1.000  C
  C110     1.0000 0.54180  0.78760  0.73310  Biso   1.000  C
  C111     1.0000 0.45820  0.78760  0.26690  Biso   1.000  C
  C112     1.0000 0.23310  0.95820  0.71240  Biso   1.000  C
  C113     1.0000 0.23310  0.04180  0.28760  Biso   1.000  C
  C114     1.0000 0.76690  0.95820  0.28760  Biso   1.000  C
  C115     1.0000 0.71240  0.23310  0.95820  Biso   1.000  C
  C116     1.0000 0.28760  0.23310  0.04180  Biso   1.000  C
  C117     1.0000 0.28760  0.76690  0.95820  Biso   1.000  C
  C118     1.0000 0.95820  0.71240  0.23310  Biso   1.000  C
  C119     1.0000 0.04180  0.28760  0.23310  Biso   1.000  C
  C120     1.0000 0.95820  0.28760  0.76690  Biso   1.000  C
  H97      1.0000 0.21960  0.57590  0.23960  Biso   1.000  H
  H98      1.0000 0.23960  0.21960  0.57590  Biso   1.000  H
  H99      1.0000 0.57590  0.23960  0.21960  Biso   1.000  H
  H100     1.0000 0.71960  0.07590  0.73960  Biso   1.000  H
  H101     1.0000 0.73960  0.71960  0.07590  Biso   1.000  H
  H102     1.0000 0.07590  0.73960  0.71960  Biso   1.000  H
  H103     1.0000 0.21960  0.57590  0.76040  Biso   1.000  H
  H104     1.0000 0.21960  0.42410  0.23960  Biso   1.000  H
  H105     1.0000 0.78040  0.57590  0.23960  Biso   1.000  H
  H106     1.0000 0.76040  0.21960  0.57590  Biso   1.000  H
  H107     1.0000 0.23960  0.21960  0.42410  Biso   1.000  H
  H108     1.0000 0.23960  0.78040  0.57590  Biso   1.000  H
  H109     1.0000 0.57590  0.76040  0.21960  Biso   1.000  H
  H110     1.0000 0.42410  0.23960  0.21960  Biso   1.000  H
  H111     1.0000 0.57590  0.23960  0.78040  Biso   1.000  H
  H112     1.0000 0.71960  0.07590  0.26040  Biso   1.000  H
  H113     1.0000 0.71960  0.92410  0.73960  Biso   1.000  H
  H114     1.0000 0.28040  0.07590  0.73960  Biso   1.000  H
  H115     1.0000 0.26040  0.71960  0.07590  Biso   1.000  H
  H116     1.0000 0.73960  0.71960  0.92410  Biso   1.000  H
  H117     1.0000 0.73960  0.28040  0.07590  Biso   1.000  H
  H118     1.0000 0.07590  0.26040  0.71960  Biso   1.000  H
  H119     1.0000 0.92410  0.73960  0.71960  Biso   1.000  H
  H120     1.0000 0.07590  0.73960  0.28040  Biso   1.000  H
  H121     1.0000 0.78040  0.42410  0.76040  Biso   1.000  H
  H122     1.0000 0.76040  0.78040  0.42410  Biso   1.000  H
  H123     1.0000 0.42410  0.76040  0.78040  Biso   1.000  H
  H124     1.0000 0.28040  0.92410  0.26040  Biso   1.000  H
  H125     1.0000 0.26040  0.28040  0.92410  Biso   1.000  H
  H126     1.0000 0.92410  0.26040  0.28040  Biso   1.000  H
  H127     1.0000 0.78040  0.42410  0.23960  Biso   1.000  H
  H128     1.0000 0.78040  0.57590  0.76040  Biso   1.000  H
  H129     1.0000 0.21960  0.42410  0.76040  Biso   1.000  H
  H130     1.0000 0.23960  0.78040  0.42410  Biso   1.000  H
  H131     1.0000 0.76040  0.78040  0.57590  Biso   1.000  H
  H132     1.0000 0.76040  0.21960  0.42410  Biso   1.000  H
  H133     1.0000 0.42410  0.23960  0.78040  Biso   1.000  H
  H134     1.0000 0.57590  0.76040  0.78040  Biso   1.000  H
  H135     1.0000 0.42410  0.76040  0.21960  Biso   1.000  H
  H136     1.0000 0.28040  0.92410  0.73960  Biso   1.000  H
  H137     1.0000 0.28040  0.07590  0.26040  Biso   1.000  H
  H138     1.0000 0.71960  0.92410  0.26040  Biso   1.000  H
  H139     1.0000 0.73960  0.28040  0.92410  Biso   1.000  H
  H140     1.0000 0.26040  0.28040  0.07590  Biso   1.000  H
  H141     1.0000 0.26040  0.71960  0.92410  Biso   1.000  H
  H142     1.0000 0.92410  0.73960  0.28040  Biso   1.000  H
  H143     1.0000 0.07590  0.26040  0.28040  Biso   1.000  H
  H144     1.0000 0.92410  0.26040  0.71960  Biso   1.000  H
  H145     1.0000 0.29970  0.57870  0.17130  Biso   1.000  H
  H146     1.0000 0.17130  0.29970  0.57870  Biso   1.000  H
  H147     1.0000 0.57870  0.17130  0.29970  Biso   1.000  H
  H148     1.0000 0.79970  0.07870  0.67130  Biso   1.000  H
  H149     1.0000 0.67130  0.79970  0.07870  Biso   1.000  H
  H150     1.0000 0.07870  0.67130  0.79970  Biso   1.000  H
  H151     1.0000 0.29970  0.57870  0.82870  Biso   1.000  H
  H152     1.0000 0.29970  0.42130  0.17130  Biso   1.000  H
  H153     1.0000 0.70030  0.57870  0.17130  Biso   1.000  H
  H154     1.0000 0.82870  0.29970  0.57870  Biso   1.000  H
  H155     1.0000 0.17130  0.29970  0.42130  Biso   1.000  H
  H156     1.0000 0.17130  0.70030  0.57870  Biso   1.000  H
  H157     1.0000 0.57870  0.82870  0.29970  Biso   1.000  H
  H158     1.0000 0.42130  0.17130  0.29970  Biso   1.000  H
  H159     1.0000 0.57870  0.17130  0.70030  Biso   1.000  H
  H160     1.0000 0.79970  0.07870  0.32870  Biso   1.000  H
  H161     1.0000 0.79970  0.92130  0.67130  Biso   1.000  H
  H162     1.0000 0.20030  0.07870  0.67130  Biso   1.000  H
  H163     1.0000 0.32870  0.79970  0.07870  Biso   1.000  H
  H164     1.0000 0.67130  0.79970  0.92130  Biso   1.000  H
  H165     1.0000 0.67130  0.20030  0.07870  Biso   1.000  H
  H166     1.0000 0.07870  0.32870  0.79970  Biso   1.000  H
  H167     1.0000 0.92130  0.67130  0.79970  Biso   1.000  H
  H168     1.0000 0.07870  0.67130  0.20030  Biso   1.000  H
  H169     1.0000 0.70030  0.42130  0.82870  Biso   1.000  H
  H170     1.0000 0.82870  0.70030  0.42130  Biso   1.000  H
  H171     1.0000 0.42130  0.82870  0.70030  Biso   1.000  H
  H172     1.0000 0.20030  0.92130  0.32870  Biso   1.000  H
  H173     1.0000 0.32870  0.20030  0.92130  Biso   1.000  H
  H174     1.0000 0.92130  0.32870  0.20030  Biso   1.000  H
  H175     1.0000 0.70030  0.42130  0.17130  Biso   1.000  H
  H176     1.0000 0.70030  0.57870  0.82870  Biso   1.000  H
  H177     1.0000 0.29970  0.42130  0.82870  Biso   1.000  H
  H178     1.0000 0.17130  0.70030  0.42130  Biso   1.000  H
  H179     1.0000 0.82870  0.70030  0.57870  Biso   1.000  H
  H180     1.0000 0.82870  0.29970  0.42130  Biso   1.000  H
  H181     1.0000 0.42130  0.17130  0.70030  Biso   1.000  H
  H182     1.0000 0.57870  0.82870  0.70030  Biso   1.000  H
  H183     1.0000 0.42130  0.82870  0.29970  Biso   1.000  H
  H184     1.0000 0.20030  0.92130  0.67130  Biso   1.000  H
  H185     1.0000 0.20030  0.07870  0.32870  Biso   1.000  H
  H186     1.0000 0.79970  0.92130  0.32870  Biso   1.000  H
  H187     1.0000 0.67130  0.20030  0.92130  Biso   1.000  H
  H188     1.0000 0.32870  0.20030  0.07870  Biso   1.000  H
  H189     1.0000 0.32870  0.79970  0.92130  Biso   1.000  H
  H190     1.0000 0.92130  0.67130  0.20030  Biso   1.000  H
  H191     1.0000 0.07870  0.32870  0.20030  Biso   1.000  H
  H192     1.0000 0.92130  0.32870  0.79970  Biso   1.000  H
  C121     1.0000 0.28000  0.50000  0.30490  Biso   1.000  C
  C122     1.0000 0.30490  0.28000  0.50000  Biso   1.000  C
  C123     1.0000 0.50000  0.30490  0.28000  Biso   1.000  C
  C124     1.0000 0.78000  0.00000  0.80490  Biso   1.000  C
  C125     1.0000 0.80490  0.78000  0.00000  Biso   1.000  C
  C126     1.0000 0.00000  0.80490  0.78000  Biso   1.000  C
  C127     1.0000 0.28000  0.50000  0.69510  Biso   1.000  C
  C128     1.0000 0.72000  0.50000  0.30490  Biso   1.000  C
  C129     1.0000 0.69510  0.28000  0.50000  Biso   1.000  C
  C130     1.0000 0.30490  0.72000  0.50000  Biso   1.000  C
  C131     1.0000 0.50000  0.69510  0.28000  Biso   1.000  C
  C132     1.0000 0.50000  0.30490  0.72000  Biso   1.000  C
  C133     1.0000 0.78000  0.00000  0.19510  Biso   1.000  C
  C134     1.0000 0.22000  0.00000  0.80490  Biso   1.000  C
  C135     1.0000 0.19510  0.78000  0.00000  Biso   1.000  C
  C136     1.0000 0.80490  0.22000  0.00000  Biso   1.000  C
  C137     1.0000 0.00000  0.19510  0.78000  Biso   1.000  C
  C138     1.0000 0.00000  0.80490  0.22000  Biso   1.000  C
  C139     1.0000 0.72000  0.50000  0.69510  Biso   1.000  C
  C140     1.0000 0.69510  0.72000  0.50000  Biso   1.000  C
  C141     1.0000 0.50000  0.69510  0.72000  Biso   1.000  C
  C142     1.0000 0.22000  0.00000  0.19510  Biso   1.000  C
  C143     1.0000 0.19510  0.22000  0.00000  Biso   1.000  C
  C144     1.0000 0.00000  0.19510  0.22000  Biso   1.000  C
  H193     1.0000 0.30880  0.54520  0.34050  Biso   1.000  H
  H194     1.0000 0.34050  0.30880  0.54520  Biso   1.000  H
  H195     1.0000 0.54520  0.34050  0.30880  Biso   1.000  H
  H196     1.0000 0.80880  0.04520  0.84050  Biso   1.000  H
  H197     1.0000 0.84050  0.80880  0.04520  Biso   1.000  H
  H198     1.0000 0.04520  0.84050  0.80880  Biso   1.000  H
  H199     1.0000 0.30880  0.54520  0.65950  Biso   1.000  H
  H200     1.0000 0.30880  0.45480  0.34050  Biso   1.000  H
  H201     1.0000 0.69120  0.54520  0.34050  Biso   1.000  H
  H202     1.0000 0.65950  0.30880  0.54520  Biso   1.000  H
  H203     1.0000 0.34050  0.30880  0.45480  Biso   1.000  H
  H204     1.0000 0.34050  0.69120  0.54520  Biso   1.000  H
  H205     1.0000 0.54520  0.65950  0.30880  Biso   1.000  H
  H206     1.0000 0.45480  0.34050  0.30880  Biso   1.000  H
  H207     1.0000 0.54520  0.34050  0.69120  Biso   1.000  H
  H208     1.0000 0.80880  0.04520  0.15950  Biso   1.000  H
  H209     1.0000 0.80880  0.95480  0.84050  Biso   1.000  H
  H210     1.0000 0.19120  0.04520  0.84050  Biso   1.000  H
  H211     1.0000 0.15950  0.80880  0.04520  Biso   1.000  H
  H212     1.0000 0.84050  0.80880  0.95480  Biso   1.000  H
  H213     1.0000 0.84050  0.19120  0.04520  Biso   1.000  H
  H214     1.0000 0.04520  0.15950  0.80880  Biso   1.000  H
  H215     1.0000 0.95480  0.84050  0.80880  Biso   1.000  H
  H216     1.0000 0.04520  0.84050  0.19120  Biso   1.000  H
  H217     1.0000 0.69120  0.45480  0.65950  Biso   1.000  H
  H218     1.0000 0.65950  0.69120  0.45480  Biso   1.000  H
  H219     1.0000 0.45480  0.65950  0.69120  Biso   1.000  H
  H220     1.0000 0.19120  0.95480  0.15950  Biso   1.000  H
  H221     1.0000 0.15950  0.19120  0.95480  Biso   1.000  H
  H222     1.0000 0.95480  0.15950  0.19120  Biso   1.000  H
  H223     1.0000 0.69120  0.45480  0.34050  Biso   1.000  H
  H224     1.0000 0.69120  0.54520  0.65950  Biso   1.000  H
  H225     1.0000 0.30880  0.45480  0.65950  Biso   1.000  H
  H226     1.0000 0.34050  0.69120  0.45480  Biso   1.000  H
  H227     1.0000 0.65950  0.69120  0.54520  Biso   1.000  H
  H228     1.0000 0.65950  0.30880  0.45480  Biso   1.000  H
  H229     1.0000 0.45480  0.34050  0.69120  Biso   1.000  H
  H230     1.0000 0.54520  0.65950  0.69120  Biso   1.000  H
  H231     1.0000 0.45480  0.65950  0.30880  Biso   1.000  H
  H232     1.0000 0.19120  0.95480  0.84050  Biso   1.000  H
  H233     1.0000 0.19120  0.04520  0.15950  Biso   1.000  H
  H234     1.0000 0.80880  0.95480  0.15950  Biso   1.000  H
  H235     1.0000 0.84050  0.19120  0.95480  Biso   1.000  H
  H236     1.0000 0.15950  0.19120  0.04520  Biso   1.000  H
  H237     1.0000 0.15950  0.80880  0.95480  Biso   1.000  H
  H238     1.0000 0.95480  0.84050  0.19120  Biso   1.000  H
  H239     1.0000 0.04520  0.15950  0.19120  Biso   1.000  H
  H240     1.0000 0.95480  0.15950  0.80880  Biso   1.000  H
  H241     1.0000 0.24490  0.46190  0.34290  Biso   1.000  H
  H242     1.0000 0.34290  0.24490  0.46190  Biso   1.000  H
  H243     1.0000 0.46190  0.34290  0.24490  Biso   1.000  H
  H244     1.0000 0.74490  0.96190  0.84290  Biso   1.000  H
  H245     1.0000 0.84290  0.74490  0.96190  Biso   1.000  H
  H246     1.0000 0.96190  0.84290  0.74490  Biso   1.000  H
  H247     1.0000 0.24490  0.46190  0.65710  Biso   1.000  H
  H248     1.0000 0.24490  0.53810  0.34290  Biso   1.000  H
  H249     1.0000 0.75510  0.46190  0.34290  Biso   1.000  H
  H250     1.0000 0.65710  0.24490  0.46190  Biso   1.000  H
  H251     1.0000 0.34290  0.24490  0.53810  Biso   1.000  H
  H252     1.0000 0.34290  0.75510  0.46190  Biso   1.000  H
  H253     1.0000 0.46190  0.65710  0.24490  Biso   1.000  H
  H254     1.0000 0.53810  0.34290  0.24490  Biso   1.000  H
  H255     1.0000 0.46190  0.34290  0.75510  Biso   1.000  H
  H256     1.0000 0.74490  0.96190  0.15710  Biso   1.000  H
  H257     1.0000 0.74490  0.03810  0.84290  Biso   1.000  H
  H258     1.0000 0.25510  0.96190  0.84290  Biso   1.000  H
  H259     1.0000 0.15710  0.74490  0.96190  Biso   1.000  H
  H260     1.0000 0.84290  0.74490  0.03810  Biso   1.000  H
  H261     1.0000 0.84290  0.25510  0.96190  Biso   1.000  H
  H262     1.0000 0.96190  0.15710  0.74490  Biso   1.000  H
  H263     1.0000 0.03810  0.84290  0.74490  Biso   1.000  H
  H264     1.0000 0.96190  0.84290  0.25510  Biso   1.000  H
  H265     1.0000 0.75510  0.53810  0.65710  Biso   1.000  H
  H266     1.0000 0.65710  0.75510  0.53810  Biso   1.000  H
  H267     1.0000 0.53810  0.65710  0.75510  Biso   1.000  H
  H268     1.0000 0.25510  0.03810  0.15710  Biso   1.000  H
  H269     1.0000 0.15710  0.25510  0.03810  Biso   1.000  H
  H270     1.0000 0.03810  0.15710  0.25510  Biso   1.000  H
  H271     1.0000 0.75510  0.53810  0.34290  Biso   1.000  H
  H272     1.0000 0.75510  0.46190  0.65710  Biso   1.000  H
  H273     1.0000 0.24490  0.53810  0.65710  Biso   1.000  H
  H274     1.0000 0.34290  0.75510  0.53810  Biso   1.000  H
  H275     1.0000 0.65710  0.75510  0.46190  Biso   1.000  H
  H276     1.0000 0.65710  0.24490  0.53810  Biso   1.000  H
  H277     1.0000 0.53810  0.34290  0.75510  Biso   1.000  H
  H278     1.0000 0.46190  0.65710  0.75510  Biso   1.000  H
  H279     1.0000 0.53810  0.65710  0.24490  Biso   1.000  H
  H280     1.0000 0.25510  0.03810  0.84290  Biso   1.000  H
  H281     1.0000 0.25510  0.96190  0.15710  Biso   1.000  H
  H282     1.0000 0.74490  0.03810  0.15710  Biso   1.000  H
  H283     1.0000 0.84290  0.25510  0.03810  Biso   1.000  H
  H284     1.0000 0.15710  0.25510  0.96190  Biso   1.000  H
  H285     1.0000 0.15710  0.74490  0.03810  Biso   1.000  H
  H286     1.0000 0.03810  0.84290  0.25510  Biso   1.000  H
  H287     1.0000 0.96190  0.15710  0.25510  Biso   1.000  H
  H288     1.0000 0.03810  0.15710  0.74490  Biso   1.000  H
  H289     1.0000 0.32480  0.46480  0.27480  Biso   1.000  H
  H290     1.0000 0.27480  0.32480  0.46480  Biso   1.000  H
  H291     1.0000 0.46480  0.27480  0.32480  Biso   1.000  H
  H292     1.0000 0.82480  0.96480  0.77480  Biso   1.000  H
  H293     1.0000 0.77480  0.82480  0.96480  Biso   1.000  H
  H294     1.0000 0.96480  0.77480  0.82480  Biso   1.000  H
  H295     1.0000 0.32480  0.46480  0.72520  Biso   1.000  H
  H296     1.0000 0.32480  0.53520  0.27480  Biso   1.000  H
  H297     1.0000 0.67520  0.46480  0.27480  Biso   1.000  H
  H298     1.0000 0.72520  0.32480  0.46480  Biso   1.000  H
  H299     1.0000 0.27480  0.32480  0.53520  Biso   1.000  H
  H300     1.0000 0.27480  0.67520  0.46480  Biso   1.000  H
  H301     1.0000 0.46480  0.72520  0.32480  Biso   1.000  H
  H302     1.0000 0.53520  0.27480  0.32480  Biso   1.000  H
  H303     1.0000 0.46480  0.27480  0.67520  Biso   1.000  H
  H304     1.0000 0.82480  0.96480  0.22520  Biso   1.000  H
  H305     1.0000 0.82480  0.03520  0.77480  Biso   1.000  H
  H306     1.0000 0.17520  0.96480  0.77480  Biso   1.000  H
  H307     1.0000 0.22520  0.82480  0.96480  Biso   1.000  H
  H308     1.0000 0.77480  0.82480  0.03520  Biso   1.000  H
  H309     1.0000 0.77480  0.17520  0.96480  Biso   1.000  H
  H310     1.0000 0.96480  0.22520  0.82480  Biso   1.000  H
  H311     1.0000 0.03520  0.77480  0.82480  Biso   1.000  H
  H312     1.0000 0.96480  0.77480  0.17520  Biso   1.000  H
  H313     1.0000 0.67520  0.53520  0.72520  Biso   1.000  H
  H314     1.0000 0.72520  0.67520  0.53520  Biso   1.000  H
  H315     1.0000 0.53520  0.72520  0.67520  Biso   1.000  H
  H316     1.0000 0.17520  0.03520  0.22520  Biso   1.000  H
  H317     1.0000 0.22520  0.17520  0.03520  Biso   1.000  H
  H318     1.0000 0.03520  0.22520  0.17520  Biso   1.000  H
  H319     1.0000 0.67520  0.53520  0.27480  Biso   1.000  H
  H320     1.0000 0.67520  0.46480  0.72520  Biso   1.000  H
  H321     1.0000 0.32480  0.53520  0.72520  Biso   1.000  H
  H322     1.0000 0.27480  0.67520  0.53520  Biso   1.000  H
  H323     1.0000 0.72520  0.67520  0.46480  Biso   1.000  H
  H324     1.0000 0.72520  0.32480  0.53520  Biso   1.000  H
  H325     1.0000 0.53520  0.27480  0.67520  Biso   1.000  H
  H326     1.0000 0.46480  0.72520  0.67520  Biso   1.000  H
  H327     1.0000 0.53520  0.72520  0.32480  Biso   1.000  H
  H328     1.0000 0.17520  0.03520  0.77480  Biso   1.000  H
  H329     1.0000 0.17520  0.96480  0.22520  Biso   1.000  H
  H330     1.0000 0.82480  0.03520  0.22520  Biso   1.000  H
  H331     1.0000 0.77480  0.17520  0.03520  Biso   1.000  H
  H332     1.0000 0.22520  0.17520  0.96480  Biso   1.000  H
  H333     1.0000 0.22520  0.82480  0.03520  Biso   1.000  H
  H334     1.0000 0.03520  0.77480  0.17520  Biso   1.000  H
  H335     1.0000 0.96480  0.22520  0.17520  Biso   1.000  H
  H336     1.0000 0.03520  0.22520  0.82480  Biso   1.000  H
  C145     1.0000 0.21890  0.50000  0.16860  Biso   1.000  C
  C146     1.0000 0.16860  0.21890  0.50000  Biso   1.000  C
  C147     1.0000 0.50000  0.16860  0.21890  Biso   1.000  C
  C148     1.0000 0.71890  0.00000  0.66860  Biso   1.000  C
  C149     1.0000 0.66860  0.71890  0.00000  Biso   1.000  C
  C150     1.0000 0.00000  0.66860  0.71890  Biso   1.000  C
  C151     1.0000 0.21890  0.50000  0.83140  Biso   1.000  C
  C152     1.0000 0.78110  0.50000  0.16860  Biso   1.000  C
  C153     1.0000 0.83140  0.21890  0.50000  Biso   1.000  C
  C154     1.0000 0.16860  0.78110  0.50000  Biso   1.000  C
  C155     1.0000 0.50000  0.83140  0.21890  Biso   1.000  C
  C156     1.0000 0.50000  0.16860  0.78110  Biso   1.000  C
  C157     1.0000 0.71890  0.00000  0.33140  Biso   1.000  C
  C158     1.0000 0.28110  0.00000  0.66860  Biso   1.000  C
  C159     1.0000 0.33140  0.71890  0.00000  Biso   1.000  C
  C160     1.0000 0.66860  0.28110  0.00000  Biso   1.000  C
  C161     1.0000 0.00000  0.33140  0.71890  Biso   1.000  C
  C162     1.0000 0.00000  0.66860  0.28110  Biso   1.000  C
  C163     1.0000 0.78110  0.50000  0.83140  Biso   1.000  C
  C164     1.0000 0.83140  0.78110  0.50000  Biso   1.000  C
  C165     1.0000 0.50000  0.83140  0.78110  Biso   1.000  C
  C166     1.0000 0.28110  0.00000  0.33140  Biso   1.000  C
  C167     1.0000 0.33140  0.28110  0.00000  Biso   1.000  C
  C168     1.0000 0.00000  0.33140  0.28110  Biso   1.000  C
  H337     1.0000 0.18860  0.44820  0.19190  Biso   1.000  H
  H338     1.0000 0.19190  0.18860  0.44820  Biso   1.000  H
  H339     1.0000 0.44820  0.19190  0.18860  Biso   1.000  H
  H340     1.0000 0.68860  0.94820  0.69190  Biso   1.000  H
  H341     1.0000 0.69190  0.68860  0.94820  Biso   1.000  H
  H342     1.0000 0.94820  0.69190  0.68860  Biso   1.000  H
  H343     1.0000 0.18860  0.44820  0.80810  Biso   1.000  H
  H344     1.0000 0.18860  0.55180  0.19190  Biso   1.000  H
  H345     1.0000 0.81140  0.44820  0.19190  Biso   1.000  H
  H346     1.0000 0.80810  0.18860  0.44820  Biso   1.000  H
  H347     1.0000 0.19190  0.18860  0.55180  Biso   1.000  H
  H348     1.0000 0.19190  0.81140  0.44820  Biso   1.000  H
  H349     1.0000 0.44820  0.80810  0.18860  Biso   1.000  H
  H350     1.0000 0.55180  0.19190  0.18860  Biso   1.000  H
  H351     1.0000 0.44820  0.19190  0.81140  Biso   1.000  H
  H352     1.0000 0.68860  0.94820  0.30810  Biso   1.000  H
  H353     1.0000 0.68860  0.05180  0.69190  Biso   1.000  H
  H354     1.0000 0.31140  0.94820  0.69190  Biso   1.000  H
  H355     1.0000 0.30810  0.68860  0.94820  Biso   1.000  H
  H356     1.0000 0.69190  0.68860  0.05180  Biso   1.000  H
  H357     1.0000 0.69190  0.31140  0.94820  Biso   1.000  H
  H358     1.0000 0.94820  0.30810  0.68860  Biso   1.000  H
  H359     1.0000 0.05180  0.69190  0.68860  Biso   1.000  H
  H360     1.0000 0.94820  0.69190  0.31140  Biso   1.000  H
  H361     1.0000 0.81140  0.55180  0.80810  Biso   1.000  H
  H362     1.0000 0.80810  0.81140  0.55180  Biso   1.000  H
  H363     1.0000 0.55180  0.80810  0.81140  Biso   1.000  H
  H364     1.0000 0.31140  0.05180  0.30810  Biso   1.000  H
  H365     1.0000 0.30810  0.31140  0.05180  Biso   1.000  H
  H366     1.0000 0.05180  0.30810  0.31140  Biso   1.000  H
  H367     1.0000 0.81140  0.55180  0.19190  Biso   1.000  H
  H368     1.0000 0.81140  0.44820  0.80810  Biso   1.000  H
  H369     1.0000 0.18860  0.55180  0.80810  Biso   1.000  H
  H370     1.0000 0.19190  0.81140  0.55180  Biso   1.000  H
  H371     1.0000 0.80810  0.81140  0.44820  Biso   1.000  H
  H372     1.0000 0.80810  0.18860  0.55180  Biso   1.000  H
  H373     1.0000 0.55180  0.19190  0.81140  Biso   1.000  H
  H374     1.0000 0.44820  0.80810  0.81140  Biso   1.000  H
  H375     1.0000 0.55180  0.80810  0.18860  Biso   1.000  H
  H376     1.0000 0.31140  0.05180  0.69190  Biso   1.000  H
  H377     1.0000 0.31140  0.94820  0.30810  Biso   1.000  H
  H378     1.0000 0.68860  0.05180  0.30810  Biso   1.000  H
  H379     1.0000 0.69190  0.31140  0.05180  Biso   1.000  H
  H380     1.0000 0.30810  0.31140  0.94820  Biso   1.000  H
  H381     1.0000 0.30810  0.68860  0.05180  Biso   1.000  H
  H382     1.0000 0.05180  0.69190  0.31140  Biso   1.000  H
  H383     1.0000 0.94820  0.30810  0.31140  Biso   1.000  H
  H384     1.0000 0.05180  0.30810  0.68860  Biso   1.000  H
  C169     1.0000 0.31060  0.50000  0.20360  Biso   1.000  C
  C170     1.0000 0.20360  0.31060  0.50000  Biso   1.000  C
  C171     1.0000 0.50000  0.20360  0.31060  Biso   1.000  C
  C172     1.0000 0.81060  0.00000  0.70360  Biso   1.000  C
  C173     1.0000 0.70360  0.81060  0.00000  Biso   1.000  C
  C174     1.0000 0.00000  0.70360  0.81060  Biso   1.000  C
  C175     1.0000 0.31060  0.50000  0.79640  Biso   1.000  C
  C176     1.0000 0.68940  0.50000  0.20360  Biso   1.000  C
  C177     1.0000 0.79640  0.31060  0.50000  Biso   1.000  C
  C178     1.0000 0.20360  0.68940  0.50000  Biso   1.000  C
  C179     1.0000 0.50000  0.79640  0.31060  Biso   1.000  C
  C180     1.0000 0.50000  0.20360  0.68940  Biso   1.000  C
  C181     1.0000 0.81060  0.00000  0.29640  Biso   1.000  C
  C182     1.0000 0.18940  0.00000  0.70360  Biso   1.000  C
  C183     1.0000 0.29640  0.81060  0.00000  Biso   1.000  C
  C184     1.0000 0.70360  0.18940  0.00000  Biso   1.000  C
  C185     1.0000 0.00000  0.29640  0.81060  Biso   1.000  C
  C186     1.0000 0.00000  0.70360  0.18940  Biso   1.000  C
  C187     1.0000 0.68940  0.50000  0.79640  Biso   1.000  C
  C188     1.0000 0.79640  0.68940  0.50000  Biso   1.000  C
  C189     1.0000 0.50000  0.79640  0.68940  Biso   1.000  C
  C190     1.0000 0.18940  0.00000  0.29640  Biso   1.000  C
  C191     1.0000 0.29640  0.18940  0.00000  Biso   1.000  C
  C192     1.0000 0.00000  0.29640  0.18940  Biso   1.000  C
  H385     1.0000 0.34110  0.55190  0.18070  Biso   1.000  H
  H386     1.0000 0.18070  0.34110  0.55190  Biso   1.000  H
  H387     1.0000 0.55190  0.18070  0.34110  Biso   1.000  H
  H388     1.0000 0.84110  0.05190  0.68070  Biso   1.000  H
  H389     1.0000 0.68070  0.84110  0.05190  Biso   1.000  H
  H390     1.0000 0.05190  0.68070  0.84110  Biso   1.000  H
  H391     1.0000 0.34110  0.55190  0.81930  Biso   1.000  H
  H392     1.0000 0.34110  0.44810  0.18070  Biso   1.000  H
  H393     1.0000 0.65890  0.55190  0.18070  Biso   1.000  H
  H394     1.0000 0.81930  0.34110  0.55190  Biso   1.000  H
  H395     1.0000 0.18070  0.34110  0.44810  Biso   1.000  H
  H396     1.0000 0.18070  0.65890  0.55190  Biso   1.000  H
  H397     1.0000 0.55190  0.81930  0.34110  Biso   1.000  H
  H398     1.0000 0.44810  0.18070  0.34110  Biso   1.000  H
  H399     1.0000 0.55190  0.18070  0.65890  Biso   1.000  H
  H400     1.0000 0.84110  0.05190  0.31930  Biso   1.000  H
  H401     1.0000 0.84110  0.94810  0.68070  Biso   1.000  H
  H402     1.0000 0.15890  0.05190  0.68070  Biso   1.000  H
  H403     1.0000 0.31930  0.84110  0.05190  Biso   1.000  H
  H404     1.0000 0.68070  0.84110  0.94810  Biso   1.000  H
  H405     1.0000 0.68070  0.15890  0.05190  Biso   1.000  H
  H406     1.0000 0.05190  0.31930  0.84110  Biso   1.000  H
  H407     1.0000 0.94810  0.68070  0.84110  Biso   1.000  H
  H408     1.0000 0.05190  0.68070  0.15890  Biso   1.000  H
  H409     1.0000 0.65890  0.44810  0.81930  Biso   1.000  H
  H410     1.0000 0.81930  0.65890  0.44810  Biso   1.000  H
  H411     1.0000 0.44810  0.81930  0.65890  Biso   1.000  H
  H412     1.0000 0.15890  0.94810  0.31930  Biso   1.000  H
  H413     1.0000 0.31930  0.15890  0.94810  Biso   1.000  H
  H414     1.0000 0.94810  0.31930  0.15890  Biso   1.000  H
  H415     1.0000 0.65890  0.44810  0.18070  Biso   1.000  H
  H416     1.0000 0.65890  0.55190  0.81930  Biso   1.000  H
  H417     1.0000 0.34110  0.44810  0.81930  Biso   1.000  H
  H418     1.0000 0.18070  0.65890  0.44810  Biso   1.000  H
  H419     1.0000 0.81930  0.65890  0.55190  Biso   1.000  H
  H420     1.0000 0.81930  0.34110  0.44810  Biso   1.000  H
  H421     1.0000 0.44810  0.18070  0.65890  Biso   1.000  H
  H422     1.0000 0.55190  0.81930  0.65890  Biso   1.000  H
  H423     1.0000 0.44810  0.81930  0.34110  Biso   1.000  H
  H424     1.0000 0.15890  0.94810  0.68070  Biso   1.000  H
  H425     1.0000 0.15890  0.05190  0.31930  Biso   1.000  H
  H426     1.0000 0.84110  0.94810  0.31930  Biso   1.000  H
  H427     1.0000 0.68070  0.15890  0.94810  Biso   1.000  H
  H428     1.0000 0.31930  0.15890  0.05190  Biso   1.000  H
  H429     1.0000 0.31930  0.84110  0.94810  Biso   1.000  H
  H430     1.0000 0.94810  0.68070  0.15890  Biso   1.000  H
  H431     1.0000 0.05190  0.31930  0.15890  Biso   1.000  H
  H432     1.0000 0.94810  0.31930  0.84110  Biso   1.000  H
  C193     1.0000 0.31600  0.50000  0.30460  Biso   1.000  C
  C194     1.0000 0.30460  0.31600  0.50000  Biso   1.000  C
  C195     1.0000 0.50000  0.30460  0.31600  Biso   1.000  C
  C196     1.0000 0.81600  0.00000  0.80460  Biso   1.000  C
  C197     1.0000 0.80460  0.81600  0.00000  Biso   1.000  C
  C198     1.0000 0.00000  0.80460  0.81600  Biso   1.000  C
  C199     1.0000 0.31600  0.50000  0.69540  Biso   1.000  C
  C200     1.0000 0.68400  0.50000  0.30460  Biso   1.000  C
  C201     1.0000 0.69540  0.31600  0.50000  Biso   1.000  C
  C202     1.0000 0.30460  0.68400  0.50000  Biso   1.000  C
  C203     1.0000 0.50000  0.69540  0.31600  Biso   1.000  C
  C204     1.0000 0.50000  0.30460  0.68400  Biso   1.000  C
  C205     1.0000 0.81600  0.00000  0.19540  Biso   1.000  C
  C206     1.0000 0.18400  0.00000  0.80460  Biso   1.000  C
  C207     1.0000 0.19540  0.81600  0.00000  Biso   1.000  C
  C208     1.0000 0.80460  0.18400  0.00000  Biso   1.000  C
  C209     1.0000 0.00000  0.19540  0.81600  Biso   1.000  C
  C210     1.0000 0.00000  0.80460  0.18400  Biso   1.000  C
  C211     1.0000 0.68400  0.50000  0.69540  Biso   1.000  C
  C212     1.0000 0.69540  0.68400  0.50000  Biso   1.000  C
  C213     1.0000 0.50000  0.69540  0.68400  Biso   1.000  C
  C214     1.0000 0.18400  0.00000  0.19540  Biso   1.000  C
  C215     1.0000 0.19540  0.18400  0.00000  Biso   1.000  C
  C216     1.0000 0.00000  0.19540  0.18400  Biso   1.000  C
  H433     1.0000 0.37800  0.50000  0.32100  Biso   1.000  H
  H434     1.0000 0.32100  0.37800  0.50000  Biso   1.000  H
  H435     1.0000 0.50000  0.32100  0.37800  Biso   1.000  H
  H436     1.0000 0.87800  0.00000  0.82100  Biso   1.000  H
  H437     1.0000 0.82100  0.87800  0.00000  Biso   1.000  H
  H438     1.0000 0.00000  0.82100  0.87800  Biso   1.000  H
  H439     1.0000 0.37800  0.50000  0.67900  Biso   1.000  H
  H440     1.0000 0.62200  0.50000  0.32100  Biso   1.000  H
  H441     1.0000 0.67900  0.37800  0.50000  Biso   1.000  H
  H442     1.0000 0.32100  0.62200  0.50000  Biso   1.000  H
  H443     1.0000 0.50000  0.67900  0.37800  Biso   1.000  H
  H444     1.0000 0.50000  0.32100  0.62200  Biso   1.000  H
  H445     1.0000 0.87800  0.00000  0.17900  Biso   1.000  H
  H446     1.0000 0.12200  0.00000  0.82100  Biso   1.000  H
  H447     1.0000 0.17900  0.87800  0.00000  Biso   1.000  H
  H448     1.0000 0.82100  0.12200  0.00000  Biso   1.000  H
  H449     1.0000 0.00000  0.17900  0.87800  Biso   1.000  H
  H450     1.0000 0.00000  0.82100  0.12200  Biso   1.000  H
  H451     1.0000 0.62200  0.50000  0.67900  Biso   1.000  H
  H452     1.0000 0.67900  0.62200  0.50000  Biso   1.000  H
  H453     1.0000 0.50000  0.67900  0.62200  Biso   1.000  H
  H454     1.0000 0.12200  0.00000  0.17900  Biso   1.000  H
  H455     1.0000 0.17900  0.12200  0.00000  Biso   1.000  H
  H456     1.0000 0.00000  0.17900  0.12200  Biso   1.000  H
  H457     1.0000 0.28730  0.55250  0.32850  Biso   1.000  H
  H458     1.0000 0.32850  0.28730  0.55250  Biso   1.000  H
  H459     1.0000 0.55250  0.32850  0.28730  Biso   1.000  H
  H460     1.0000 0.78730  0.05250  0.82850  Biso   1.000  H
  H461     1.0000 0.82850  0.78730  0.05250  Biso   1.000  H
  H462     1.0000 0.05250  0.82850  0.78730  Biso   1.000  H
  H463     1.0000 0.28730  0.55250  0.67150  Biso   1.000  H
  H464     1.0000 0.28730  0.44750  0.32850  Biso   1.000  H
  H465     1.0000 0.71270  0.55250  0.32850  Biso   1.000  H
  H466     1.0000 0.67150  0.28730  0.55250  Biso   1.000  H
  H467     1.0000 0.32850  0.28730  0.44750  Biso   1.000  H
  H468     1.0000 0.32850  0.71270  0.55250  Biso   1.000  H
  H469     1.0000 0.55250  0.67150  0.28730  Biso   1.000  H
  H470     1.0000 0.44750  0.32850  0.28730  Biso   1.000  H
  H471     1.0000 0.55250  0.32850  0.71270  Biso   1.000  H
  H472     1.0000 0.78730  0.05250  0.17150  Biso   1.000  H
  H473     1.0000 0.78730  0.94750  0.82850  Biso   1.000  H
  H474     1.0000 0.21270  0.05250  0.82850  Biso   1.000  H
  H475     1.0000 0.17150  0.78730  0.05250  Biso   1.000  H
  H476     1.0000 0.82850  0.78730  0.94750  Biso   1.000  H
  H477     1.0000 0.82850  0.21270  0.05250  Biso   1.000  H
  H478     1.0000 0.05250  0.17150  0.78730  Biso   1.000  H
  H479     1.0000 0.94750  0.82850  0.78730  Biso   1.000  H
  H480     1.0000 0.05250  0.82850  0.21270  Biso   1.000  H
  H481     1.0000 0.71270  0.44750  0.67150  Biso   1.000  H
  H482     1.0000 0.67150  0.71270  0.44750  Biso   1.000  H
  H483     1.0000 0.44750  0.67150  0.71270  Biso   1.000  H
  H484     1.0000 0.21270  0.94750  0.17150  Biso   1.000  H
  H485     1.0000 0.17150  0.21270  0.94750  Biso   1.000  H
  H486     1.0000 0.94750  0.17150  0.21270  Biso   1.000  H
  H487     1.0000 0.71270  0.44750  0.32850  Biso   1.000  H
  H488     1.0000 0.71270  0.55250  0.67150  Biso   1.000  H
  H489     1.0000 0.28730  0.44750  0.67150  Biso   1.000  H
  H490     1.0000 0.32850  0.71270  0.44750  Biso   1.000  H
  H491     1.0000 0.67150  0.71270  0.55250  Biso   1.000  H
  H492     1.0000 0.67150  0.28730  0.44750  Biso   1.000  H
  H493     1.0000 0.44750  0.32850  0.71270  Biso   1.000  H
  H494     1.0000 0.55250  0.67150  0.71270  Biso   1.000  H
  H495     1.0000 0.44750  0.67150  0.28730  Biso   1.000  H
  H496     1.0000 0.21270  0.94750  0.82850  Biso   1.000  H
  H497     1.0000 0.21270  0.05250  0.17150  Biso   1.000  H
  H498     1.0000 0.78730  0.94750  0.17150  Biso   1.000  H
  H499     1.0000 0.82850  0.21270  0.94750  Biso   1.000  H
  H500     1.0000 0.17150  0.21270  0.05250  Biso   1.000  H
  H501     1.0000 0.17150  0.78730  0.94750  Biso   1.000  H
  H502     1.0000 0.94750  0.82850  0.21270  Biso   1.000  H
  H503     1.0000 0.05250  0.17150  0.21270  Biso   1.000  H
  H504     1.0000 0.94750  0.17150  0.78730  Biso   1.000  H
