data_image0
_cell_length_a       22.522
_cell_length_b       22.522
_cell_length_c       33.6
_cell_angle_alpha    90
_cell_angle_beta     90
_cell_angle_gamma    90

_symmetry_space_group_name_H-M    "P 1"
_symmetry_int_tables_number       1

loop_
  _symmetry_equiv_pos_as_xyz
  'x, y, z'

loop_
  _atom_site_label
  _atom_site_occupancy
  _atom_site_fract_x
  _atom_site_fract_y
  _atom_site_fract_z
  _atom_site_thermal_displace_type
  _atom_site_B_iso_or_equiv
  _atom_site_type_symbol
  B1       1.0000 0.25000  0.25000  0.75000  Biso   1.000  B
  B2       1.0000 0.00000  0.00000  0.00000  Biso   1.000  B
  B3       1.0000 0.50000  0.00000  0.50000  Biso   1.000  B
  B4       1.0000 0.75000  0.75000  0.25000  Biso   1.000  B
  B5       1.0000 0.50000  0.50000  0.50000  Biso   1.000  B
  B6       1.0000 0.00000  0.50000  0.00000  Biso   1.000  B
  B7       1.0000 0.25000  0.75000  0.25000  Biso   1.000  B
  B8       1.0000 0.75000  0.25000  0.75000  Biso   1.000  B
  F1       1.0000 0.25000  0.19260  0.75000  Biso   1.000  F
  F2       1.0000 0.05740  0.00000  0.00000  Biso   1.000  F
  F3       1.0000 0.44260  0.00000  0.50000  Biso   1.000  F
  F4       1.0000 0.75000  0.69260  0.25000  Biso   1.000  F
  F5       1.0000 0.55740  0.50000  0.50000  Biso   1.000  F
  F6       1.0000 0.94260  0.50000  0.00000  Biso   1.000  F
  F7       1.0000 0.25000  0.80740  0.25000  Biso   1.000  F
  F8       1.0000 0.75000  0.30740  0.75000  Biso   1.000  F
  F9       1.0000 0.75000  0.80740  0.25000  Biso   1.000  F
  F10      1.0000 0.44260  0.50000  0.50000  Biso   1.000  F
  F11      1.0000 0.05740  0.50000  0.00000  Biso   1.000  F
  F12      1.0000 0.25000  0.30740  0.75000  Biso   1.000  F
  F13      1.0000 0.94260  0.00000  0.00000  Biso   1.000  F
  F14      1.0000 0.55740  0.00000  0.50000  Biso   1.000  F
  F15      1.0000 0.75000  0.19260  0.75000  Biso   1.000  F
  F16      1.0000 0.25000  0.69260  0.25000  Biso   1.000  F
  F17      1.0000 0.28450  0.25000  0.71330  Biso   1.000  F
  F18      1.0000 0.00000  0.03450  0.96330  Biso   1.000  F
  F19      1.0000 0.50000  0.96550  0.46330  Biso   1.000  F
  F20      1.0000 0.50000  0.03450  0.53670  Biso   1.000  F
  F21      1.0000 0.78450  0.75000  0.21330  Biso   1.000  F
  F22      1.0000 0.50000  0.53450  0.46330  Biso   1.000  F
  F23      1.0000 0.00000  0.46550  0.96330  Biso   1.000  F
  F24      1.0000 0.00000  0.53450  0.03670  Biso   1.000  F
  F25      1.0000 0.21550  0.75000  0.21330  Biso   1.000  F
  F26      1.0000 0.21550  0.25000  0.78670  Biso   1.000  F
  F27      1.0000 0.28450  0.75000  0.28670  Biso   1.000  F
  F28      1.0000 0.00000  0.96550  0.03670  Biso   1.000  F
  F29      1.0000 0.71550  0.25000  0.71330  Biso   1.000  F
  F30      1.0000 0.71550  0.75000  0.28670  Biso   1.000  F
  F31      1.0000 0.78450  0.25000  0.78670  Biso   1.000  F
  F32      1.0000 0.50000  0.46550  0.53670  Biso   1.000  F
  B9       1.0000 0.00000  0.25000  0.87500  Biso   1.000  B
  B10      1.0000 0.00000  0.75000  0.12500  Biso   1.000  B
  B11      1.0000 0.50000  0.25000  0.62500  Biso   1.000  B
  B12      1.0000 0.50000  0.75000  0.37500  Biso   1.000  B
  F33      1.0000 0.06430  0.25000  0.87110  Biso   1.000  F
  F34      1.0000 0.00000  0.81430  0.12110  Biso   1.000  F
  F35      1.0000 0.50000  0.18570  0.62110  Biso   1.000  F
  F36      1.0000 0.50000  0.81430  0.37890  Biso   1.000  F
  F37      1.0000 0.56430  0.75000  0.37110  Biso   1.000  F
  F38      1.0000 0.50000  0.31430  0.62110  Biso   1.000  F
  F39      1.0000 0.00000  0.68570  0.12110  Biso   1.000  F
  F40      1.0000 0.00000  0.31430  0.87890  Biso   1.000  F
  F41      1.0000 0.43570  0.75000  0.37110  Biso   1.000  F
  F42      1.0000 0.43570  0.25000  0.62890  Biso   1.000  F
  F43      1.0000 0.06430  0.75000  0.12890  Biso   1.000  F
  F44      1.0000 0.00000  0.18570  0.87890  Biso   1.000  F
  F45      1.0000 0.93570  0.25000  0.87110  Biso   1.000  F
  F46      1.0000 0.93570  0.75000  0.12890  Biso   1.000  F
  F47      1.0000 0.56430  0.25000  0.62890  Biso   1.000  F
  F48      1.0000 0.50000  0.68570  0.37890  Biso   1.000  F
  Cu1      1.0000 0.32392  0.07392  0.62500  Biso   1.000  Cu
  Cu2      1.0000 0.17608  0.07392  0.87500  Biso   1.000  Cu
  Cu3      1.0000 0.32392  0.92608  0.37500  Biso   1.000  Cu
  Cu4      1.0000 0.82392  0.57392  0.12500  Biso   1.000  Cu
  Cu5      1.0000 0.67608  0.57392  0.37500  Biso   1.000  Cu
  Cu6      1.0000 0.82392  0.42608  0.87500  Biso   1.000  Cu
  Cu7      1.0000 0.17608  0.92608  0.12500  Biso   1.000  Cu
  Cu8      1.0000 0.67608  0.42608  0.62500  Biso   1.000  Cu
  Cu9      1.0000 0.67608  0.92608  0.37500  Biso   1.000  Cu
  Cu10     1.0000 0.32392  0.42608  0.62500  Biso   1.000  Cu
  Cu11     1.0000 0.17608  0.57392  0.12500  Biso   1.000  Cu
  Cu12     1.0000 0.17608  0.42608  0.87500  Biso   1.000  Cu
  Cu13     1.0000 0.82392  0.92608  0.12500  Biso   1.000  Cu
  Cu14     1.0000 0.67608  0.07392  0.62500  Biso   1.000  Cu
  Cu15     1.0000 0.82392  0.07392  0.87500  Biso   1.000  Cu
  Cu16     1.0000 0.32392  0.57392  0.37500  Biso   1.000  Cu
  N1       1.0000 0.23688  0.08135  0.64243  Biso   1.000  N
  N2       1.0000 0.16865  0.98688  0.89243  Biso   1.000  N
  N3       1.0000 0.33135  0.01312  0.39243  Biso   1.000  N
  N4       1.0000 0.33135  0.98688  0.60757  Biso   1.000  N
  N5       1.0000 0.73688  0.58135  0.14243  Biso   1.000  N
  N6       1.0000 0.66865  0.48688  0.39243  Biso   1.000  N
  N7       1.0000 0.83135  0.51312  0.89243  Biso   1.000  N
  N8       1.0000 0.83135  0.48688  0.10757  Biso   1.000  N
  N9       1.0000 0.26312  0.91865  0.14243  Biso   1.000  N
  N10      1.0000 0.26312  0.08135  0.85757  Biso   1.000  N
  N11      1.0000 0.23688  0.91865  0.35757  Biso   1.000  N
  N12      1.0000 0.16865  0.01312  0.10757  Biso   1.000  N
  N13      1.0000 0.76312  0.41865  0.64243  Biso   1.000  N
  N14      1.0000 0.76312  0.58135  0.35757  Biso   1.000  N
  N15      1.0000 0.73688  0.41865  0.85757  Biso   1.000  N
  N16      1.0000 0.66865  0.51312  0.60757  Biso   1.000  N
  N17      1.0000 0.76312  0.91865  0.35757  Biso   1.000  N
  N18      1.0000 0.33135  0.51312  0.60757  Biso   1.000  N
  N19      1.0000 0.16865  0.48688  0.10757  Biso   1.000  N
  N20      1.0000 0.16865  0.51312  0.89243  Biso   1.000  N
  N21      1.0000 0.26312  0.41865  0.85757  Biso   1.000  N
  N22      1.0000 0.83135  0.01312  0.10757  Biso   1.000  N
  N23      1.0000 0.66865  0.98688  0.60757  Biso   1.000  N
  N24      1.0000 0.66865  0.01312  0.39243  Biso   1.000  N
  N25      1.0000 0.73688  0.08135  0.85757  Biso   1.000  N
  N26      1.0000 0.73688  0.91865  0.14243  Biso   1.000  N
  N27      1.0000 0.76312  0.08135  0.64243  Biso   1.000  N
  N28      1.0000 0.33135  0.48688  0.39243  Biso   1.000  N
  N29      1.0000 0.23688  0.58135  0.35757  Biso   1.000  N
  N30      1.0000 0.23688  0.41865  0.64243  Biso   1.000  N
  N31      1.0000 0.26312  0.58135  0.14243  Biso   1.000  N
  N32      1.0000 0.83135  0.98688  0.89243  Biso   1.000  N
  C1       1.0000 0.22020  0.11390  0.67355  Biso   1.000  C
  C2       1.0000 0.13610  0.97020  0.92355  Biso   1.000  C
  C3       1.0000 0.36390  0.02980  0.42355  Biso   1.000  C
  C4       1.0000 0.36390  0.97020  0.57645  Biso   1.000  C
  C5       1.0000 0.72020  0.61390  0.17355  Biso   1.000  C
  C6       1.0000 0.63610  0.47020  0.42355  Biso   1.000  C
  C7       1.0000 0.86390  0.52980  0.92355  Biso   1.000  C
  C8       1.0000 0.86390  0.47020  0.07645  Biso   1.000  C
  C9       1.0000 0.27980  0.88610  0.17355  Biso   1.000  C
  C10      1.0000 0.27980  0.11390  0.82645  Biso   1.000  C
  C11      1.0000 0.22020  0.88610  0.32645  Biso   1.000  C
  C12      1.0000 0.13610  0.02980  0.07645  Biso   1.000  C
  C13      1.0000 0.77980  0.38610  0.67355  Biso   1.000  C
  C14      1.0000 0.77980  0.61390  0.32645  Biso   1.000  C
  C15      1.0000 0.72020  0.38610  0.82645  Biso   1.000  C
  C16      1.0000 0.63610  0.52980  0.57645  Biso   1.000  C
  C17      1.0000 0.77980  0.88610  0.32645  Biso   1.000  C
  C18      1.0000 0.36390  0.52980  0.57645  Biso   1.000  C
  C19      1.0000 0.13610  0.47020  0.07645  Biso   1.000  C
  C20      1.0000 0.13610  0.52980  0.92355  Biso   1.000  C
  C21      1.0000 0.27980  0.38610  0.82645  Biso   1.000  C
  C22      1.0000 0.86390  0.02980  0.07645  Biso   1.000  C
  C23      1.0000 0.63610  0.97020  0.57645  Biso   1.000  C
  C24      1.0000 0.63610  0.02980  0.42355  Biso   1.000  C
  C25      1.0000 0.72020  0.11390  0.82645  Biso   1.000  C
  C26      1.0000 0.72020  0.88610  0.17355  Biso   1.000  C
  C27      1.0000 0.77980  0.11390  0.67355  Biso   1.000  C
  C28      1.0000 0.36390  0.47020  0.42355  Biso   1.000  C
  C29      1.0000 0.22020  0.61390  0.32645  Biso   1.000  C
  C30      1.0000 0.22020  0.38610  0.67355  Biso   1.000  C
  C31      1.0000 0.27980  0.61390  0.17355  Biso   1.000  C
  C32      1.0000 0.86390  0.97020  0.92355  Biso   1.000  C
  H1       1.0000 0.25050  0.13350  0.68810  Biso   1.000  H
  H2       1.0000 0.11650  0.00050  0.93810  Biso   1.000  H
  H3       1.0000 0.38350  0.99950  0.43810  Biso   1.000  H
  H4       1.0000 0.38350  0.00050  0.56190  Biso   1.000  H
  H5       1.0000 0.75050  0.63350  0.18810  Biso   1.000  H
  H6       1.0000 0.61650  0.50050  0.43810  Biso   1.000  H
  H7       1.0000 0.88350  0.49950  0.93810  Biso   1.000  H
  H8       1.0000 0.88350  0.50050  0.06190  Biso   1.000  H
  H9       1.0000 0.24950  0.86650  0.18810  Biso   1.000  H
  H10      1.0000 0.24950  0.13350  0.81190  Biso   1.000  H
  H11      1.0000 0.25050  0.86650  0.31190  Biso   1.000  H
  H12      1.0000 0.11650  0.99950  0.06190  Biso   1.000  H
  H13      1.0000 0.74950  0.36650  0.68810  Biso   1.000  H
  H14      1.0000 0.74950  0.63350  0.31190  Biso   1.000  H
  H15      1.0000 0.75050  0.36650  0.81190  Biso   1.000  H
  H16      1.0000 0.61650  0.49950  0.56190  Biso   1.000  H
  H17      1.0000 0.74950  0.86650  0.31190  Biso   1.000  H
  H18      1.0000 0.38350  0.49950  0.56190  Biso   1.000  H
  H19      1.0000 0.11650  0.50050  0.06190  Biso   1.000  H
  H20      1.0000 0.11650  0.49950  0.93810  Biso   1.000  H
  H21      1.0000 0.24950  0.36650  0.81190  Biso   1.000  H
  H22      1.0000 0.88350  0.99950  0.06190  Biso   1.000  H
  H23      1.0000 0.61650  0.00050  0.56190  Biso   1.000  H
  H24      1.0000 0.61650  0.99950  0.43810  Biso   1.000  H
  H25      1.0000 0.75050  0.13350  0.81190  Biso   1.000  H
  H26      1.0000 0.75050  0.86650  0.18810  Biso   1.000  H
  H27      1.0000 0.74950  0.13350  0.68810  Biso   1.000  H
  H28      1.0000 0.38350  0.50050  0.43810  Biso   1.000  H
  H29      1.0000 0.25050  0.63350  0.31190  Biso   1.000  H
  H30      1.0000 0.25050  0.36650  0.68810  Biso   1.000  H
  H31      1.0000 0.24950  0.63350  0.18810  Biso   1.000  H
  H32      1.0000 0.88350  0.00050  0.93810  Biso   1.000  H
  C33      1.0000 0.16330  0.12130  0.68613  Biso   1.000  C
  C34      1.0000 0.12870  0.91330  0.93613  Biso   1.000  C
  C35      1.0000 0.37130  0.08670  0.43613  Biso   1.000  C
  C36      1.0000 0.37130  0.91330  0.56387  Biso   1.000  C
  C37      1.0000 0.66330  0.62130  0.18613  Biso   1.000  C
  C38      1.0000 0.62870  0.41330  0.43613  Biso   1.000  C
  C39      1.0000 0.87130  0.58670  0.93613  Biso   1.000  C
  C40      1.0000 0.87130  0.41330  0.06387  Biso   1.000  C
  C41      1.0000 0.33670  0.87870  0.18613  Biso   1.000  C
  C42      1.0000 0.33670  0.12130  0.81387  Biso   1.000  C
  C43      1.0000 0.16330  0.87870  0.31387  Biso   1.000  C
  C44      1.0000 0.12870  0.08670  0.06387  Biso   1.000  C
  C45      1.0000 0.83670  0.37870  0.68613  Biso   1.000  C
  C46      1.0000 0.83670  0.62130  0.31387  Biso   1.000  C
  C47      1.0000 0.66330  0.37870  0.81387  Biso   1.000  C
  C48      1.0000 0.62870  0.58670  0.56387  Biso   1.000  C
  C49      1.0000 0.83670  0.87870  0.31387  Biso   1.000  C
  C50      1.0000 0.37130  0.58670  0.56387  Biso   1.000  C
  C51      1.0000 0.12870  0.41330  0.06387  Biso   1.000  C
  C52      1.0000 0.12870  0.58670  0.93613  Biso   1.000  C
  C53      1.0000 0.33670  0.37870  0.81387  Biso   1.000  C
  C54      1.0000 0.87130  0.08670  0.06387  Biso   1.000  C
  C55      1.0000 0.62870  0.91330  0.56387  Biso   1.000  C
  C56      1.0000 0.62870  0.08670  0.43613  Biso   1.000  C
  C57      1.0000 0.66330  0.12130  0.81387  Biso   1.000  C
  C58      1.0000 0.66330  0.87870  0.18613  Biso   1.000  C
  C59      1.0000 0.83670  0.12130  0.68613  Biso   1.000  C
  C60      1.0000 0.37130  0.41330  0.43613  Biso   1.000  C
  C61      1.0000 0.16330  0.62130  0.31387  Biso   1.000  C
  C62      1.0000 0.16330  0.37870  0.68613  Biso   1.000  C
  C63      1.0000 0.33670  0.62130  0.18613  Biso   1.000  C
  C64      1.0000 0.87130  0.91330  0.93613  Biso   1.000  C
  H33      1.0000 0.15480  0.14610  0.70830  Biso   1.000  H
  H34      1.0000 0.10390  0.90480  0.95830  Biso   1.000  H
  H35      1.0000 0.39610  0.09520  0.45830  Biso   1.000  H
  H36      1.0000 0.39610  0.90480  0.54170  Biso   1.000  H
  H37      1.0000 0.65480  0.64610  0.20830  Biso   1.000  H
  H38      1.0000 0.60390  0.40480  0.45830  Biso   1.000  H
  H39      1.0000 0.89610  0.59520  0.95830  Biso   1.000  H
  H40      1.0000 0.89610  0.40480  0.04170  Biso   1.000  H
  H41      1.0000 0.34520  0.85390  0.20830  Biso   1.000  H
  H42      1.0000 0.34520  0.14610  0.79170  Biso   1.000  H
  H43      1.0000 0.15480  0.85390  0.29170  Biso   1.000  H
  H44      1.0000 0.10390  0.09520  0.04170  Biso   1.000  H
  H45      1.0000 0.84520  0.35390  0.70830  Biso   1.000  H
  H46      1.0000 0.84520  0.64610  0.29170  Biso   1.000  H
  H47      1.0000 0.65480  0.35390  0.79170  Biso   1.000  H
  H48      1.0000 0.60390  0.59520  0.54170  Biso   1.000  H
  H49      1.0000 0.84520  0.85390  0.29170  Biso   1.000  H
  H50      1.0000 0.39610  0.59520  0.54170  Biso   1.000  H
  H51      1.0000 0.10390  0.40480  0.04170  Biso   1.000  H
  H52      1.0000 0.10390  0.59520  0.95830  Biso   1.000  H
  H53      1.0000 0.34520  0.35390  0.79170  Biso   1.000  H
  H54      1.0000 0.89610  0.09520  0.04170  Biso   1.000  H
  H55      1.0000 0.60390  0.90480  0.54170  Biso   1.000  H
  H56      1.0000 0.60390  0.09520  0.45830  Biso   1.000  H
  H57      1.0000 0.65480  0.14610  0.79170  Biso   1.000  H
  H58      1.0000 0.65480  0.85390  0.20830  Biso   1.000  H
  H59      1.0000 0.84520  0.14610  0.70830  Biso   1.000  H
  H60      1.0000 0.39610  0.40480  0.45830  Biso   1.000  H
  H61      1.0000 0.15480  0.64610  0.29170  Biso   1.000  H
  H62      1.0000 0.15480  0.35390  0.70830  Biso   1.000  H
  H63      1.0000 0.34520  0.64610  0.20830  Biso   1.000  H
  H64      1.0000 0.89610  0.90480  0.95830  Biso   1.000  H
  C65      1.0000 0.11770  0.09200  0.66610  Biso   1.000  C
  C66      1.0000 0.15800  0.86770  0.91610  Biso   1.000  C
  C67      1.0000 0.34200  0.13230  0.41610  Biso   1.000  C
  C68      1.0000 0.34200  0.86770  0.58390  Biso   1.000  C
  C69      1.0000 0.61770  0.59200  0.16610  Biso   1.000  C
  C70      1.0000 0.65800  0.36770  0.41610  Biso   1.000  C
  C71      1.0000 0.84200  0.63230  0.91610  Biso   1.000  C
  C72      1.0000 0.84200  0.36770  0.08390  Biso   1.000  C
  C73      1.0000 0.38230  0.90800  0.16610  Biso   1.000  C
  C74      1.0000 0.38230  0.09200  0.83390  Biso   1.000  C
  C75      1.0000 0.11770  0.90800  0.33390  Biso   1.000  C
  C76      1.0000 0.15800  0.13230  0.08390  Biso   1.000  C
  C77      1.0000 0.88230  0.40800  0.66610  Biso   1.000  C
  C78      1.0000 0.88230  0.59200  0.33390  Biso   1.000  C
  C79      1.0000 0.61770  0.40800  0.83390  Biso   1.000  C
  C80      1.0000 0.65800  0.63230  0.58390  Biso   1.000  C
  C81      1.0000 0.88230  0.90800  0.33390  Biso   1.000  C
  C82      1.0000 0.34200  0.63230  0.58390  Biso   1.000  C
  C83      1.0000 0.15800  0.36770  0.08390  Biso   1.000  C
  C84      1.0000 0.15800  0.63230  0.91610  Biso   1.000  C
  C85      1.0000 0.38230  0.40800  0.83390  Biso   1.000  C
  C86      1.0000 0.84200  0.13230  0.08390  Biso   1.000  C
  C87      1.0000 0.65800  0.86770  0.58390  Biso   1.000  C
  C88      1.0000 0.65800  0.13230  0.41610  Biso   1.000  C
  C89      1.0000 0.61770  0.09200  0.83390  Biso   1.000  C
  C90      1.0000 0.61770  0.90800  0.16610  Biso   1.000  C
  C91      1.0000 0.88230  0.09200  0.66610  Biso   1.000  C
  C92      1.0000 0.34200  0.36770  0.41610  Biso   1.000  C
  C93      1.0000 0.11770  0.59200  0.33390  Biso   1.000  C
  C94      1.0000 0.11770  0.40800  0.66610  Biso   1.000  C
  C95      1.0000 0.38230  0.59200  0.16610  Biso   1.000  C
  C96      1.0000 0.84200  0.86770  0.91610  Biso   1.000  C
  C97      1.0000 0.13430  0.05760  0.63369  Biso   1.000  C
  C98      1.0000 0.19240  0.88430  0.88369  Biso   1.000  C
  C99      1.0000 0.30760  0.11570  0.38369  Biso   1.000  C
  C100     1.0000 0.30760  0.88430  0.61631  Biso   1.000  C
  C101     1.0000 0.63430  0.55760  0.13369  Biso   1.000  C
  C102     1.0000 0.69240  0.38430  0.38369  Biso   1.000  C
  C103     1.0000 0.80760  0.61570  0.88369  Biso   1.000  C
  C104     1.0000 0.80760  0.38430  0.11631  Biso   1.000  C
  C105     1.0000 0.36570  0.94240  0.13369  Biso   1.000  C
  C106     1.0000 0.36570  0.05760  0.86631  Biso   1.000  C
  C107     1.0000 0.13430  0.94240  0.36631  Biso   1.000  C
  C108     1.0000 0.19240  0.11570  0.11631  Biso   1.000  C
  C109     1.0000 0.86570  0.44240  0.63369  Biso   1.000  C
  C110     1.0000 0.86570  0.55760  0.36631  Biso   1.000  C
  C111     1.0000 0.63430  0.44240  0.86631  Biso   1.000  C
  C112     1.0000 0.69240  0.61570  0.61631  Biso   1.000  C
  C113     1.0000 0.86570  0.94240  0.36631  Biso   1.000  C
  C114     1.0000 0.30760  0.61570  0.61631  Biso   1.000  C
  C115     1.0000 0.19240  0.38430  0.11631  Biso   1.000  C
  C116     1.0000 0.19240  0.61570  0.88369  Biso   1.000  C
  C117     1.0000 0.36570  0.44240  0.86631  Biso   1.000  C
  C118     1.0000 0.80760  0.11570  0.11631  Biso   1.000  C
  C119     1.0000 0.69240  0.88430  0.61631  Biso   1.000  C
  C120     1.0000 0.69240  0.11570  0.38369  Biso   1.000  C
  C121     1.0000 0.63430  0.05760  0.86631  Biso   1.000  C
  C122     1.0000 0.63430  0.94240  0.13369  Biso   1.000  C
  C123     1.0000 0.86570  0.05760  0.63369  Biso   1.000  C
  C124     1.0000 0.30760  0.38430  0.38369  Biso   1.000  C
  C125     1.0000 0.13430  0.55760  0.36631  Biso   1.000  C
  C126     1.0000 0.13430  0.44240  0.63369  Biso   1.000  C
  C127     1.0000 0.36570  0.55760  0.13369  Biso   1.000  C
  C128     1.0000 0.80760  0.88430  0.88369  Biso   1.000  C
  H65      1.0000 0.10480  0.03750  0.61870  Biso   1.000  H
  H66      1.0000 0.21250  0.85480  0.86870  Biso   1.000  H
  H67      1.0000 0.28750  0.14520  0.36870  Biso   1.000  H
  H68      1.0000 0.28750  0.85480  0.63130  Biso   1.000  H
  H69      1.0000 0.60480  0.53750  0.11870  Biso   1.000  H
  H70      1.0000 0.71250  0.35480  0.36870  Biso   1.000  H
  H71      1.0000 0.78750  0.64520  0.86870  Biso   1.000  H
  H72      1.0000 0.78750  0.35480  0.13130  Biso   1.000  H
  H73      1.0000 0.39520  0.96250  0.11870  Biso   1.000  H
  H74      1.0000 0.39520  0.03750  0.88130  Biso   1.000  H
  H75      1.0000 0.10480  0.96250  0.38130  Biso   1.000  H
  H76      1.0000 0.21250  0.14520  0.13130  Biso   1.000  H
  H77      1.0000 0.89520  0.46250  0.61870  Biso   1.000  H
  H78      1.0000 0.89520  0.53750  0.38130  Biso   1.000  H
  H79      1.0000 0.60480  0.46250  0.88130  Biso   1.000  H
  H80      1.0000 0.71250  0.64520  0.63130  Biso   1.000  H
  H81      1.0000 0.89520  0.96250  0.38130  Biso   1.000  H
  H82      1.0000 0.28750  0.64520  0.63130  Biso   1.000  H
  H83      1.0000 0.21250  0.35480  0.13130  Biso   1.000  H
  H84      1.0000 0.21250  0.64520  0.86870  Biso   1.000  H
  H85      1.0000 0.39520  0.46250  0.88130  Biso   1.000  H
  H86      1.0000 0.78750  0.14520  0.13130  Biso   1.000  H
  H87      1.0000 0.71250  0.85480  0.63130  Biso   1.000  H
  H88      1.0000 0.71250  0.14520  0.36870  Biso   1.000  H
  H89      1.0000 0.60480  0.03750  0.88130  Biso   1.000  H
  H90      1.0000 0.60480  0.96250  0.11870  Biso   1.000  H
  H91      1.0000 0.89520  0.03750  0.61870  Biso   1.000  H
  H92      1.0000 0.28750  0.35480  0.36870  Biso   1.000  H
  H93      1.0000 0.10480  0.53750  0.38130  Biso   1.000  H
  H94      1.0000 0.10480  0.46250  0.61870  Biso   1.000  H
  H95      1.0000 0.39520  0.53750  0.11870  Biso   1.000  H
  H96      1.0000 0.78750  0.85480  0.86870  Biso   1.000  H
  C129     1.0000 0.19282  0.05240  0.62312  Biso   1.000  C
  C130     1.0000 0.19760  0.94282  0.87312  Biso   1.000  C
  C131     1.0000 0.30240  0.05718  0.37312  Biso   1.000  C
  C132     1.0000 0.30240  0.94282  0.62688  Biso   1.000  C
  C133     1.0000 0.69282  0.55240  0.12312  Biso   1.000  C
  C134     1.0000 0.69760  0.44282  0.37312  Biso   1.000  C
  C135     1.0000 0.80240  0.55718  0.87312  Biso   1.000  C
  C136     1.0000 0.80240  0.44282  0.12688  Biso   1.000  C
  C137     1.0000 0.30718  0.94760  0.12312  Biso   1.000  C
  C138     1.0000 0.30718  0.05240  0.87688  Biso   1.000  C
  C139     1.0000 0.19282  0.94760  0.37688  Biso   1.000  C
  C140     1.0000 0.19760  0.05718  0.12688  Biso   1.000  C
  C141     1.0000 0.80718  0.44760  0.62312  Biso   1.000  C
  C142     1.0000 0.80718  0.55240  0.37688  Biso   1.000  C
  C143     1.0000 0.69282  0.44760  0.87688  Biso   1.000  C
  C144     1.0000 0.69760  0.55718  0.62688  Biso   1.000  C
  C145     1.0000 0.80718  0.94760  0.37688  Biso   1.000  C
  C146     1.0000 0.30240  0.55718  0.62688  Biso   1.000  C
  C147     1.0000 0.19760  0.44282  0.12688  Biso   1.000  C
  C148     1.0000 0.19760  0.55718  0.87312  Biso   1.000  C
  C149     1.0000 0.30718  0.44760  0.87688  Biso   1.000  C
  C150     1.0000 0.80240  0.05718  0.12688  Biso   1.000  C
  C151     1.0000 0.69760  0.94282  0.62688  Biso   1.000  C
  C152     1.0000 0.69760  0.05718  0.37312  Biso   1.000  C
  C153     1.0000 0.69282  0.05240  0.87688  Biso   1.000  C
  C154     1.0000 0.69282  0.94760  0.12312  Biso   1.000  C
  C155     1.0000 0.80718  0.05240  0.62312  Biso   1.000  C
  C156     1.0000 0.30240  0.44282  0.37312  Biso   1.000  C
  C157     1.0000 0.19282  0.55240  0.37688  Biso   1.000  C
  C158     1.0000 0.19282  0.44760  0.62312  Biso   1.000  C
  C159     1.0000 0.30718  0.55240  0.12312  Biso   1.000  C
  C160     1.0000 0.80240  0.94282  0.87312  Biso   1.000  C
  H97      1.0000 0.20290  0.02750  0.60130  Biso   1.000  H
  H98      1.0000 0.22250  0.95290  0.85130  Biso   1.000  H
  H99      1.0000 0.27750  0.04710  0.35130  Biso   1.000  H
  H100     1.0000 0.27750  0.95290  0.64870  Biso   1.000  H
  H101     1.0000 0.70290  0.52750  0.10130  Biso   1.000  H
  H102     1.0000 0.72250  0.45290  0.35130  Biso   1.000  H
  H103     1.0000 0.77750  0.54710  0.85130  Biso   1.000  H
  H104     1.0000 0.77750  0.45290  0.14870  Biso   1.000  H
  H105     1.0000 0.29710  0.97250  0.10130  Biso   1.000  H
  H106     1.0000 0.29710  0.02750  0.89870  Biso   1.000  H
  H107     1.0000 0.20290  0.97250  0.39870  Biso   1.000  H
  H108     1.0000 0.22250  0.04710  0.14870  Biso   1.000  H
  H109     1.0000 0.79710  0.47250  0.60130  Biso   1.000  H
  H110     1.0000 0.79710  0.52750  0.39870  Biso   1.000  H
  H111     1.0000 0.70290  0.47250  0.89870  Biso   1.000  H
  H112     1.0000 0.72250  0.54710  0.64870  Biso   1.000  H
  H113     1.0000 0.79710  0.97250  0.39870  Biso   1.000  H
  H114     1.0000 0.27750  0.54710  0.64870  Biso   1.000  H
  H115     1.0000 0.22250  0.45290  0.14870  Biso   1.000  H
  H116     1.0000 0.22250  0.54710  0.85130  Biso   1.000  H
  H117     1.0000 0.29710  0.47250  0.89870  Biso   1.000  H
  H118     1.0000 0.77750  0.04710  0.14870  Biso   1.000  H
  H119     1.0000 0.72250  0.95290  0.64870  Biso   1.000  H
  H120     1.0000 0.72250  0.04710  0.35130  Biso   1.000  H
  H121     1.0000 0.70290  0.02750  0.89870  Biso   1.000  H
  H122     1.0000 0.70290  0.97250  0.10130  Biso   1.000  H
  H123     1.0000 0.79710  0.02750  0.60130  Biso   1.000  H
  H124     1.0000 0.27750  0.45290  0.35130  Biso   1.000  H
  H125     1.0000 0.20290  0.52750  0.39870  Biso   1.000  H
  H126     1.0000 0.20290  0.47250  0.60130  Biso   1.000  H
  H127     1.0000 0.29710  0.52750  0.10130  Biso   1.000  H
  H128     1.0000 0.77750  0.95290  0.85130  Biso   1.000  H
  C161     1.0000 0.05520  0.09600  0.67830  Biso   1.000  C
  C162     1.0000 0.15400  0.80520  0.92830  Biso   1.000  C
  C163     1.0000 0.34600  0.19480  0.42830  Biso   1.000  C
  C164     1.0000 0.34600  0.80520  0.57170  Biso   1.000  C
  C165     1.0000 0.55520  0.59600  0.17830  Biso   1.000  C
  C166     1.0000 0.65400  0.30520  0.42830  Biso   1.000  C
  C167     1.0000 0.84600  0.69480  0.92830  Biso   1.000  C
  C168     1.0000 0.84600  0.30520  0.07170  Biso   1.000  C
  C169     1.0000 0.44480  0.90400  0.17830  Biso   1.000  C
  C170     1.0000 0.44480  0.09600  0.82170  Biso   1.000  C
  C171     1.0000 0.05520  0.90400  0.32170  Biso   1.000  C
  C172     1.0000 0.15400  0.19480  0.07170  Biso   1.000  C
  C173     1.0000 0.94480  0.40400  0.67830  Biso   1.000  C
  C174     1.0000 0.94480  0.59600  0.32170  Biso   1.000  C
  C175     1.0000 0.55520  0.40400  0.82170  Biso   1.000  C
  C176     1.0000 0.65400  0.69480  0.57170  Biso   1.000  C
  C177     1.0000 0.94480  0.90400  0.32170  Biso   1.000  C
  C178     1.0000 0.34600  0.69480  0.57170  Biso   1.000  C
  C179     1.0000 0.15400  0.30520  0.07170  Biso   1.000  C
  C180     1.0000 0.15400  0.69480  0.92830  Biso   1.000  C
  C181     1.0000 0.44480  0.40400  0.82170  Biso   1.000  C
  C182     1.0000 0.84600  0.19480  0.07170  Biso   1.000  C
  C183     1.0000 0.65400  0.80520  0.57170  Biso   1.000  C
  C184     1.0000 0.65400  0.19480  0.42830  Biso   1.000  C
  C185     1.0000 0.55520  0.09600  0.82170  Biso   1.000  C
  C186     1.0000 0.55520  0.90400  0.17830  Biso   1.000  C
  C187     1.0000 0.94480  0.09600  0.67830  Biso   1.000  C
  C188     1.0000 0.34600  0.30520  0.42830  Biso   1.000  C
  C189     1.0000 0.05520  0.59600  0.32170  Biso   1.000  C
  C190     1.0000 0.05520  0.40400  0.67830  Biso   1.000  C
  C191     1.0000 0.44480  0.59600  0.17830  Biso   1.000  C
  C192     1.0000 0.84600  0.80520  0.92830  Biso   1.000  C
  S1       1.0000 0.00000  0.09321  0.64275  Biso   1.000  S
  S2       1.0000 0.15679  0.75000  0.89275  Biso   1.000  S
  S3       1.0000 0.34321  0.25000  0.39275  Biso   1.000  S
  S4       1.0000 0.34321  0.75000  0.60725  Biso   1.000  S
  S5       1.0000 0.50000  0.59321  0.14275  Biso   1.000  S
  S6       1.0000 0.65679  0.25000  0.39275  Biso   1.000  S
  S7       1.0000 0.84321  0.75000  0.89275  Biso   1.000  S
  S8       1.0000 0.84321  0.25000  0.10725  Biso   1.000  S
  S9       1.0000 0.50000  0.90679  0.14275  Biso   1.000  S
  S10      1.0000 0.50000  0.09321  0.85725  Biso   1.000  S
  S11      1.0000 0.00000  0.90679  0.35725  Biso   1.000  S
  S12      1.0000 0.15679  0.25000  0.10725  Biso   1.000  S
  S13      1.0000 0.00000  0.40679  0.64275  Biso   1.000  S
  S14      1.0000 0.00000  0.59321  0.35725  Biso   1.000  S
  S15      1.0000 0.50000  0.40679  0.85725  Biso   1.000  S
  S16      1.0000 0.65679  0.75000  0.60725  Biso   1.000  S
  C193     1.0000 0.03207  0.10050  0.71567  Biso   1.000  C
  C194     1.0000 0.14950  0.78207  0.96567  Biso   1.000  C
  C195     1.0000 0.35050  0.21793  0.46567  Biso   1.000  C
  C196     1.0000 0.35050  0.78207  0.53433  Biso   1.000  C
  C197     1.0000 0.53207  0.60050  0.21567  Biso   1.000  C
  C198     1.0000 0.64950  0.28207  0.46567  Biso   1.000  C
  C199     1.0000 0.85050  0.71793  0.96567  Biso   1.000  C
  C200     1.0000 0.85050  0.28207  0.03433  Biso   1.000  C
  C201     1.0000 0.46793  0.89950  0.21567  Biso   1.000  C
  C202     1.0000 0.46793  0.10050  0.78433  Biso   1.000  C
  C203     1.0000 0.03207  0.89950  0.28433  Biso   1.000  C
  C204     1.0000 0.14950  0.21793  0.03433  Biso   1.000  C
  C205     1.0000 0.96793  0.39950  0.71567  Biso   1.000  C
  C206     1.0000 0.96793  0.60050  0.28433  Biso   1.000  C
  C207     1.0000 0.53207  0.39950  0.78433  Biso   1.000  C
  C208     1.0000 0.64950  0.71793  0.53433  Biso   1.000  C
  C209     1.0000 0.96793  0.89950  0.28433  Biso   1.000  C
  C210     1.0000 0.35050  0.71793  0.53433  Biso   1.000  C
  C211     1.0000 0.14950  0.28207  0.03433  Biso   1.000  C
  C212     1.0000 0.14950  0.71793  0.96567  Biso   1.000  C
  C213     1.0000 0.46793  0.39950  0.78433  Biso   1.000  C
  C214     1.0000 0.85050  0.21793  0.03433  Biso   1.000  C
  C215     1.0000 0.64950  0.78207  0.53433  Biso   1.000  C
  C216     1.0000 0.64950  0.21793  0.46567  Biso   1.000  C
  C217     1.0000 0.53207  0.10050  0.78433  Biso   1.000  C
  C218     1.0000 0.53207  0.89950  0.21567  Biso   1.000  C
  C219     1.0000 0.96793  0.10050  0.71567  Biso   1.000  C
  C220     1.0000 0.35050  0.28207  0.46567  Biso   1.000  C
  C221     1.0000 0.03207  0.60050  0.28433  Biso   1.000  C
  C222     1.0000 0.03207  0.39950  0.71567  Biso   1.000  C
  C223     1.0000 0.46793  0.60050  0.21567  Biso   1.000  C
  C224     1.0000 0.85050  0.78207  0.96567  Biso   1.000  C
  C225     1.0000 0.06700  0.09650  0.75313  Biso   1.000  C
  C226     1.0000 0.15350  0.81700  0.00313  Biso   1.000  C
  C227     1.0000 0.34650  0.18300  0.50313  Biso   1.000  C
  C228     1.0000 0.34650  0.81700  0.49687  Biso   1.000  C
  C229     1.0000 0.56700  0.59650  0.25313  Biso   1.000  C
  C230     1.0000 0.65350  0.31700  0.50313  Biso   1.000  C
  C231     1.0000 0.84650  0.68300  0.00313  Biso   1.000  C
  C232     1.0000 0.84650  0.31700  0.99687  Biso   1.000  C
  C233     1.0000 0.43300  0.90350  0.25313  Biso   1.000  C
  C234     1.0000 0.43300  0.09650  0.74687  Biso   1.000  C
  C235     1.0000 0.06700  0.90350  0.24687  Biso   1.000  C
  C236     1.0000 0.15350  0.18300  0.99687  Biso   1.000  C
  C237     1.0000 0.93300  0.40350  0.75313  Biso   1.000  C
  C238     1.0000 0.93300  0.59650  0.24687  Biso   1.000  C
  C239     1.0000 0.56700  0.40350  0.74687  Biso   1.000  C
  C240     1.0000 0.65350  0.68300  0.49687  Biso   1.000  C
  C241     1.0000 0.93300  0.90350  0.24687  Biso   1.000  C
  C242     1.0000 0.34650  0.68300  0.49687  Biso   1.000  C
  C243     1.0000 0.15350  0.31700  0.99687  Biso   1.000  C
  C244     1.0000 0.15350  0.68300  0.00313  Biso   1.000  C
  C245     1.0000 0.43300  0.40350  0.74687  Biso   1.000  C
  C246     1.0000 0.84650  0.18300  0.99687  Biso   1.000  C
  C247     1.0000 0.65350  0.81700  0.49687  Biso   1.000  C
  C248     1.0000 0.65350  0.18300  0.50313  Biso   1.000  C
  C249     1.0000 0.56700  0.09650  0.74687  Biso   1.000  C
  C250     1.0000 0.56700  0.90350  0.25313  Biso   1.000  C
  C251     1.0000 0.93300  0.09650  0.75313  Biso   1.000  C
  C252     1.0000 0.34650  0.31700  0.50313  Biso   1.000  C
  C253     1.0000 0.06700  0.59650  0.24687  Biso   1.000  C
  C254     1.0000 0.06700  0.40350  0.75313  Biso   1.000  C
  C255     1.0000 0.43300  0.59650  0.25313  Biso   1.000  C
  C256     1.0000 0.84650  0.81700  0.00313  Biso   1.000  C
  C257     1.0000 0.09090  0.04400  0.76507  Biso   1.000  C
  C258     1.0000 0.20600  0.84090  0.01507  Biso   1.000  C
  C259     1.0000 0.29400  0.15910  0.51507  Biso   1.000  C
  C260     1.0000 0.29400  0.84090  0.48493  Biso   1.000  C
  C261     1.0000 0.59090  0.54400  0.26507  Biso   1.000  C
  C262     1.0000 0.70600  0.34090  0.51507  Biso   1.000  C
  C263     1.0000 0.79400  0.65910  0.01507  Biso   1.000  C
  C264     1.0000 0.79400  0.34090  0.98493  Biso   1.000  C
  C265     1.0000 0.40910  0.95600  0.26507  Biso   1.000  C
  C266     1.0000 0.40910  0.04400  0.73493  Biso   1.000  C
  C267     1.0000 0.09090  0.95600  0.23493  Biso   1.000  C
  C268     1.0000 0.20600  0.15910  0.98493  Biso   1.000  C
  C269     1.0000 0.90910  0.45600  0.76507  Biso   1.000  C
  C270     1.0000 0.90910  0.54400  0.23493  Biso   1.000  C
  C271     1.0000 0.59090  0.45600  0.73493  Biso   1.000  C
  C272     1.0000 0.70600  0.65910  0.48493  Biso   1.000  C
  C273     1.0000 0.90910  0.95600  0.23493  Biso   1.000  C
  C274     1.0000 0.29400  0.65910  0.48493  Biso   1.000  C
  C275     1.0000 0.20600  0.34090  0.98493  Biso   1.000  C
  C276     1.0000 0.20600  0.65910  0.01507  Biso   1.000  C
  C277     1.0000 0.40910  0.45600  0.73493  Biso   1.000  C
  C278     1.0000 0.79400  0.15910  0.98493  Biso   1.000  C
  C279     1.0000 0.70600  0.84090  0.48493  Biso   1.000  C
  C280     1.0000 0.70600  0.15910  0.51507  Biso   1.000  C
  C281     1.0000 0.59090  0.04400  0.73493  Biso   1.000  C
  C282     1.0000 0.59090  0.95600  0.26507  Biso   1.000  C
  C283     1.0000 0.90910  0.04400  0.76507  Biso   1.000  C
  C284     1.0000 0.29400  0.34090  0.51507  Biso   1.000  C
  C285     1.0000 0.09090  0.54400  0.23493  Biso   1.000  C
  C286     1.0000 0.09090  0.45600  0.76507  Biso   1.000  C
  C287     1.0000 0.40910  0.54400  0.26507  Biso   1.000  C
  C288     1.0000 0.79400  0.84090  0.01507  Biso   1.000  C
  H129     1.0000 0.08760  0.00990  0.74860  Biso   1.000  H
  H130     1.0000 0.24010  0.83760  0.99860  Biso   1.000  H
  H131     1.0000 0.25990  0.16240  0.49860  Biso   1.000  H
  H132     1.0000 0.25990  0.83760  0.50140  Biso   1.000  H
  H133     1.0000 0.58760  0.50990  0.24860  Biso   1.000  H
  H134     1.0000 0.74010  0.33760  0.49860  Biso   1.000  H
  H135     1.0000 0.75990  0.66240  0.99860  Biso   1.000  H
  H136     1.0000 0.75990  0.33760  0.00140  Biso   1.000  H
  H137     1.0000 0.41240  0.99010  0.24860  Biso   1.000  H
  H138     1.0000 0.41240  0.00990  0.75140  Biso   1.000  H
  H139     1.0000 0.08760  0.99010  0.25140  Biso   1.000  H
  H140     1.0000 0.24010  0.16240  0.00140  Biso   1.000  H
  H141     1.0000 0.91240  0.49010  0.74860  Biso   1.000  H
  H142     1.0000 0.91240  0.50990  0.25140  Biso   1.000  H
  H143     1.0000 0.58760  0.49010  0.75140  Biso   1.000  H
  H144     1.0000 0.74010  0.66240  0.50140  Biso   1.000  H
  H145     1.0000 0.91240  0.99010  0.25140  Biso   1.000  H
  H146     1.0000 0.25990  0.66240  0.50140  Biso   1.000  H
  H147     1.0000 0.24010  0.33760  0.00140  Biso   1.000  H
  H148     1.0000 0.24010  0.66240  0.99860  Biso   1.000  H
  H149     1.0000 0.41240  0.49010  0.75140  Biso   1.000  H
  H150     1.0000 0.75990  0.16240  0.00140  Biso   1.000  H
  H151     1.0000 0.74010  0.83760  0.50140  Biso   1.000  H
  H152     1.0000 0.74010  0.16240  0.49860  Biso   1.000  H
  H153     1.0000 0.58760  0.00990  0.75140  Biso   1.000  H
  H154     1.0000 0.58760  0.99010  0.24860  Biso   1.000  H
  H155     1.0000 0.91240  0.00990  0.74860  Biso   1.000  H
  H156     1.0000 0.25990  0.33760  0.49860  Biso   1.000  H
  H157     1.0000 0.08760  0.50990  0.25140  Biso   1.000  H
  H158     1.0000 0.08760  0.49010  0.74860  Biso   1.000  H
  H159     1.0000 0.41240  0.50990  0.24860  Biso   1.000  H
  H160     1.0000 0.75990  0.83760  0.99860  Biso   1.000  H
  C289     1.0000 0.12030  0.04040  0.80151  Biso   1.000  C
  C290     1.0000 0.20960  0.87030  0.05151  Biso   1.000  C
  C291     1.0000 0.29040  0.12970  0.55151  Biso   1.000  C
  C292     1.0000 0.29040  0.87030  0.44849  Biso   1.000  C
  C293     1.0000 0.62030  0.54040  0.30151  Biso   1.000  C
  C294     1.0000 0.70960  0.37030  0.55151  Biso   1.000  C
  C295     1.0000 0.79040  0.62970  0.05151  Biso   1.000  C
  C296     1.0000 0.79040  0.37030  0.94849  Biso   1.000  C
  C297     1.0000 0.37970  0.95960  0.30151  Biso   1.000  C
  C298     1.0000 0.37970  0.04040  0.69849  Biso   1.000  C
  C299     1.0000 0.12030  0.95960  0.19849  Biso   1.000  C
  C300     1.0000 0.20960  0.12970  0.94849  Biso   1.000  C
  C301     1.0000 0.87970  0.45960  0.80151  Biso   1.000  C
  C302     1.0000 0.87970  0.54040  0.19849  Biso   1.000  C
  C303     1.0000 0.62030  0.45960  0.69849  Biso   1.000  C
  C304     1.0000 0.70960  0.62970  0.44849  Biso   1.000  C
  C305     1.0000 0.87970  0.95960  0.19849  Biso   1.000  C
  C306     1.0000 0.29040  0.62970  0.44849  Biso   1.000  C
  C307     1.0000 0.20960  0.37030  0.94849  Biso   1.000  C
  C308     1.0000 0.20960  0.62970  0.05151  Biso   1.000  C
  C309     1.0000 0.37970  0.45960  0.69849  Biso   1.000  C
  C310     1.0000 0.79040  0.12970  0.94849  Biso   1.000  C
  C311     1.0000 0.70960  0.87030  0.44849  Biso   1.000  C
  C312     1.0000 0.70960  0.12970  0.55151  Biso   1.000  C
  C313     1.0000 0.62030  0.04040  0.69849  Biso   1.000  C
  C314     1.0000 0.62030  0.95960  0.30151  Biso   1.000  C
  C315     1.0000 0.87970  0.04040  0.80151  Biso   1.000  C
  C316     1.0000 0.29040  0.37030  0.55151  Biso   1.000  C
  C317     1.0000 0.12030  0.54040  0.19849  Biso   1.000  C
  C318     1.0000 0.12030  0.45960  0.80151  Biso   1.000  C
  C319     1.0000 0.37970  0.54040  0.30151  Biso   1.000  C
  C320     1.0000 0.79040  0.87030  0.05151  Biso   1.000  C
  H161     1.0000 0.13550  0.00290  0.80950  Biso   1.000  H
  H162     1.0000 0.24710  0.88550  0.05950  Biso   1.000  H
  H163     1.0000 0.25290  0.11450  0.55950  Biso   1.000  H
  H164     1.0000 0.25290  0.88550  0.44050  Biso   1.000  H
  H165     1.0000 0.63550  0.50290  0.30950  Biso   1.000  H
  H166     1.0000 0.74710  0.38550  0.55950  Biso   1.000  H
  H167     1.0000 0.75290  0.61450  0.05950  Biso   1.000  H
  H168     1.0000 0.75290  0.38550  0.94050  Biso   1.000  H
  H169     1.0000 0.36450  0.99710  0.30950  Biso   1.000  H
  H170     1.0000 0.36450  0.00290  0.69050  Biso   1.000  H
  H171     1.0000 0.13550  0.99710  0.19050  Biso   1.000  H
  H172     1.0000 0.24710  0.11450  0.94050  Biso   1.000  H
  H173     1.0000 0.86450  0.49710  0.80950  Biso   1.000  H
  H174     1.0000 0.86450  0.50290  0.19050  Biso   1.000  H
  H175     1.0000 0.63550  0.49710  0.69050  Biso   1.000  H
  H176     1.0000 0.74710  0.61450  0.44050  Biso   1.000  H
  H177     1.0000 0.86450  0.99710  0.19050  Biso   1.000  H
  H178     1.0000 0.25290  0.61450  0.44050  Biso   1.000  H
  H179     1.0000 0.24710  0.38550  0.94050  Biso   1.000  H
  H180     1.0000 0.24710  0.61450  0.05950  Biso   1.000  H
  H181     1.0000 0.36450  0.49710  0.69050  Biso   1.000  H
  H182     1.0000 0.75290  0.11450  0.94050  Biso   1.000  H
  H183     1.0000 0.74710  0.88550  0.44050  Biso   1.000  H
  H184     1.0000 0.74710  0.11450  0.55950  Biso   1.000  H
  H185     1.0000 0.63550  0.00290  0.69050  Biso   1.000  H
  H186     1.0000 0.63550  0.99710  0.30950  Biso   1.000  H
  H187     1.0000 0.86450  0.00290  0.80950  Biso   1.000  H
  H188     1.0000 0.25290  0.38550  0.55950  Biso   1.000  H
  H189     1.0000 0.13550  0.50290  0.19050  Biso   1.000  H
  H190     1.0000 0.13550  0.49710  0.80950  Biso   1.000  H
  H191     1.0000 0.36450  0.50290  0.30950  Biso   1.000  H
  H192     1.0000 0.75290  0.88550  0.05950  Biso   1.000  H
  N33      1.0000 0.12803  0.08557  0.82541  Biso   1.000  N
  N34      1.0000 0.16443  0.87803  0.07541  Biso   1.000  N
  N35      1.0000 0.33557  0.12197  0.57541  Biso   1.000  N
  N36      1.0000 0.33557  0.87803  0.42459  Biso   1.000  N
  N37      1.0000 0.62803  0.58557  0.32541  Biso   1.000  N
  N38      1.0000 0.66443  0.37803  0.57541  Biso   1.000  N
  N39      1.0000 0.83557  0.62197  0.07541  Biso   1.000  N
  N40      1.0000 0.83557  0.37803  0.92459  Biso   1.000  N
  N41      1.0000 0.37197  0.91443  0.32541  Biso   1.000  N
  N42      1.0000 0.37197  0.08557  0.67459  Biso   1.000  N
  N43      1.0000 0.12803  0.91443  0.17459  Biso   1.000  N
  N44      1.0000 0.16443  0.12197  0.92459  Biso   1.000  N
  N45      1.0000 0.87197  0.41443  0.82541  Biso   1.000  N
  N46      1.0000 0.87197  0.58557  0.17459  Biso   1.000  N
  N47      1.0000 0.62803  0.41443  0.67459  Biso   1.000  N
  N48      1.0000 0.66443  0.62197  0.42459  Biso   1.000  N
  N49      1.0000 0.87197  0.91443  0.17459  Biso   1.000  N
  N50      1.0000 0.33557  0.62197  0.42459  Biso   1.000  N
  N51      1.0000 0.16443  0.37803  0.92459  Biso   1.000  N
  N52      1.0000 0.16443  0.62197  0.07541  Biso   1.000  N
  N53      1.0000 0.37197  0.41443  0.67459  Biso   1.000  N
  N54      1.0000 0.83557  0.12197  0.92459  Biso   1.000  N
  N55      1.0000 0.66443  0.87803  0.42459  Biso   1.000  N
  N56      1.0000 0.66443  0.12197  0.57541  Biso   1.000  N
  N57      1.0000 0.62803  0.08557  0.67459  Biso   1.000  N
  N58      1.0000 0.62803  0.91443  0.32541  Biso   1.000  N
  N59      1.0000 0.87197  0.08557  0.82541  Biso   1.000  N
  N60      1.0000 0.33557  0.37803  0.57541  Biso   1.000  N
  N61      1.0000 0.12803  0.58557  0.17459  Biso   1.000  N
  N62      1.0000 0.12803  0.41443  0.82541  Biso   1.000  N
  N63      1.0000 0.37197  0.58557  0.32541  Biso   1.000  N
  N64      1.0000 0.83557  0.87803  0.07541  Biso   1.000  N
  C321     1.0000 0.10410  0.13690  0.81397  Biso   1.000  C
  C322     1.0000 0.11310  0.85410  0.06397  Biso   1.000  C
  C323     1.0000 0.38690  0.14590  0.56397  Biso   1.000  C
  C324     1.0000 0.38690  0.85410  0.43603  Biso   1.000  C
  C325     1.0000 0.60410  0.63690  0.31397  Biso   1.000  C
  C326     1.0000 0.61310  0.35410  0.56397  Biso   1.000  C
  C327     1.0000 0.88690  0.64590  0.06397  Biso   1.000  C
  C328     1.0000 0.88690  0.35410  0.93603  Biso   1.000  C
  C329     1.0000 0.39590  0.86310  0.31397  Biso   1.000  C
  C330     1.0000 0.39590  0.13690  0.68603  Biso   1.000  C
  C331     1.0000 0.10410  0.86310  0.18603  Biso   1.000  C
  C332     1.0000 0.11310  0.14590  0.93603  Biso   1.000  C
  C333     1.0000 0.89590  0.36310  0.81397  Biso   1.000  C
  C334     1.0000 0.89590  0.63690  0.18603  Biso   1.000  C
  C335     1.0000 0.60410  0.36310  0.68603  Biso   1.000  C
  C336     1.0000 0.61310  0.64590  0.43603  Biso   1.000  C
  C337     1.0000 0.89590  0.86310  0.18603  Biso   1.000  C
  C338     1.0000 0.38690  0.64590  0.43603  Biso   1.000  C
  C339     1.0000 0.11310  0.35410  0.93603  Biso   1.000  C
  C340     1.0000 0.11310  0.64590  0.06397  Biso   1.000  C
  C341     1.0000 0.39590  0.36310  0.68603  Biso   1.000  C
  C342     1.0000 0.88690  0.14590  0.93603  Biso   1.000  C
  C343     1.0000 0.61310  0.85410  0.43603  Biso   1.000  C
  C344     1.0000 0.61310  0.14590  0.56397  Biso   1.000  C
  C345     1.0000 0.60410  0.13690  0.68603  Biso   1.000  C
  C346     1.0000 0.60410  0.86310  0.31397  Biso   1.000  C
  C347     1.0000 0.89590  0.13690  0.81397  Biso   1.000  C
  C348     1.0000 0.38690  0.35410  0.56397  Biso   1.000  C
  C349     1.0000 0.10410  0.63690  0.18603  Biso   1.000  C
  C350     1.0000 0.10410  0.36310  0.81397  Biso   1.000  C
  C351     1.0000 0.39590  0.63690  0.31397  Biso   1.000  C
  C352     1.0000 0.88690  0.85410  0.06397  Biso   1.000  C
  H193     1.0000 0.10730  0.17010  0.83120  Biso   1.000  H
  H194     1.0000 0.07990  0.85730  0.08120  Biso   1.000  H
  H195     1.0000 0.42010  0.14270  0.58120  Biso   1.000  H
  H196     1.0000 0.42010  0.85730  0.41880  Biso   1.000  H
  H197     1.0000 0.60730  0.67010  0.33120  Biso   1.000  H
  H198     1.0000 0.57990  0.35730  0.58120  Biso   1.000  H
  H199     1.0000 0.92010  0.64270  0.08120  Biso   1.000  H
  H200     1.0000 0.92010  0.35730  0.91880  Biso   1.000  H
  H201     1.0000 0.39270  0.82990  0.33120  Biso   1.000  H
  H202     1.0000 0.39270  0.17010  0.66880  Biso   1.000  H
  H203     1.0000 0.10730  0.82990  0.16880  Biso   1.000  H
  H204     1.0000 0.07990  0.14270  0.91880  Biso   1.000  H
  H205     1.0000 0.89270  0.32990  0.83120  Biso   1.000  H
  H206     1.0000 0.89270  0.67010  0.16880  Biso   1.000  H
  H207     1.0000 0.60730  0.32990  0.66880  Biso   1.000  H
  H208     1.0000 0.57990  0.64270  0.41880  Biso   1.000  H
  H209     1.0000 0.89270  0.82990  0.16880  Biso   1.000  H
  H210     1.0000 0.42010  0.64270  0.41880  Biso   1.000  H
  H211     1.0000 0.07990  0.35730  0.91880  Biso   1.000  H
  H212     1.0000 0.07990  0.64270  0.08120  Biso   1.000  H
  H213     1.0000 0.39270  0.32990  0.66880  Biso   1.000  H
  H214     1.0000 0.92010  0.14270  0.91880  Biso   1.000  H
  H215     1.0000 0.57990  0.85730  0.41880  Biso   1.000  H
  H216     1.0000 0.57990  0.14270  0.58120  Biso   1.000  H
  H217     1.0000 0.60730  0.17010  0.66880  Biso   1.000  H
  H218     1.0000 0.60730  0.82990  0.33120  Biso   1.000  H
  H219     1.0000 0.89270  0.17010  0.83120  Biso   1.000  H
  H220     1.0000 0.42010  0.35730  0.58120  Biso   1.000  H
  H221     1.0000 0.10730  0.67010  0.16880  Biso   1.000  H
  H222     1.0000 0.10730  0.32990  0.83120  Biso   1.000  H
  H223     1.0000 0.39270  0.67010  0.33120  Biso   1.000  H
  H224     1.0000 0.92010  0.85730  0.08120  Biso   1.000  H
  C353     1.0000 0.07440  0.14410  0.77775  Biso   1.000  C
  C354     1.0000 0.10590  0.82440  0.02775  Biso   1.000  C
  C355     1.0000 0.39410  0.17560  0.52775  Biso   1.000  C
  C356     1.0000 0.39410  0.82440  0.47225  Biso   1.000  C
  C357     1.0000 0.57440  0.64410  0.27775  Biso   1.000  C
  C358     1.0000 0.60590  0.32440  0.52775  Biso   1.000  C
  C359     1.0000 0.89410  0.67560  0.02775  Biso   1.000  C
  C360     1.0000 0.89410  0.32440  0.97225  Biso   1.000  C
  C361     1.0000 0.42560  0.85590  0.27775  Biso   1.000  C
  C362     1.0000 0.42560  0.14410  0.72225  Biso   1.000  C
  C363     1.0000 0.07440  0.85590  0.22225  Biso   1.000  C
  C364     1.0000 0.10590  0.17560  0.97225  Biso   1.000  C
  C365     1.0000 0.92560  0.35590  0.77775  Biso   1.000  C
  C366     1.0000 0.92560  0.64410  0.22225  Biso   1.000  C
  C367     1.0000 0.57440  0.35590  0.72225  Biso   1.000  C
  C368     1.0000 0.60590  0.67560  0.47225  Biso   1.000  C
  C369     1.0000 0.92560  0.85590  0.22225  Biso   1.000  C
  C370     1.0000 0.39410  0.67560  0.47225  Biso   1.000  C
  C371     1.0000 0.10590  0.32440  0.97225  Biso   1.000  C
  C372     1.0000 0.10590  0.67560  0.02775  Biso   1.000  C
  C373     1.0000 0.42560  0.35590  0.72225  Biso   1.000  C
  C374     1.0000 0.89410  0.17560  0.97225  Biso   1.000  C
  C375     1.0000 0.60590  0.82440  0.47225  Biso   1.000  C
  C376     1.0000 0.60590  0.17560  0.52775  Biso   1.000  C
  C377     1.0000 0.57440  0.14410  0.72225  Biso   1.000  C
  C378     1.0000 0.57440  0.85590  0.27775  Biso   1.000  C
  C379     1.0000 0.92560  0.14410  0.77775  Biso   1.000  C
  C380     1.0000 0.39410  0.32440  0.52775  Biso   1.000  C
  C381     1.0000 0.07440  0.64410  0.22225  Biso   1.000  C
  C382     1.0000 0.07440  0.35590  0.77775  Biso   1.000  C
  C383     1.0000 0.42560  0.64410  0.27775  Biso   1.000  C
  C384     1.0000 0.89410  0.82440  0.02775  Biso   1.000  C
  H225     1.0000 0.05950  0.18200  0.77030  Biso   1.000  H
  H226     1.0000 0.06800  0.80950  0.02030  Biso   1.000  H
  H227     1.0000 0.43200  0.19050  0.52030  Biso   1.000  H
  H228     1.0000 0.43200  0.80950  0.47970  Biso   1.000  H
  H229     1.0000 0.55950  0.68200  0.27030  Biso   1.000  H
  H230     1.0000 0.56800  0.30950  0.52030  Biso   1.000  H
  H231     1.0000 0.93200  0.69050  0.02030  Biso   1.000  H
  H232     1.0000 0.93200  0.30950  0.97970  Biso   1.000  H
  H233     1.0000 0.44050  0.81800  0.27030  Biso   1.000  H
  H234     1.0000 0.44050  0.18200  0.72970  Biso   1.000  H
  H235     1.0000 0.05950  0.81800  0.22970  Biso   1.000  H
  H236     1.0000 0.06800  0.19050  0.97970  Biso   1.000  H
  H237     1.0000 0.94050  0.31800  0.77030  Biso   1.000  H
  H238     1.0000 0.94050  0.68200  0.22970  Biso   1.000  H
  H239     1.0000 0.55950  0.31800  0.72970  Biso   1.000  H
  H240     1.0000 0.56800  0.69050  0.47970  Biso   1.000  H
  H241     1.0000 0.94050  0.81800  0.22970  Biso   1.000  H
  H242     1.0000 0.43200  0.69050  0.47970  Biso   1.000  H
  H243     1.0000 0.06800  0.30950  0.97970  Biso   1.000  H
  H244     1.0000 0.06800  0.69050  0.02030  Biso   1.000  H
  H245     1.0000 0.44050  0.31800  0.72970  Biso   1.000  H
  H246     1.0000 0.93200  0.19050  0.97970  Biso   1.000  H
  H247     1.0000 0.56800  0.80950  0.47970  Biso   1.000  H
  H248     1.0000 0.56800  0.19050  0.52030  Biso   1.000  H
  H249     1.0000 0.55950  0.18200  0.72970  Biso   1.000  H
  H250     1.0000 0.55950  0.81800  0.27030  Biso   1.000  H
  H251     1.0000 0.94050  0.18200  0.77030  Biso   1.000  H
  H252     1.0000 0.43200  0.30950  0.52030  Biso   1.000  H
  H253     1.0000 0.05950  0.68200  0.22970  Biso   1.000  H
  H254     1.0000 0.05950  0.31800  0.77030  Biso   1.000  H
  H255     1.0000 0.44050  0.68200  0.27030  Biso   1.000  H
  H256     1.0000 0.93200  0.80950  0.02030  Biso   1.000  H
  F49      1.0000 0.19540  0.25000  0.72480  Biso   1.000  F
  F50      1.0000 0.00000  0.94540  0.97480  Biso   1.000  F
  F51      1.0000 0.50000  0.05460  0.47480  Biso   1.000  F
  F52      1.0000 0.50000  0.94540  0.52520  Biso   1.000  F
  F53      1.0000 0.69540  0.75000  0.22480  Biso   1.000  F
  F54      1.0000 0.50000  0.44540  0.47480  Biso   1.000  F
  F55      1.0000 0.00000  0.55460  0.97480  Biso   1.000  F
  F56      1.0000 0.00000  0.44540  0.02520  Biso   1.000  F
  F57      1.0000 0.30460  0.75000  0.22480  Biso   1.000  F
  F58      1.0000 0.30460  0.25000  0.77520  Biso   1.000  F
  F59      1.0000 0.19540  0.75000  0.27520  Biso   1.000  F
  F60      1.0000 0.00000  0.05460  0.02520  Biso   1.000  F
  F61      1.0000 0.80460  0.25000  0.72480  Biso   1.000  F
  F62      1.0000 0.80460  0.75000  0.27520  Biso   1.000  F
  F63      1.0000 0.69540  0.25000  0.77520  Biso   1.000  F
  F64      1.0000 0.50000  0.55460  0.52520  Biso   1.000  F
  F65      1.0000 0.00000  0.25000  0.91630  Biso   1.000  F
  F66      1.0000 0.00000  0.75000  0.16630  Biso   1.000  F
  F67      1.0000 0.50000  0.25000  0.66630  Biso   1.000  F
  F68      1.0000 0.50000  0.75000  0.33370  Biso   1.000  F
  F69      1.0000 0.50000  0.75000  0.41630  Biso   1.000  F
  F70      1.0000 0.00000  0.25000  0.83370  Biso   1.000  F
  F71      1.0000 0.50000  0.25000  0.58370  Biso   1.000  F
  F72      1.0000 0.00000  0.75000  0.08370  Biso   1.000  F
