data_image0
_cell_length_a       18.689
_cell_length_b       16.0261
_cell_length_c       23.2192
_cell_angle_alpha    90
_cell_angle_beta     90
_cell_angle_gamma    90

_symmetry_space_group_name_H-M    "P 1"
_symmetry_int_tables_number       1

loop_
  _symmetry_equiv_pos_as_xyz
  'x, y, z'

loop_
  _atom_site_label
  _atom_site_occupancy
  _atom_site_fract_x
  _atom_site_fract_y
  _atom_site_fract_z
  _atom_site_thermal_displace_type
  _atom_site_B_iso_or_equiv
  _atom_site_type_symbol
  Br1      1.0000 0.26175  0.48151  0.28627  Biso   1.000  Br
  Br2      1.0000 0.23825  0.51849  0.78627  Biso   1.000  Br
  Br3      1.0000 0.76175  0.01849  0.71373  Biso   1.000  Br
  Br4      1.0000 0.73825  0.98151  0.21373  Biso   1.000  Br
  Br5      1.0000 0.73825  0.51849  0.71373  Biso   1.000  Br
  Br6      1.0000 0.76175  0.48151  0.21373  Biso   1.000  Br
  Br7      1.0000 0.23825  0.98151  0.28627  Biso   1.000  Br
  Br8      1.0000 0.26175  0.01849  0.78627  Biso   1.000  Br
  Cu1      1.0000 0.16670  0.23312  0.37799  Biso   1.000  Cu
  Cu2      1.0000 0.33330  0.76688  0.87800  Biso   1.000  Cu
  Cu3      1.0000 0.66670  0.26688  0.62200  Biso   1.000  Cu
  Cu4      1.0000 0.83330  0.73312  0.12200  Biso   1.000  Cu
  Cu5      1.0000 0.83330  0.76688  0.62200  Biso   1.000  Cu
  Cu6      1.0000 0.66670  0.23312  0.12200  Biso   1.000  Cu
  Cu7      1.0000 0.33330  0.73312  0.37799  Biso   1.000  Cu
  Cu8      1.0000 0.16670  0.26688  0.87800  Biso   1.000  Cu
  O1       1.0000 0.98764  0.38842  0.37253  Biso   1.000  O
  O2       1.0000 0.51236  0.61158  0.87253  Biso   1.000  O
  O3       1.0000 0.48764  0.11158  0.62747  Biso   1.000  O
  O4       1.0000 0.01236  0.88842  0.12747  Biso   1.000  O
  O5       1.0000 0.01236  0.61158  0.62747  Biso   1.000  O
  O6       1.0000 0.48764  0.38842  0.12747  Biso   1.000  O
  O7       1.0000 0.51236  0.88842  0.37253  Biso   1.000  O
  O8       1.0000 0.98764  0.11158  0.87253  Biso   1.000  O
  O9       1.0000 0.18477  0.09282  0.52769  Biso   1.000  O
  O10      1.0000 0.31523  0.90718  0.02769  Biso   1.000  O
  O11      1.0000 0.68477  0.40718  0.47231  Biso   1.000  O
  O12      1.0000 0.81523  0.59282  0.97231  Biso   1.000  O
  O13      1.0000 0.81523  0.90718  0.47231  Biso   1.000  O
  O14      1.0000 0.68477  0.09282  0.97231  Biso   1.000  O
  O15      1.0000 0.31523  0.59282  0.52769  Biso   1.000  O
  O16      1.0000 0.18477  0.40718  0.02769  Biso   1.000  O
  C1       1.0000 0.08095  0.16103  0.39573  Biso   1.000  C
  C2       1.0000 0.41905  0.83897  0.89573  Biso   1.000  C
  C3       1.0000 0.58095  0.33897  0.60427  Biso   1.000  C
  C4       1.0000 0.91905  0.66103  0.10427  Biso   1.000  C
  C5       1.0000 0.91905  0.83897  0.60427  Biso   1.000  C
  C6       1.0000 0.58095  0.16103  0.10427  Biso   1.000  C
  C7       1.0000 0.41905  0.66103  0.39573  Biso   1.000  C
  C8       1.0000 0.08095  0.33897  0.89573  Biso   1.000  C
  C9       1.0000 0.04184  0.19137  0.44149  Biso   1.000  C
  C10      1.0000 0.45816  0.80863  0.94149  Biso   1.000  C
  C11      1.0000 0.54184  0.30863  0.55851  Biso   1.000  C
  C12      1.0000 0.95816  0.69137  0.05851  Biso   1.000  C
  C13      1.0000 0.95816  0.80863  0.55851  Biso   1.000  C
  C14      1.0000 0.54184  0.19137  0.05851  Biso   1.000  C
  C15      1.0000 0.45816  0.69137  0.44149  Biso   1.000  C
  C16      1.0000 0.04184  0.30863  0.94149  Biso   1.000  C
  C17      1.0000 0.07436  0.26313  0.47304  Biso   1.000  C
  C18      1.0000 0.42564  0.73687  0.97304  Biso   1.000  C
  C19      1.0000 0.57436  0.23687  0.52696  Biso   1.000  C
  C20      1.0000 0.92564  0.76313  0.02696  Biso   1.000  C
  C21      1.0000 0.92564  0.73687  0.52696  Biso   1.000  C
  C22      1.0000 0.57436  0.26313  0.02696  Biso   1.000  C
  C23      1.0000 0.42564  0.76313  0.47304  Biso   1.000  C
  C24      1.0000 0.07436  0.23687  0.97304  Biso   1.000  C
  C25      1.0000 0.13602  0.29648  0.44935  Biso   1.000  C
  C26      1.0000 0.36398  0.70352  0.94935  Biso   1.000  C
  C27      1.0000 0.63602  0.20352  0.55065  Biso   1.000  C
  C28      1.0000 0.86398  0.79648  0.05065  Biso   1.000  C
  C29      1.0000 0.86398  0.70352  0.55065  Biso   1.000  C
  C30      1.0000 0.63602  0.29648  0.05065  Biso   1.000  C
  C31      1.0000 0.36398  0.79648  0.44935  Biso   1.000  C
  C32      1.0000 0.13602  0.20352  0.94935  Biso   1.000  C
  C33      1.0000 0.16666  0.25072  0.29265  Biso   1.000  C
  C34      1.0000 0.33334  0.74928  0.79265  Biso   1.000  C
  C35      1.0000 0.66666  0.24928  0.70735  Biso   1.000  C
  C36      1.0000 0.83334  0.75072  0.20735  Biso   1.000  C
  C37      1.0000 0.83334  0.74928  0.70735  Biso   1.000  C
  C38      1.0000 0.66666  0.25072  0.20735  Biso   1.000  C
  C39      1.0000 0.33334  0.75072  0.29265  Biso   1.000  C
  C40      1.0000 0.16666  0.24928  0.79265  Biso   1.000  C
  C41      1.0000 0.23460  0.24365  0.27008  Biso   1.000  C
  C42      1.0000 0.26540  0.75635  0.77008  Biso   1.000  C
  C43      1.0000 0.73460  0.25635  0.72992  Biso   1.000  C
  C44      1.0000 0.76540  0.74365  0.22992  Biso   1.000  C
  C45      1.0000 0.76540  0.75635  0.72992  Biso   1.000  C
  C46      1.0000 0.73460  0.24365  0.22992  Biso   1.000  C
  C47      1.0000 0.26540  0.74365  0.27008  Biso   1.000  C
  C48      1.0000 0.23460  0.25635  0.77008  Biso   1.000  C
  C49      1.0000 0.29360  0.23381  0.31251  Biso   1.000  C
  C50      1.0000 0.20640  0.76619  0.81251  Biso   1.000  C
  C51      1.0000 0.79360  0.26619  0.68749  Biso   1.000  C
  C52      1.0000 0.70640  0.73381  0.18749  Biso   1.000  C
  C53      1.0000 0.70640  0.76619  0.68749  Biso   1.000  C
  C54      1.0000 0.79360  0.23381  0.18749  Biso   1.000  C
  C55      1.0000 0.20640  0.73381  0.31251  Biso   1.000  C
  C56      1.0000 0.29360  0.26619  0.81251  Biso   1.000  C
  C57      1.0000 0.27270  0.22262  0.36902  Biso   1.000  C
  C58      1.0000 0.22730  0.77738  0.86902  Biso   1.000  C
  C59      1.0000 0.77270  0.27738  0.63098  Biso   1.000  C
  C60      1.0000 0.72730  0.72262  0.13098  Biso   1.000  C
  C61      1.0000 0.72730  0.77738  0.63098  Biso   1.000  C
  C62      1.0000 0.77270  0.22262  0.13098  Biso   1.000  C
  C63      1.0000 0.22730  0.72262  0.36902  Biso   1.000  C
  C64      1.0000 0.27270  0.27738  0.86902  Biso   1.000  C
  C65      1.0000 0.05010  0.08971  0.35981  Biso   1.000  C
  C66      1.0000 0.44990  0.91029  0.85981  Biso   1.000  C
  C67      1.0000 0.55010  0.41029  0.64019  Biso   1.000  C
  C68      1.0000 0.94990  0.58971  0.14019  Biso   1.000  C
  C69      1.0000 0.94990  0.91029  0.64019  Biso   1.000  C
  C70      1.0000 0.55010  0.08971  0.14019  Biso   1.000  C
  C71      1.0000 0.44990  0.58971  0.35981  Biso   1.000  C
  C72      1.0000 0.05010  0.41029  0.85981  Biso   1.000  C
  H1       1.0000 0.06880  0.09360  0.32000  Biso   1.000  H
  H2       1.0000 0.43120  0.90640  0.82000  Biso   1.000  H
  H3       1.0000 0.56880  0.40640  0.68000  Biso   1.000  H
  H4       1.0000 0.93120  0.59360  0.18000  Biso   1.000  H
  H5       1.0000 0.93120  0.90640  0.68000  Biso   1.000  H
  H6       1.0000 0.56880  0.09360  0.18000  Biso   1.000  H
  H7       1.0000 0.43120  0.59360  0.32000  Biso   1.000  H
  H8       1.0000 0.06880  0.40640  0.82000  Biso   1.000  H
  H9       1.0000 0.99740  0.09540  0.35810  Biso   1.000  H
  H10      1.0000 0.50260  0.90460  0.85810  Biso   1.000  H
  H11      1.0000 0.49740  0.40460  0.64190  Biso   1.000  H
  H12      1.0000 0.00260  0.59540  0.14190  Biso   1.000  H
  H13      1.0000 0.00260  0.90460  0.64190  Biso   1.000  H
  H14      1.0000 0.49740  0.09540  0.14190  Biso   1.000  H
  H15      1.0000 0.50260  0.59540  0.35810  Biso   1.000  H
  H16      1.0000 0.99740  0.40460  0.85810  Biso   1.000  H
  C73      1.0000 0.06930  0.00390  0.38507  Biso   1.000  C
  C74      1.0000 0.43070  0.99610  0.88507  Biso   1.000  C
  C75      1.0000 0.56930  0.49610  0.61493  Biso   1.000  C
  C76      1.0000 0.93070  0.50390  0.11493  Biso   1.000  C
  C77      1.0000 0.93070  0.99610  0.61493  Biso   1.000  C
  C78      1.0000 0.56930  0.00390  0.11493  Biso   1.000  C
  C79      1.0000 0.43070  0.50390  0.38507  Biso   1.000  C
  C80      1.0000 0.06930  0.49610  0.88507  Biso   1.000  C
  H17      1.0000 0.05060  0.95990  0.35990  Biso   1.000  H
  H18      1.0000 0.44940  0.04010  0.85990  Biso   1.000  H
  H19      1.0000 0.55060  0.54010  0.64010  Biso   1.000  H
  H20      1.0000 0.94940  0.45990  0.14010  Biso   1.000  H
  H21      1.0000 0.94940  0.04010  0.64010  Biso   1.000  H
  H22      1.0000 0.55060  0.95990  0.14010  Biso   1.000  H
  H23      1.0000 0.44940  0.45990  0.35990  Biso   1.000  H
  H24      1.0000 0.05060  0.54010  0.85990  Biso   1.000  H
  H25      1.0000 0.04800  0.99840  0.42350  Biso   1.000  H
  H26      1.0000 0.45200  0.00160  0.92350  Biso   1.000  H
  H27      1.0000 0.54800  0.50160  0.57650  Biso   1.000  H
  H28      1.0000 0.95200  0.49840  0.07650  Biso   1.000  H
  H29      1.0000 0.95200  0.00160  0.57650  Biso   1.000  H
  H30      1.0000 0.54800  0.99840  0.07650  Biso   1.000  H
  H31      1.0000 0.45200  0.49840  0.42350  Biso   1.000  H
  H32      1.0000 0.04800  0.50160  0.92350  Biso   1.000  H
  H33      1.0000 0.12140  0.99880  0.38790  Biso   1.000  H
  H34      1.0000 0.37860  0.00120  0.88790  Biso   1.000  H
  H35      1.0000 0.62140  0.50120  0.61210  Biso   1.000  H
  H36      1.0000 0.87860  0.49880  0.11210  Biso   1.000  H
  H37      1.0000 0.87860  0.00120  0.61210  Biso   1.000  H
  H38      1.0000 0.62140  0.99880  0.11210  Biso   1.000  H
  H39      1.0000 0.37860  0.49880  0.38790  Biso   1.000  H
  H40      1.0000 0.12140  0.50120  0.88790  Biso   1.000  H
  C81      1.0000 0.96900  0.15910  0.45946  Biso   1.000  C
  C82      1.0000 0.53100  0.84090  0.95946  Biso   1.000  C
  C83      1.0000 0.46900  0.34090  0.54054  Biso   1.000  C
  C84      1.0000 0.03100  0.65910  0.04054  Biso   1.000  C
  C85      1.0000 0.03100  0.84090  0.54054  Biso   1.000  C
  C86      1.0000 0.46900  0.15910  0.04054  Biso   1.000  C
  C87      1.0000 0.53100  0.65910  0.45946  Biso   1.000  C
  C88      1.0000 0.96900  0.34090  0.95946  Biso   1.000  C
  H41      1.0000 0.96560  0.16080  0.50200  Biso   1.000  H
  H42      1.0000 0.53440  0.83920  0.00200  Biso   1.000  H
  H43      1.0000 0.46560  0.33920  0.49800  Biso   1.000  H
  H44      1.0000 0.03440  0.66080  0.99800  Biso   1.000  H
  H45      1.0000 0.03440  0.83920  0.49800  Biso   1.000  H
  H46      1.0000 0.46560  0.16080  0.99800  Biso   1.000  H
  H47      1.0000 0.53440  0.66080  0.50200  Biso   1.000  H
  H48      1.0000 0.96560  0.33920  0.00200  Biso   1.000  H
  H49      1.0000 0.96460  0.10010  0.44740  Biso   1.000  H
  H50      1.0000 0.53540  0.89990  0.94740  Biso   1.000  H
  H51      1.0000 0.46460  0.39990  0.55260  Biso   1.000  H
  H52      1.0000 0.03540  0.60010  0.05260  Biso   1.000  H
  H53      1.0000 0.03540  0.89990  0.55260  Biso   1.000  H
  H54      1.0000 0.46460  0.10010  0.05260  Biso   1.000  H
  H55      1.0000 0.53540  0.60010  0.44740  Biso   1.000  H
  H56      1.0000 0.96460  0.39990  0.94740  Biso   1.000  H
  C89      1.0000 0.90680  0.20850  0.43400  Biso   1.000  C
  C90      1.0000 0.59320  0.79150  0.93400  Biso   1.000  C
  C91      1.0000 0.40680  0.29150  0.56600  Biso   1.000  C
  C92      1.0000 0.09320  0.70850  0.06600  Biso   1.000  C
  C93      1.0000 0.09320  0.79150  0.56600  Biso   1.000  C
  C94      1.0000 0.40680  0.20850  0.06600  Biso   1.000  C
  C95      1.0000 0.59320  0.70850  0.43400  Biso   1.000  C
  C96      1.0000 0.90680  0.29150  0.93400  Biso   1.000  C
  H57      1.0000 0.90840  0.20500  0.39190  Biso   1.000  H
  H58      1.0000 0.59160  0.79500  0.89190  Biso   1.000  H
  H59      1.0000 0.40840  0.29500  0.60810  Biso   1.000  H
  H60      1.0000 0.09160  0.70500  0.10810  Biso   1.000  H
  H61      1.0000 0.09160  0.79500  0.60810  Biso   1.000  H
  H62      1.0000 0.40840  0.20500  0.10810  Biso   1.000  H
  H63      1.0000 0.59160  0.70500  0.39190  Biso   1.000  H
  H64      1.0000 0.90840  0.29500  0.89190  Biso   1.000  H
  H65      1.0000 0.91050  0.26700  0.44590  Biso   1.000  H
  H66      1.0000 0.58950  0.73300  0.94590  Biso   1.000  H
  H67      1.0000 0.41050  0.23300  0.55410  Biso   1.000  H
  H68      1.0000 0.08950  0.76700  0.05410  Biso   1.000  H
  H69      1.0000 0.08950  0.73300  0.55410  Biso   1.000  H
  H70      1.0000 0.41050  0.26700  0.05410  Biso   1.000  H
  H71      1.0000 0.58950  0.76700  0.44590  Biso   1.000  H
  H72      1.0000 0.91050  0.23300  0.94590  Biso   1.000  H
  H73      1.0000 0.86150  0.18520  0.44790  Biso   1.000  H
  H74      1.0000 0.63850  0.81480  0.94790  Biso   1.000  H
  H75      1.0000 0.36150  0.31480  0.55210  Biso   1.000  H
  H76      1.0000 0.13850  0.68520  0.05210  Biso   1.000  H
  H77      1.0000 0.13850  0.81480  0.55210  Biso   1.000  H
  H78      1.0000 0.36150  0.18520  0.05210  Biso   1.000  H
  H79      1.0000 0.63850  0.68520  0.44790  Biso   1.000  H
  H80      1.0000 0.86150  0.31480  0.94790  Biso   1.000  H
  C97      1.0000 0.03930  0.29360  0.52836  Biso   1.000  C
  C98      1.0000 0.46070  0.70640  0.02836  Biso   1.000  C
  C99      1.0000 0.53930  0.20640  0.47164  Biso   1.000  C
  C100     1.0000 0.96070  0.79360  0.97164  Biso   1.000  C
  C101     1.0000 0.96070  0.70640  0.47164  Biso   1.000  C
  C102     1.0000 0.53930  0.29360  0.97164  Biso   1.000  C
  C103     1.0000 0.46070  0.79360  0.52836  Biso   1.000  C
  C104     1.0000 0.03930  0.20640  0.02836  Biso   1.000  C
  H81      1.0000 0.98680  0.28770  0.52460  Biso   1.000  H
  H82      1.0000 0.51320  0.71230  0.02460  Biso   1.000  H
  H83      1.0000 0.48680  0.21230  0.47540  Biso   1.000  H
  H84      1.0000 0.01320  0.78770  0.97540  Biso   1.000  H
  H85      1.0000 0.01320  0.71230  0.47540  Biso   1.000  H
  H86      1.0000 0.48680  0.28770  0.97540  Biso   1.000  H
  H87      1.0000 0.51320  0.78770  0.52460  Biso   1.000  H
  H88      1.0000 0.98680  0.21230  0.02460  Biso   1.000  H
  H89      1.0000 0.05000  0.35370  0.53320  Biso   1.000  H
  H90      1.0000 0.45000  0.64630  0.03320  Biso   1.000  H
  H91      1.0000 0.55000  0.14630  0.46680  Biso   1.000  H
  H92      1.0000 0.95000  0.85370  0.96680  Biso   1.000  H
  H93      1.0000 0.95000  0.64630  0.46680  Biso   1.000  H
  H94      1.0000 0.55000  0.35370  0.96680  Biso   1.000  H
  H95      1.0000 0.45000  0.85370  0.53320  Biso   1.000  H
  H96      1.0000 0.05000  0.14630  0.03320  Biso   1.000  H
  C105     1.0000 0.06360  0.24720  0.58217  Biso   1.000  C
  C106     1.0000 0.43640  0.75280  0.08217  Biso   1.000  C
  C107     1.0000 0.56360  0.25280  0.41783  Biso   1.000  C
  C108     1.0000 0.93640  0.74720  0.91783  Biso   1.000  C
  C109     1.0000 0.93640  0.75280  0.41783  Biso   1.000  C
  C110     1.0000 0.56360  0.24720  0.91783  Biso   1.000  C
  C111     1.0000 0.43640  0.74720  0.58217  Biso   1.000  C
  C112     1.0000 0.06360  0.25280  0.08217  Biso   1.000  C
  H97      1.0000 0.05320  0.18760  0.57790  Biso   1.000  H
  H98      1.0000 0.44680  0.81240  0.07790  Biso   1.000  H
  H99      1.0000 0.55320  0.31240  0.42210  Biso   1.000  H
  H100     1.0000 0.94680  0.68760  0.92210  Biso   1.000  H
  H101     1.0000 0.94680  0.81240  0.42210  Biso   1.000  H
  H102     1.0000 0.55320  0.18760  0.92210  Biso   1.000  H
  H103     1.0000 0.44680  0.68760  0.57790  Biso   1.000  H
  H104     1.0000 0.05320  0.31240  0.07790  Biso   1.000  H
  H105     1.0000 0.03800  0.26910  0.61580  Biso   1.000  H
  H106     1.0000 0.46200  0.73090  0.11580  Biso   1.000  H
  H107     1.0000 0.53800  0.23090  0.38420  Biso   1.000  H
  H108     1.0000 0.96200  0.76910  0.88420  Biso   1.000  H
  H109     1.0000 0.96200  0.73090  0.38420  Biso   1.000  H
  H110     1.0000 0.53800  0.26910  0.88420  Biso   1.000  H
  H111     1.0000 0.46200  0.76910  0.61580  Biso   1.000  H
  H112     1.0000 0.03800  0.23090  0.11580  Biso   1.000  H
  H113     1.0000 0.11520  0.25510  0.58750  Biso   1.000  H
  H114     1.0000 0.38480  0.74490  0.08750  Biso   1.000  H
  H115     1.0000 0.61520  0.24490  0.41250  Biso   1.000  H
  H116     1.0000 0.88480  0.75510  0.91250  Biso   1.000  H
  H117     1.0000 0.88480  0.74490  0.41250  Biso   1.000  H
  H118     1.0000 0.61520  0.25510  0.91250  Biso   1.000  H
  H119     1.0000 0.38480  0.75510  0.58750  Biso   1.000  H
  H120     1.0000 0.11520  0.24490  0.08750  Biso   1.000  H
  C113     1.0000 0.17550  0.36470  0.48185  Biso   1.000  C
  C114     1.0000 0.32450  0.63530  0.98185  Biso   1.000  C
  C115     1.0000 0.67550  0.13530  0.51815  Biso   1.000  C
  C116     1.0000 0.82450  0.86470  0.01815  Biso   1.000  C
  C117     1.0000 0.82450  0.63530  0.51815  Biso   1.000  C
  C118     1.0000 0.67550  0.36470  0.01815  Biso   1.000  C
  C119     1.0000 0.32450  0.86470  0.48185  Biso   1.000  C
  C120     1.0000 0.17550  0.13530  0.98185  Biso   1.000  C
  H121     1.0000 0.13980  0.40410  0.49780  Biso   1.000  H
  H122     1.0000 0.36020  0.59590  0.99780  Biso   1.000  H
  H123     1.0000 0.63980  0.09590  0.50220  Biso   1.000  H
  H124     1.0000 0.86020  0.90410  0.00220  Biso   1.000  H
  H125     1.0000 0.86020  0.59590  0.50220  Biso   1.000  H
  H126     1.0000 0.63980  0.40410  0.00220  Biso   1.000  H
  H127     1.0000 0.36020  0.90410  0.49780  Biso   1.000  H
  H128     1.0000 0.13980  0.09590  0.99780  Biso   1.000  H
  H129     1.0000 0.20090  0.33900  0.51480  Biso   1.000  H
  H130     1.0000 0.29910  0.66100  0.01480  Biso   1.000  H
  H131     1.0000 0.70090  0.16100  0.48520  Biso   1.000  H
  H132     1.0000 0.79910  0.83900  0.98520  Biso   1.000  H
  H133     1.0000 0.79910  0.66100  0.48520  Biso   1.000  H
  H134     1.0000 0.70090  0.33900  0.98520  Biso   1.000  H
  H135     1.0000 0.29910  0.83900  0.51480  Biso   1.000  H
  H136     1.0000 0.20090  0.16100  0.01480  Biso   1.000  H
  C121     1.0000 0.22860  0.41330  0.44687  Biso   1.000  C
  C122     1.0000 0.27140  0.58670  0.94687  Biso   1.000  C
  C123     1.0000 0.72860  0.08670  0.55313  Biso   1.000  C
  C124     1.0000 0.77140  0.91330  0.05313  Biso   1.000  C
  C125     1.0000 0.77140  0.58670  0.55313  Biso   1.000  C
  C126     1.0000 0.72860  0.41330  0.05313  Biso   1.000  C
  C127     1.0000 0.27140  0.91330  0.44687  Biso   1.000  C
  C128     1.0000 0.22860  0.08670  0.94687  Biso   1.000  C
  H137     1.0000 0.20440  0.43790  0.41350  Biso   1.000  H
  H138     1.0000 0.29560  0.56210  0.91350  Biso   1.000  H
  H139     1.0000 0.70440  0.06210  0.58650  Biso   1.000  H
  H140     1.0000 0.79560  0.93790  0.08650  Biso   1.000  H
  H141     1.0000 0.79560  0.56210  0.58650  Biso   1.000  H
  H142     1.0000 0.70440  0.43790  0.08650  Biso   1.000  H
  H143     1.0000 0.29560  0.93790  0.41350  Biso   1.000  H
  H144     1.0000 0.20440  0.06210  0.91350  Biso   1.000  H
  H145     1.0000 0.26670  0.37590  0.43370  Biso   1.000  H
  H146     1.0000 0.23330  0.62410  0.93370  Biso   1.000  H
  H147     1.0000 0.76670  0.12410  0.56630  Biso   1.000  H
  H148     1.0000 0.73330  0.87590  0.06630  Biso   1.000  H
  H149     1.0000 0.73330  0.62410  0.56630  Biso   1.000  H
  H150     1.0000 0.76670  0.37590  0.06630  Biso   1.000  H
  H151     1.0000 0.23330  0.87590  0.43370  Biso   1.000  H
  H152     1.0000 0.26670  0.12410  0.93370  Biso   1.000  H
  H153     1.0000 0.24920  0.45780  0.47060  Biso   1.000  H
  H154     1.0000 0.25080  0.54220  0.97060  Biso   1.000  H
  H155     1.0000 0.74920  0.04220  0.52940  Biso   1.000  H
  H156     1.0000 0.75080  0.95780  0.02940  Biso   1.000  H
  H157     1.0000 0.75080  0.54220  0.52940  Biso   1.000  H
  H158     1.0000 0.74920  0.45780  0.02940  Biso   1.000  H
  H159     1.0000 0.25080  0.95780  0.47060  Biso   1.000  H
  H160     1.0000 0.24920  0.04220  0.97060  Biso   1.000  H
  C129     1.0000 0.10290  0.26090  0.25295  Biso   1.000  C
  C130     1.0000 0.39710  0.73910  0.75295  Biso   1.000  C
  C131     1.0000 0.60290  0.23910  0.74705  Biso   1.000  C
  C132     1.0000 0.89710  0.76090  0.24705  Biso   1.000  C
  C133     1.0000 0.89710  0.73910  0.74705  Biso   1.000  C
  C134     1.0000 0.60290  0.26090  0.24705  Biso   1.000  C
  C135     1.0000 0.39710  0.76090  0.25295  Biso   1.000  C
  C136     1.0000 0.10290  0.23910  0.75295  Biso   1.000  C
  H161     1.0000 0.11420  0.23520  0.21520  Biso   1.000  H
  H162     1.0000 0.38580  0.76480  0.71520  Biso   1.000  H
  H163     1.0000 0.61420  0.26480  0.78480  Biso   1.000  H
  H164     1.0000 0.88580  0.73520  0.28480  Biso   1.000  H
  H165     1.0000 0.88580  0.76480  0.78480  Biso   1.000  H
  H166     1.0000 0.61420  0.23520  0.28480  Biso   1.000  H
  H167     1.0000 0.38580  0.73520  0.21520  Biso   1.000  H
  H168     1.0000 0.11420  0.26480  0.71520  Biso   1.000  H
  H169     1.0000 0.06150  0.23060  0.26950  Biso   1.000  H
  H170     1.0000 0.43850  0.76940  0.76950  Biso   1.000  H
  H171     1.0000 0.56150  0.26940  0.73050  Biso   1.000  H
  H172     1.0000 0.93850  0.73060  0.23050  Biso   1.000  H
  H173     1.0000 0.93850  0.76940  0.73050  Biso   1.000  H
  H174     1.0000 0.56150  0.23060  0.23050  Biso   1.000  H
  H175     1.0000 0.43850  0.73060  0.26950  Biso   1.000  H
  H176     1.0000 0.06150  0.26940  0.76950  Biso   1.000  H
  C137     1.0000 0.08230  0.35140  0.24370  Biso   1.000  C
  C138     1.0000 0.41770  0.64860  0.74370  Biso   1.000  C
  C139     1.0000 0.58230  0.14860  0.75630  Biso   1.000  C
  C140     1.0000 0.91770  0.85140  0.25630  Biso   1.000  C
  C141     1.0000 0.91770  0.64860  0.75630  Biso   1.000  C
  C142     1.0000 0.58230  0.35140  0.25630  Biso   1.000  C
  C143     1.0000 0.41770  0.85140  0.24370  Biso   1.000  C
  C144     1.0000 0.08230  0.14860  0.74370  Biso   1.000  C
  H177     1.0000 0.03990  0.35420  0.21890  Biso   1.000  H
  H178     1.0000 0.46010  0.64580  0.71890  Biso   1.000  H
  H179     1.0000 0.53990  0.14580  0.78110  Biso   1.000  H
  H180     1.0000 0.96010  0.85420  0.28110  Biso   1.000  H
  H181     1.0000 0.96010  0.64580  0.78110  Biso   1.000  H
  H182     1.0000 0.53990  0.35420  0.28110  Biso   1.000  H
  H183     1.0000 0.46010  0.85420  0.21890  Biso   1.000  H
  H184     1.0000 0.03990  0.14580  0.71890  Biso   1.000  H
  H185     1.0000 0.12200  0.38100  0.22520  Biso   1.000  H
  H186     1.0000 0.37800  0.61900  0.72520  Biso   1.000  H
  H187     1.0000 0.62200  0.11900  0.77480  Biso   1.000  H
  H188     1.0000 0.87800  0.88100  0.27480  Biso   1.000  H
  H189     1.0000 0.87800  0.61900  0.77480  Biso   1.000  H
  H190     1.0000 0.62200  0.38100  0.27480  Biso   1.000  H
  H191     1.0000 0.37800  0.88100  0.22520  Biso   1.000  H
  H192     1.0000 0.12200  0.11900  0.72520  Biso   1.000  H
  H193     1.0000 0.07170  0.37740  0.28090  Biso   1.000  H
  H194     1.0000 0.42830  0.62260  0.78090  Biso   1.000  H
  H195     1.0000 0.57170  0.12260  0.71910  Biso   1.000  H
  H196     1.0000 0.92830  0.87740  0.21910  Biso   1.000  H
  H197     1.0000 0.92830  0.62260  0.71910  Biso   1.000  H
  H198     1.0000 0.57170  0.37740  0.21910  Biso   1.000  H
  H199     1.0000 0.42830  0.87740  0.28090  Biso   1.000  H
  H200     1.0000 0.07170  0.12260  0.78090  Biso   1.000  H
  C145     1.0000 0.24990  0.24870  0.20578  Biso   1.000  C
  C146     1.0000 0.25010  0.75130  0.70578  Biso   1.000  C
  C147     1.0000 0.74990  0.25130  0.79422  Biso   1.000  C
  C148     1.0000 0.75010  0.74870  0.29422  Biso   1.000  C
  C149     1.0000 0.75010  0.75130  0.79422  Biso   1.000  C
  C150     1.0000 0.74990  0.24870  0.29422  Biso   1.000  C
  C151     1.0000 0.25010  0.74870  0.20578  Biso   1.000  C
  C152     1.0000 0.24990  0.25130  0.70578  Biso   1.000  C
  H201     1.0000 0.29930  0.26950  0.20030  Biso   1.000  H
  H202     1.0000 0.20070  0.73050  0.70030  Biso   1.000  H
  H203     1.0000 0.79930  0.23050  0.79970  Biso   1.000  H
  H204     1.0000 0.70070  0.76950  0.29970  Biso   1.000  H
  H205     1.0000 0.70070  0.73050  0.79970  Biso   1.000  H
  H206     1.0000 0.79930  0.26950  0.29970  Biso   1.000  H
  H207     1.0000 0.20070  0.76950  0.20030  Biso   1.000  H
  H208     1.0000 0.29930  0.23050  0.70030  Biso   1.000  H
  H209     1.0000 0.21690  0.29000  0.18830  Biso   1.000  H
  H210     1.0000 0.28310  0.71000  0.68830  Biso   1.000  H
  H211     1.0000 0.71690  0.21000  0.81170  Biso   1.000  H
  H212     1.0000 0.78310  0.79000  0.31170  Biso   1.000  H
  H213     1.0000 0.78310  0.71000  0.81170  Biso   1.000  H
  H214     1.0000 0.71690  0.29000  0.31170  Biso   1.000  H
  H215     1.0000 0.28310  0.79000  0.18830  Biso   1.000  H
  H216     1.0000 0.21690  0.21000  0.68830  Biso   1.000  H
  C153     1.0000 0.24190  0.16620  0.17389  Biso   1.000  C
  C154     1.0000 0.25810  0.83380  0.67389  Biso   1.000  C
  C155     1.0000 0.74190  0.33380  0.82611  Biso   1.000  C
  C156     1.0000 0.75810  0.66620  0.32611  Biso   1.000  C
  C157     1.0000 0.75810  0.83380  0.82611  Biso   1.000  C
  C158     1.0000 0.74190  0.16620  0.32611  Biso   1.000  C
  C159     1.0000 0.25810  0.66620  0.17389  Biso   1.000  C
  C160     1.0000 0.24190  0.33380  0.67389  Biso   1.000  C
  H217     1.0000 0.25390  0.17430  0.13320  Biso   1.000  H
  H218     1.0000 0.24610  0.82570  0.63320  Biso   1.000  H
  H219     1.0000 0.75390  0.32570  0.86680  Biso   1.000  H
  H220     1.0000 0.74610  0.67430  0.36680  Biso   1.000  H
  H221     1.0000 0.74610  0.82570  0.86680  Biso   1.000  H
  H222     1.0000 0.75390  0.17430  0.36680  Biso   1.000  H
  H223     1.0000 0.24610  0.67430  0.13320  Biso   1.000  H
  H224     1.0000 0.25390  0.32570  0.63320  Biso   1.000  H
  H225     1.0000 0.19250  0.14660  0.17720  Biso   1.000  H
  H226     1.0000 0.30750  0.85340  0.67720  Biso   1.000  H
  H227     1.0000 0.69250  0.35340  0.82280  Biso   1.000  H
  H228     1.0000 0.80750  0.64660  0.32280  Biso   1.000  H
  H229     1.0000 0.80750  0.85340  0.82280  Biso   1.000  H
  H230     1.0000 0.69250  0.14660  0.32280  Biso   1.000  H
  H231     1.0000 0.30750  0.64660  0.17720  Biso   1.000  H
  H232     1.0000 0.19250  0.35340  0.67720  Biso   1.000  H
  H233     1.0000 0.27430  0.12480  0.19070  Biso   1.000  H
  H234     1.0000 0.22570  0.87520  0.69070  Biso   1.000  H
  H235     1.0000 0.77430  0.37520  0.80930  Biso   1.000  H
  H236     1.0000 0.72570  0.62480  0.30930  Biso   1.000  H
  H237     1.0000 0.72570  0.87520  0.80930  Biso   1.000  H
  H238     1.0000 0.77430  0.12480  0.30930  Biso   1.000  H
  H239     1.0000 0.22570  0.62480  0.19070  Biso   1.000  H
  H240     1.0000 0.27430  0.37520  0.69070  Biso   1.000  H
  C161     1.0000 0.37110  0.23880  0.29320  Biso   1.000  C
  C162     1.0000 0.12890  0.76120  0.79320  Biso   1.000  C
  C163     1.0000 0.87110  0.26120  0.70680  Biso   1.000  C
  C164     1.0000 0.62890  0.73880  0.20680  Biso   1.000  C
  C165     1.0000 0.62890  0.76120  0.70680  Biso   1.000  C
  C166     1.0000 0.87110  0.23880  0.20680  Biso   1.000  C
  C167     1.0000 0.12890  0.73880  0.29320  Biso   1.000  C
  C168     1.0000 0.37110  0.26120  0.79320  Biso   1.000  C
  H241     1.0000 0.40080  0.25540  0.32660  Biso   1.000  H
  H242     1.0000 0.09920  0.74460  0.82660  Biso   1.000  H
  H243     1.0000 0.90080  0.24460  0.67340  Biso   1.000  H
  H244     1.0000 0.59920  0.75540  0.17340  Biso   1.000  H
  H245     1.0000 0.59920  0.74460  0.67340  Biso   1.000  H
  H246     1.0000 0.90080  0.25540  0.17340  Biso   1.000  H
  H247     1.0000 0.09920  0.75540  0.32660  Biso   1.000  H
  H248     1.0000 0.40080  0.24460  0.82660  Biso   1.000  H
  H249     1.0000 0.37540  0.28330  0.26390  Biso   1.000  H
  H250     1.0000 0.12460  0.71670  0.76390  Biso   1.000  H
  H251     1.0000 0.87540  0.21670  0.73610  Biso   1.000  H
  H252     1.0000 0.62460  0.78330  0.23610  Biso   1.000  H
  H253     1.0000 0.62460  0.71670  0.73610  Biso   1.000  H
  H254     1.0000 0.87540  0.28330  0.23610  Biso   1.000  H
  H255     1.0000 0.12460  0.78330  0.26390  Biso   1.000  H
  H256     1.0000 0.37540  0.21670  0.76390  Biso   1.000  H
  C169     1.0000 0.40140  0.15850  0.26820  Biso   1.000  C
  C170     1.0000 0.09860  0.84150  0.76820  Biso   1.000  C
  C171     1.0000 0.90140  0.34150  0.73180  Biso   1.000  C
  C172     1.0000 0.59860  0.65850  0.23180  Biso   1.000  C
  C173     1.0000 0.59860  0.84150  0.73180  Biso   1.000  C
  C174     1.0000 0.90140  0.15850  0.23180  Biso   1.000  C
  C175     1.0000 0.09860  0.65850  0.26820  Biso   1.000  C
  C176     1.0000 0.40140  0.34150  0.76820  Biso   1.000  C
  H257     1.0000 0.37800  0.14650  0.23140  Biso   1.000  H
  H258     1.0000 0.12200  0.85350  0.73140  Biso   1.000  H
  H259     1.0000 0.87800  0.35350  0.76860  Biso   1.000  H
  H260     1.0000 0.62200  0.64650  0.26860  Biso   1.000  H
  H261     1.0000 0.62200  0.85350  0.76860  Biso   1.000  H
  H262     1.0000 0.87800  0.14650  0.26860  Biso   1.000  H
  H263     1.0000 0.12200  0.64650  0.23140  Biso   1.000  H
  H264     1.0000 0.37800  0.35350  0.73140  Biso   1.000  H
  H265     1.0000 0.39280  0.11240  0.29510  Biso   1.000  H
  H266     1.0000 0.10720  0.88760  0.79510  Biso   1.000  H
  H267     1.0000 0.89280  0.38760  0.70490  Biso   1.000  H
  H268     1.0000 0.60720  0.61240  0.20490  Biso   1.000  H
  H269     1.0000 0.60720  0.88760  0.70490  Biso   1.000  H
  H270     1.0000 0.89280  0.11240  0.20490  Biso   1.000  H
  H271     1.0000 0.10720  0.61240  0.29510  Biso   1.000  H
  H272     1.0000 0.39280  0.38760  0.79510  Biso   1.000  H
  H273     1.0000 0.45300  0.16490  0.26210  Biso   1.000  H
  H274     1.0000 0.04700  0.83510  0.76210  Biso   1.000  H
  H275     1.0000 0.95300  0.33510  0.73790  Biso   1.000  H
  H276     1.0000 0.54700  0.66490  0.23790  Biso   1.000  H
  H277     1.0000 0.54700  0.83510  0.73790  Biso   1.000  H
  H278     1.0000 0.95300  0.16490  0.23790  Biso   1.000  H
  H279     1.0000 0.04700  0.66490  0.26210  Biso   1.000  H
  H280     1.0000 0.45300  0.33510  0.76210  Biso   1.000  H
  C177     1.0000 0.32690  0.21480  0.41780  Biso   1.000  C
  C178     1.0000 0.17310  0.78520  0.91780  Biso   1.000  C
  C179     1.0000 0.82690  0.28520  0.58220  Biso   1.000  C
  C180     1.0000 0.67310  0.71480  0.08220  Biso   1.000  C
  C181     1.0000 0.67310  0.78520  0.58220  Biso   1.000  C
  C182     1.0000 0.82690  0.21480  0.08220  Biso   1.000  C
  C183     1.0000 0.17310  0.71480  0.41780  Biso   1.000  C
  C184     1.0000 0.32690  0.28520  0.91780  Biso   1.000  C
  H281     1.0000 0.37050  0.24650  0.40750  Biso   1.000  H
  H282     1.0000 0.12950  0.75350  0.90750  Biso   1.000  H
  H283     1.0000 0.87050  0.25350  0.59250  Biso   1.000  H
  H284     1.0000 0.62950  0.74650  0.09250  Biso   1.000  H
  H285     1.0000 0.62950  0.75350  0.59250  Biso   1.000  H
  H286     1.0000 0.87050  0.24650  0.09250  Biso   1.000  H
  H287     1.0000 0.12950  0.74650  0.40750  Biso   1.000  H
  H288     1.0000 0.37050  0.25350  0.90750  Biso   1.000  H
  H289     1.0000 0.30650  0.24020  0.45300  Biso   1.000  H
  H290     1.0000 0.19350  0.75980  0.95300  Biso   1.000  H
  H291     1.0000 0.80650  0.25980  0.54700  Biso   1.000  H
  H292     1.0000 0.69350  0.74020  0.04700  Biso   1.000  H
  H293     1.0000 0.69350  0.75980  0.54700  Biso   1.000  H
  H294     1.0000 0.80650  0.24020  0.04700  Biso   1.000  H
  H295     1.0000 0.19350  0.74020  0.45300  Biso   1.000  H
  H296     1.0000 0.30650  0.25980  0.95300  Biso   1.000  H
  C185     1.0000 0.34720  0.12700  0.43040  Biso   1.000  C
  C186     1.0000 0.15280  0.87300  0.93040  Biso   1.000  C
  C187     1.0000 0.84720  0.37300  0.56960  Biso   1.000  C
  C188     1.0000 0.65280  0.62700  0.06960  Biso   1.000  C
  C189     1.0000 0.65280  0.87300  0.56960  Biso   1.000  C
  C190     1.0000 0.84720  0.12700  0.06960  Biso   1.000  C
  C191     1.0000 0.15280  0.62700  0.43040  Biso   1.000  C
  C192     1.0000 0.34720  0.37300  0.93040  Biso   1.000  C
  H297     1.0000 0.37110  0.10280  0.39680  Biso   1.000  H
  H298     1.0000 0.12890  0.89720  0.89680  Biso   1.000  H
  H299     1.0000 0.87110  0.39720  0.60320  Biso   1.000  H
  H300     1.0000 0.62890  0.60280  0.10320  Biso   1.000  H
  H301     1.0000 0.62890  0.89720  0.60320  Biso   1.000  H
  H302     1.0000 0.87110  0.10280  0.10320  Biso   1.000  H
  H303     1.0000 0.12890  0.60280  0.39680  Biso   1.000  H
  H304     1.0000 0.37110  0.39720  0.89680  Biso   1.000  H
  H305     1.0000 0.30410  0.09460  0.43930  Biso   1.000  H
  H306     1.0000 0.19590  0.90540  0.93930  Biso   1.000  H
  H307     1.0000 0.80410  0.40540  0.56070  Biso   1.000  H
  H308     1.0000 0.69590  0.59460  0.06070  Biso   1.000  H
  H309     1.0000 0.69590  0.90540  0.56070  Biso   1.000  H
  H310     1.0000 0.80410  0.09460  0.06070  Biso   1.000  H
  H311     1.0000 0.19590  0.59460  0.43930  Biso   1.000  H
  H312     1.0000 0.30410  0.40540  0.93930  Biso   1.000  H
  H313     1.0000 0.37970  0.12570  0.46350  Biso   1.000  H
  H314     1.0000 0.12030  0.87430  0.96350  Biso   1.000  H
  H315     1.0000 0.87970  0.37430  0.53650  Biso   1.000  H
  H316     1.0000 0.62030  0.62570  0.03650  Biso   1.000  H
  H317     1.0000 0.62030  0.87430  0.53650  Biso   1.000  H
  H318     1.0000 0.87970  0.12570  0.03650  Biso   1.000  H
  H319     1.0000 0.12030  0.62570  0.46350  Biso   1.000  H
  H320     1.0000 0.37970  0.37430  0.96350  Biso   1.000  H
  C193     1.0000 0.92980  0.39650  0.33260  Biso   1.000  C
  C194     1.0000 0.57020  0.60350  0.83260  Biso   1.000  C
  C195     1.0000 0.42980  0.10350  0.66740  Biso   1.000  C
  C196     1.0000 0.07020  0.89650  0.16740  Biso   1.000  C
  C197     1.0000 0.07020  0.60350  0.66740  Biso   1.000  C
  C198     1.0000 0.42980  0.39650  0.16740  Biso   1.000  C
  C199     1.0000 0.57020  0.89650  0.33260  Biso   1.000  C
  C200     1.0000 0.92980  0.10350  0.83260  Biso   1.000  C
  H321     1.0000 0.88360  0.38300  0.35130  Biso   1.000  H
  H322     1.0000 0.61640  0.61700  0.85130  Biso   1.000  H
  H323     1.0000 0.38360  0.11700  0.64870  Biso   1.000  H
  H324     1.0000 0.11640  0.88300  0.14870  Biso   1.000  H
  H325     1.0000 0.11640  0.61700  0.64870  Biso   1.000  H
  H326     1.0000 0.38360  0.38300  0.14870  Biso   1.000  H
  H327     1.0000 0.61640  0.88300  0.35130  Biso   1.000  H
  H328     1.0000 0.88360  0.11700  0.85130  Biso   1.000  H
  H329     1.0000 0.93670  0.35890  0.29920  Biso   1.000  H
  H330     1.0000 0.56330  0.64110  0.79920  Biso   1.000  H
  H331     1.0000 0.43670  0.14110  0.70080  Biso   1.000  H
  H332     1.0000 0.06330  0.85890  0.20080  Biso   1.000  H
  H333     1.0000 0.06330  0.64110  0.70080  Biso   1.000  H
  H334     1.0000 0.43670  0.35890  0.20080  Biso   1.000  H
  H335     1.0000 0.56330  0.85890  0.29920  Biso   1.000  H
  H336     1.0000 0.93670  0.14110  0.79920  Biso   1.000  H
  C201     1.0000 0.93150  0.48510  0.31420  Biso   1.000  C
  C202     1.0000 0.56850  0.51490  0.81420  Biso   1.000  C
  C203     1.0000 0.43150  0.01490  0.68580  Biso   1.000  C
  C204     1.0000 0.06850  0.98510  0.18580  Biso   1.000  C
  C205     1.0000 0.06850  0.51490  0.68580  Biso   1.000  C
  C206     1.0000 0.43150  0.48510  0.18580  Biso   1.000  C
  C207     1.0000 0.56850  0.98510  0.31420  Biso   1.000  C
  C208     1.0000 0.93150  0.01490  0.81420  Biso   1.000  C
  H337     1.0000 0.96630  0.49370  0.28260  Biso   1.000  H
  H338     1.0000 0.53370  0.50630  0.78260  Biso   1.000  H
  H339     1.0000 0.46630  0.00630  0.71740  Biso   1.000  H
  H340     1.0000 0.03370  0.99370  0.21740  Biso   1.000  H
  H341     1.0000 0.03370  0.50630  0.71740  Biso   1.000  H
  H342     1.0000 0.46630  0.49370  0.21740  Biso   1.000  H
  H343     1.0000 0.53370  0.99370  0.28260  Biso   1.000  H
  H344     1.0000 0.96630  0.00630  0.78260  Biso   1.000  H
  H345     1.0000 0.88360  0.50400  0.30140  Biso   1.000  H
  H346     1.0000 0.61640  0.49600  0.80140  Biso   1.000  H
  H347     1.0000 0.38360  0.99600  0.69860  Biso   1.000  H
  H348     1.0000 0.11640  0.00400  0.19860  Biso   1.000  H
  H349     1.0000 0.11640  0.49600  0.69860  Biso   1.000  H
  H350     1.0000 0.38360  0.50400  0.19860  Biso   1.000  H
  H351     1.0000 0.61640  0.00400  0.30140  Biso   1.000  H
  H352     1.0000 0.88360  0.99600  0.80140  Biso   1.000  H
  C209     1.0000 0.95340  0.52820  0.36570  Biso   1.000  C
  C210     1.0000 0.54660  0.47180  0.86570  Biso   1.000  C
  C211     1.0000 0.45340  0.97180  0.63430  Biso   1.000  C
  C212     1.0000 0.04660  0.02820  0.13430  Biso   1.000  C
  C213     1.0000 0.04660  0.47180  0.63430  Biso   1.000  C
  C214     1.0000 0.45340  0.52820  0.13430  Biso   1.000  C
  C215     1.0000 0.54660  0.02820  0.36570  Biso   1.000  C
  C216     1.0000 0.95340  0.97180  0.86570  Biso   1.000  C
  H353     1.0000 0.91160  0.54200  0.39010  Biso   1.000  H
  H354     1.0000 0.58840  0.45800  0.89010  Biso   1.000  H
  H355     1.0000 0.41160  0.95800  0.60990  Biso   1.000  H
  H356     1.0000 0.08840  0.04200  0.10990  Biso   1.000  H
  H357     1.0000 0.08840  0.45800  0.60990  Biso   1.000  H
  H358     1.0000 0.41160  0.54200  0.10990  Biso   1.000  H
  H359     1.0000 0.58840  0.04200  0.39010  Biso   1.000  H
  H360     1.0000 0.91160  0.95800  0.89010  Biso   1.000  H
  H361     1.0000 0.97920  0.58030  0.35610  Biso   1.000  H
  H362     1.0000 0.52080  0.41970  0.85610  Biso   1.000  H
  H363     1.0000 0.47920  0.91970  0.64390  Biso   1.000  H
  H364     1.0000 0.02080  0.08030  0.14390  Biso   1.000  H
  H365     1.0000 0.02080  0.41970  0.64390  Biso   1.000  H
  H366     1.0000 0.47920  0.58030  0.14390  Biso   1.000  H
  H367     1.0000 0.52080  0.08030  0.35610  Biso   1.000  H
  H368     1.0000 0.97920  0.91970  0.85610  Biso   1.000  H
  C217     1.0000 0.00200  0.46780  0.39580  Biso   1.000  C
  C218     1.0000 0.49800  0.53220  0.89580  Biso   1.000  C
  C219     1.0000 0.50200  0.03220  0.60420  Biso   1.000  C
  C220     1.0000 0.99800  0.96780  0.10420  Biso   1.000  C
  C221     1.0000 0.99800  0.53220  0.60420  Biso   1.000  C
  C222     1.0000 0.50200  0.46780  0.10420  Biso   1.000  C
  C223     1.0000 0.49800  0.96780  0.39580  Biso   1.000  C
  C224     1.0000 0.00200  0.03220  0.89580  Biso   1.000  C
  H369     1.0000 0.05270  0.48310  0.38940  Biso   1.000  H
  H370     1.0000 0.44730  0.51690  0.88940  Biso   1.000  H
  H371     1.0000 0.55270  0.01690  0.61060  Biso   1.000  H
  H372     1.0000 0.94730  0.98310  0.11060  Biso   1.000  H
  H373     1.0000 0.94730  0.51690  0.61060  Biso   1.000  H
  H374     1.0000 0.55270  0.48310  0.11060  Biso   1.000  H
  H375     1.0000 0.44730  0.98310  0.38940  Biso   1.000  H
  H376     1.0000 0.05270  0.01690  0.88940  Biso   1.000  H
  H377     1.0000 0.99260  0.46800  0.43780  Biso   1.000  H
  H378     1.0000 0.50740  0.53200  0.93780  Biso   1.000  H
  H379     1.0000 0.49260  0.03200  0.56220  Biso   1.000  H
  H380     1.0000 0.00740  0.96800  0.06220  Biso   1.000  H
  H381     1.0000 0.00740  0.53200  0.56220  Biso   1.000  H
  H382     1.0000 0.49260  0.46800  0.06220  Biso   1.000  H
  H383     1.0000 0.50740  0.96800  0.43780  Biso   1.000  H
  H384     1.0000 0.99260  0.03200  0.93780  Biso   1.000  H
  C225     1.0000 0.13520  0.02990  0.54754  Biso   1.000  C
  C226     1.0000 0.36480  0.97010  0.04754  Biso   1.000  C
  C227     1.0000 0.63520  0.47010  0.45246  Biso   1.000  C
  C228     1.0000 0.86480  0.52990  0.95246  Biso   1.000  C
  C229     1.0000 0.86480  0.97010  0.45246  Biso   1.000  C
  C230     1.0000 0.63520  0.02990  0.95246  Biso   1.000  C
  C231     1.0000 0.36480  0.52990  0.54754  Biso   1.000  C
  C232     1.0000 0.13520  0.47010  0.04754  Biso   1.000  C
  H385     1.0000 0.14180  0.97720  0.52590  Biso   1.000  H
  H386     1.0000 0.35820  0.02280  0.02590  Biso   1.000  H
  H387     1.0000 0.64180  0.52280  0.47410  Biso   1.000  H
  H388     1.0000 0.85820  0.47720  0.97410  Biso   1.000  H
  H389     1.0000 0.85820  0.02280  0.47410  Biso   1.000  H
  H390     1.0000 0.64180  0.97720  0.97410  Biso   1.000  H
  H391     1.0000 0.35820  0.47720  0.52590  Biso   1.000  H
  H392     1.0000 0.14180  0.52280  0.02590  Biso   1.000  H
  H393     1.0000 0.08520  0.04890  0.54250  Biso   1.000  H
  H394     1.0000 0.41480  0.95110  0.04250  Biso   1.000  H
  H395     1.0000 0.58520  0.45110  0.45750  Biso   1.000  H
  H396     1.0000 0.91480  0.54890  0.95750  Biso   1.000  H
  H397     1.0000 0.91480  0.95110  0.45750  Biso   1.000  H
  H398     1.0000 0.58520  0.04890  0.95750  Biso   1.000  H
  H399     1.0000 0.41480  0.54890  0.54250  Biso   1.000  H
  H400     1.0000 0.08520  0.45110  0.04250  Biso   1.000  H
  C233     1.0000 0.15210  0.01770  0.61011  Biso   1.000  C
  C234     1.0000 0.34790  0.98230  0.11011  Biso   1.000  C
  C235     1.0000 0.65210  0.48230  0.38989  Biso   1.000  C
  C236     1.0000 0.84790  0.51770  0.88989  Biso   1.000  C
  C237     1.0000 0.84790  0.98230  0.38989  Biso   1.000  C
  C238     1.0000 0.65210  0.01770  0.88989  Biso   1.000  C
  C239     1.0000 0.34790  0.51770  0.61011  Biso   1.000  C
  C240     1.0000 0.15210  0.48230  0.11011  Biso   1.000  C
  H401     1.0000 0.14170  0.95980  0.62250  Biso   1.000  H
  H402     1.0000 0.35830  0.04020  0.12250  Biso   1.000  H
  H403     1.0000 0.64170  0.54020  0.37750  Biso   1.000  H
  H404     1.0000 0.85830  0.45980  0.87750  Biso   1.000  H
  H405     1.0000 0.85830  0.04020  0.37750  Biso   1.000  H
  H406     1.0000 0.64170  0.95980  0.87750  Biso   1.000  H
  H407     1.0000 0.35830  0.45980  0.62250  Biso   1.000  H
  H408     1.0000 0.14170  0.54020  0.12250  Biso   1.000  H
  H409     1.0000 0.12470  0.05700  0.63450  Biso   1.000  H
  H410     1.0000 0.37530  0.94300  0.13450  Biso   1.000  H
  H411     1.0000 0.62470  0.44300  0.36550  Biso   1.000  H
  H412     1.0000 0.87530  0.55700  0.86550  Biso   1.000  H
  H413     1.0000 0.87530  0.94300  0.36550  Biso   1.000  H
  H414     1.0000 0.62470  0.05700  0.86550  Biso   1.000  H
  H415     1.0000 0.37530  0.55700  0.63450  Biso   1.000  H
  H416     1.0000 0.12470  0.44300  0.13450  Biso   1.000  H
  C241     1.0000 0.23160  0.03590  0.61284  Biso   1.000  C
  C242     1.0000 0.26840  0.96410  0.11284  Biso   1.000  C
  C243     1.0000 0.73160  0.46410  0.38716  Biso   1.000  C
  C244     1.0000 0.76840  0.53590  0.88716  Biso   1.000  C
  C245     1.0000 0.76840  0.96410  0.38716  Biso   1.000  C
  C246     1.0000 0.73160  0.03590  0.88716  Biso   1.000  C
  C247     1.0000 0.26840  0.53590  0.61284  Biso   1.000  C
  C248     1.0000 0.23160  0.46410  0.11284  Biso   1.000  C
  H417     1.0000 0.24610  0.05360  0.65200  Biso   1.000  H
  H418     1.0000 0.25390  0.94640  0.15200  Biso   1.000  H
  H419     1.0000 0.74610  0.44640  0.34800  Biso   1.000  H
  H420     1.0000 0.75390  0.55360  0.84800  Biso   1.000  H
  H421     1.0000 0.75390  0.94640  0.34800  Biso   1.000  H
  H422     1.0000 0.74610  0.05360  0.84800  Biso   1.000  H
  H423     1.0000 0.25390  0.55360  0.65200  Biso   1.000  H
  H424     1.0000 0.24610  0.44640  0.15200  Biso   1.000  H
  H425     1.0000 0.26010  0.98650  0.60140  Biso   1.000  H
  H426     1.0000 0.23990  0.01350  0.10140  Biso   1.000  H
  H427     1.0000 0.76010  0.51350  0.39860  Biso   1.000  H
  H428     1.0000 0.73990  0.48650  0.89860  Biso   1.000  H
  H429     1.0000 0.73990  0.01350  0.39860  Biso   1.000  H
  H430     1.0000 0.76010  0.98650  0.89860  Biso   1.000  H
  H431     1.0000 0.23990  0.48650  0.60140  Biso   1.000  H
  H432     1.0000 0.26010  0.51350  0.10140  Biso   1.000  H
  C249     1.0000 0.23990  0.10550  0.57034  Biso   1.000  C
  C250     1.0000 0.26010  0.89450  0.07034  Biso   1.000  C
  C251     1.0000 0.73990  0.39450  0.42966  Biso   1.000  C
  C252     1.0000 0.76010  0.60550  0.92966  Biso   1.000  C
  C253     1.0000 0.76010  0.89450  0.42966  Biso   1.000  C
  C254     1.0000 0.73990  0.10550  0.92966  Biso   1.000  C
  C255     1.0000 0.26010  0.60550  0.57034  Biso   1.000  C
  C256     1.0000 0.23990  0.39450  0.07034  Biso   1.000  C
  H433     1.0000 0.23380  0.16020  0.58950  Biso   1.000  H
  H434     1.0000 0.26620  0.83980  0.08950  Biso   1.000  H
  H435     1.0000 0.73380  0.33980  0.41050  Biso   1.000  H
  H436     1.0000 0.76620  0.66020  0.91050  Biso   1.000  H
  H437     1.0000 0.76620  0.83980  0.41050  Biso   1.000  H
  H438     1.0000 0.73380  0.16020  0.91050  Biso   1.000  H
  H439     1.0000 0.26620  0.66020  0.58950  Biso   1.000  H
  H440     1.0000 0.23380  0.33980  0.08950  Biso   1.000  H
  H441     1.0000 0.28790  0.10360  0.55230  Biso   1.000  H
  H442     1.0000 0.21210  0.89640  0.05230  Biso   1.000  H
  H443     1.0000 0.78790  0.39640  0.44770  Biso   1.000  H
  H444     1.0000 0.71210  0.60360  0.94770  Biso   1.000  H
  H445     1.0000 0.71210  0.89640  0.44770  Biso   1.000  H
  H446     1.0000 0.78790  0.10360  0.94770  Biso   1.000  H
  H447     1.0000 0.21210  0.60360  0.55230  Biso   1.000  H
  H448     1.0000 0.28790  0.39640  0.05230  Biso   1.000  H
  Li1      1.0000 0.05490  0.30110  0.38140  Biso   1.000  Li
  Li2      1.0000 0.44510  0.69890  0.88140  Biso   1.000  Li
  Li3      1.0000 0.55490  0.19890  0.61860  Biso   1.000  Li
  Li4      1.0000 0.94510  0.80110  0.11860  Biso   1.000  Li
  Li5      1.0000 0.94510  0.69890  0.61860  Biso   1.000  Li
  Li6      1.0000 0.55490  0.30110  0.11860  Biso   1.000  Li
  Li7      1.0000 0.44510  0.80110  0.38140  Biso   1.000  Li
  Li8      1.0000 0.05490  0.19890  0.88140  Biso   1.000  Li
  Li9      1.0000 0.15790  0.16030  0.46560  Biso   1.000  Li
  Li10     1.0000 0.34210  0.83970  0.96560  Biso   1.000  Li
  Li11     1.0000 0.65790  0.33970  0.53440  Biso   1.000  Li
  Li12     1.0000 0.84210  0.66030  0.03440  Biso   1.000  Li
  Li13     1.0000 0.84210  0.83970  0.53440  Biso   1.000  Li
  Li14     1.0000 0.65790  0.16030  0.03440  Biso   1.000  Li
  Li15     1.0000 0.34210  0.66030  0.46560  Biso   1.000  Li
  Li16     1.0000 0.15790  0.33970  0.96560  Biso   1.000  Li
  Li17     1.0000 0.23020  0.35020  0.33370  Biso   1.000  Li
  Li18     1.0000 0.26980  0.64980  0.83370  Biso   1.000  Li
  Li19     1.0000 0.73020  0.14980  0.66630  Biso   1.000  Li
  Li20     1.0000 0.76980  0.85020  0.16630  Biso   1.000  Li
  Li21     1.0000 0.76980  0.64980  0.66630  Biso   1.000  Li
  Li22     1.0000 0.73020  0.35020  0.16630  Biso   1.000  Li
  Li23     1.0000 0.26980  0.85020  0.33370  Biso   1.000  Li
  Li24     1.0000 0.23020  0.14980  0.83370  Biso   1.000  Li
  Li25     1.0000 0.21630  0.12250  0.32100  Biso   1.000  Li
  Li26     1.0000 0.28370  0.87750  0.82100  Biso   1.000  Li
  Li27     1.0000 0.71630  0.37750  0.67900  Biso   1.000  Li
  Li28     1.0000 0.78370  0.62250  0.17900  Biso   1.000  Li
  Li29     1.0000 0.78370  0.87750  0.67900  Biso   1.000  Li
  Li30     1.0000 0.71630  0.12250  0.17900  Biso   1.000  Li
  Li31     1.0000 0.28370  0.62250  0.32100  Biso   1.000  Li
  Li32     1.0000 0.21630  0.37750  0.82100  Biso   1.000  Li
