data_image0
_cell_length_a       24.539
_cell_length_b       13.947
_cell_length_c       36.45
_cell_angle_alpha    90
_cell_angle_beta     90
_cell_angle_gamma    90

_symmetry_space_group_name_H-M    "P 1"
_symmetry_int_tables_number       1

loop_
  _symmetry_equiv_pos_as_xyz
  'x, y, z'

loop_
  _atom_site_label
  _atom_site_occupancy
  _atom_site_fract_x
  _atom_site_fract_y
  _atom_site_fract_z
  _atom_site_thermal_displace_type
  _atom_site_B_iso_or_equiv
  _atom_site_type_symbol
  I1       1.0000 0.56472  0.87476  0.00939  Biso   1.000  I
  I2       1.0000 0.93528  0.12524  0.50939  Biso   1.000  I
  I3       1.0000 0.06472  0.62524  0.99061  Biso   1.000  I
  I4       1.0000 0.43528  0.37476  0.49061  Biso   1.000  I
  I5       1.0000 0.43528  0.12524  0.99061  Biso   1.000  I
  I6       1.0000 0.06472  0.87476  0.49061  Biso   1.000  I
  I7       1.0000 0.93528  0.37476  0.00939  Biso   1.000  I
  I8       1.0000 0.56472  0.62524  0.50939  Biso   1.000  I
  Cu1      1.0000 0.48006  0.84200  0.04778  Biso   1.000  Cu
  Cu2      1.0000 0.01994  0.15800  0.54778  Biso   1.000  Cu
  Cu3      1.0000 0.98006  0.65800  0.95222  Biso   1.000  Cu
  Cu4      1.0000 0.51994  0.34200  0.45222  Biso   1.000  Cu
  Cu5      1.0000 0.51994  0.15800  0.95222  Biso   1.000  Cu
  Cu6      1.0000 0.98006  0.84200  0.45222  Biso   1.000  Cu
  Cu7      1.0000 0.01994  0.34200  0.04778  Biso   1.000  Cu
  Cu8      1.0000 0.48006  0.65800  0.54778  Biso   1.000  Cu
  Cu9      1.0000 0.46571  0.93371  0.98607  Biso   1.000  Cu
  Cu10     1.0000 0.03429  0.06629  0.48607  Biso   1.000  Cu
  Cu11     1.0000 0.96571  0.56629  0.01393  Biso   1.000  Cu
  Cu12     1.0000 0.53429  0.43371  0.51393  Biso   1.000  Cu
  Cu13     1.0000 0.53429  0.06629  0.01393  Biso   1.000  Cu
  Cu14     1.0000 0.96571  0.93371  0.51393  Biso   1.000  Cu
  Cu15     1.0000 0.03429  0.43371  0.98607  Biso   1.000  Cu
  Cu16     1.0000 0.46571  0.56629  0.48607  Biso   1.000  Cu
  I9       1.0000 0.38483  0.84901  0.02093  Biso   1.000  I
  I10      1.0000 0.11517  0.15099  0.52093  Biso   1.000  I
  I11      1.0000 0.88483  0.65099  0.97907  Biso   1.000  I
  I12      1.0000 0.61517  0.34901  0.47907  Biso   1.000  I
  I13      1.0000 0.61517  0.15099  0.97907  Biso   1.000  I
  I14      1.0000 0.88483  0.84901  0.47907  Biso   1.000  I
  I15      1.0000 0.11517  0.34901  0.02093  Biso   1.000  I
  I16      1.0000 0.38483  0.65099  0.52093  Biso   1.000  I
  N1       1.0000 0.48950  0.81370  0.10160  Biso   1.000  N
  N2       1.0000 0.01050  0.18630  0.60160  Biso   1.000  N
  N3       1.0000 0.98950  0.68630  0.89840  Biso   1.000  N
  N4       1.0000 0.51050  0.31370  0.39840  Biso   1.000  N
  N5       1.0000 0.51050  0.18630  0.89840  Biso   1.000  N
  N6       1.0000 0.98950  0.81370  0.39840  Biso   1.000  N
  N7       1.0000 0.01050  0.31370  0.10160  Biso   1.000  N
  N8       1.0000 0.48950  0.68630  0.60160  Biso   1.000  N
  N9       1.0000 0.46960  0.92740  0.93010  Biso   1.000  N
  N10      1.0000 0.03040  0.07260  0.43010  Biso   1.000  N
  N11      1.0000 0.96960  0.57260  0.06990  Biso   1.000  N
  N12      1.0000 0.53040  0.42740  0.56990  Biso   1.000  N
  N13      1.0000 0.53040  0.07260  0.06990  Biso   1.000  N
  N14      1.0000 0.96960  0.92740  0.56990  Biso   1.000  N
  N15      1.0000 0.03040  0.42740  0.93010  Biso   1.000  N
  N16      1.0000 0.46960  0.57260  0.43010  Biso   1.000  N
  C1       1.0000 0.44640  0.78840  0.12180  Biso   1.000  C
  C2       1.0000 0.05360  0.21160  0.62180  Biso   1.000  C
  C3       1.0000 0.94640  0.71160  0.87820  Biso   1.000  C
  C4       1.0000 0.55360  0.28840  0.37820  Biso   1.000  C
  C5       1.0000 0.55360  0.21160  0.87820  Biso   1.000  C
  C6       1.0000 0.94640  0.78840  0.37820  Biso   1.000  C
  C7       1.0000 0.05360  0.28840  0.12180  Biso   1.000  C
  C8       1.0000 0.44640  0.71160  0.62180  Biso   1.000  C
  C9       1.0000 0.53880  0.81940  0.11820  Biso   1.000  C
  C10      1.0000 0.96120  0.18060  0.61820  Biso   1.000  C
  C11      1.0000 0.03880  0.68060  0.88180  Biso   1.000  C
  C12      1.0000 0.46120  0.31940  0.38180  Biso   1.000  C
  C13      1.0000 0.46120  0.18060  0.88180  Biso   1.000  C
  C14      1.0000 0.03880  0.81940  0.38180  Biso   1.000  C
  C15      1.0000 0.96120  0.31940  0.11820  Biso   1.000  C
  C16      1.0000 0.53880  0.68060  0.61820  Biso   1.000  C
  C17      1.0000 0.51720  0.94340  0.91230  Biso   1.000  C
  C18      1.0000 0.98280  0.05660  0.41230  Biso   1.000  C
  C19      1.0000 0.01720  0.55660  0.08770  Biso   1.000  C
  C20      1.0000 0.48280  0.44340  0.58770  Biso   1.000  C
  C21      1.0000 0.48280  0.05660  0.08770  Biso   1.000  C
  C22      1.0000 0.01720  0.94340  0.58770  Biso   1.000  C
  C23      1.0000 0.98280  0.44340  0.91230  Biso   1.000  C
  C24      1.0000 0.51720  0.55660  0.41230  Biso   1.000  C
  C25      1.0000 0.42460  0.92060  0.91020  Biso   1.000  C
  C26      1.0000 0.07540  0.07940  0.41020  Biso   1.000  C
  C27      1.0000 0.92460  0.57940  0.08980  Biso   1.000  C
  C28      1.0000 0.57540  0.42060  0.58980  Biso   1.000  C
  C29      1.0000 0.57540  0.07940  0.08980  Biso   1.000  C
  C30      1.0000 0.92460  0.92060  0.58980  Biso   1.000  C
  C31      1.0000 0.07540  0.42060  0.91020  Biso   1.000  C
  C32      1.0000 0.42460  0.57940  0.41020  Biso   1.000  C
  H1       1.0000 0.41240  0.78570  0.11060  Biso   1.000  H
  H2       1.0000 0.08760  0.21430  0.61060  Biso   1.000  H
  H3       1.0000 0.91240  0.71430  0.88940  Biso   1.000  H
  H4       1.0000 0.58760  0.28570  0.38940  Biso   1.000  H
  H5       1.0000 0.58760  0.21430  0.88940  Biso   1.000  H
  H6       1.0000 0.91240  0.78570  0.38940  Biso   1.000  H
  H7       1.0000 0.08760  0.28570  0.11060  Biso   1.000  H
  H8       1.0000 0.41240  0.71430  0.61060  Biso   1.000  H
  C33      1.0000 0.44980  0.76640  0.15830  Biso   1.000  C
  C34      1.0000 0.05020  0.23360  0.65830  Biso   1.000  C
  C35      1.0000 0.94980  0.73360  0.84170  Biso   1.000  C
  C36      1.0000 0.55020  0.26640  0.34170  Biso   1.000  C
  C37      1.0000 0.55020  0.23360  0.84170  Biso   1.000  C
  C38      1.0000 0.94980  0.76640  0.34170  Biso   1.000  C
  C39      1.0000 0.05020  0.26640  0.15830  Biso   1.000  C
  C40      1.0000 0.44980  0.73360  0.65830  Biso   1.000  C
  C41      1.0000 0.54580  0.80210  0.15540  Biso   1.000  C
  C42      1.0000 0.95420  0.19790  0.65540  Biso   1.000  C
  C43      1.0000 0.04580  0.69790  0.84460  Biso   1.000  C
  C44      1.0000 0.45420  0.30210  0.34460  Biso   1.000  C
  C45      1.0000 0.45420  0.19790  0.84460  Biso   1.000  C
  C46      1.0000 0.04580  0.80210  0.34460  Biso   1.000  C
  C47      1.0000 0.95420  0.30210  0.15540  Biso   1.000  C
  C48      1.0000 0.54580  0.69790  0.65540  Biso   1.000  C
  H9       1.0000 0.56910  0.83550  0.10420  Biso   1.000  H
  H10      1.0000 0.93090  0.16450  0.60420  Biso   1.000  H
  H11      1.0000 0.06910  0.66450  0.89580  Biso   1.000  H
  H12      1.0000 0.43090  0.33550  0.39580  Biso   1.000  H
  H13      1.0000 0.43090  0.16450  0.89580  Biso   1.000  H
  H14      1.0000 0.06910  0.83550  0.39580  Biso   1.000  H
  H15      1.0000 0.93090  0.33550  0.10420  Biso   1.000  H
  H16      1.0000 0.56910  0.66450  0.60420  Biso   1.000  H
  H17      1.0000 0.54890  0.94920  0.92610  Biso   1.000  H
  H18      1.0000 0.95110  0.05080  0.42610  Biso   1.000  H
  H19      1.0000 0.04890  0.55080  0.07390  Biso   1.000  H
  H20      1.0000 0.45110  0.44920  0.57390  Biso   1.000  H
  H21      1.0000 0.45110  0.05080  0.07390  Biso   1.000  H
  H22      1.0000 0.04890  0.94920  0.57390  Biso   1.000  H
  H23      1.0000 0.95110  0.44920  0.92610  Biso   1.000  H
  H24      1.0000 0.54890  0.55080  0.42610  Biso   1.000  H
  C49      1.0000 0.52050  0.95130  0.87510  Biso   1.000  C
  C50      1.0000 0.97950  0.04870  0.37510  Biso   1.000  C
  C51      1.0000 0.02050  0.54870  0.12490  Biso   1.000  C
  C52      1.0000 0.47950  0.45130  0.62490  Biso   1.000  C
  C53      1.0000 0.47950  0.04870  0.12490  Biso   1.000  C
  C54      1.0000 0.02050  0.95130  0.62490  Biso   1.000  C
  C55      1.0000 0.97950  0.45130  0.87510  Biso   1.000  C
  C56      1.0000 0.52050  0.54870  0.37510  Biso   1.000  C
  C57      1.0000 0.42430  0.93220  0.87170  Biso   1.000  C
  C58      1.0000 0.07570  0.06780  0.37170  Biso   1.000  C
  C59      1.0000 0.92430  0.56780  0.12830  Biso   1.000  C
  C60      1.0000 0.57570  0.43220  0.62830  Biso   1.000  C
  C61      1.0000 0.57570  0.06780  0.12830  Biso   1.000  C
  C62      1.0000 0.92430  0.93220  0.62830  Biso   1.000  C
  C63      1.0000 0.07570  0.43220  0.87170  Biso   1.000  C
  C64      1.0000 0.42430  0.56780  0.37170  Biso   1.000  C
  H25      1.0000 0.39180  0.90770  0.92210  Biso   1.000  H
  H26      1.0000 0.10820  0.09230  0.42210  Biso   1.000  H
  H27      1.0000 0.89180  0.59230  0.07790  Biso   1.000  H
  H28      1.0000 0.60820  0.40770  0.57790  Biso   1.000  H
  H29      1.0000 0.60820  0.09230  0.07790  Biso   1.000  H
  H30      1.0000 0.89180  0.90770  0.57790  Biso   1.000  H
  H31      1.0000 0.10820  0.40770  0.92210  Biso   1.000  H
  H32      1.0000 0.39180  0.59230  0.42210  Biso   1.000  H
  H33      1.0000 0.41930  0.74670  0.17140  Biso   1.000  H
  H34      1.0000 0.08070  0.25330  0.67140  Biso   1.000  H
  H35      1.0000 0.91930  0.75330  0.82860  Biso   1.000  H
  H36      1.0000 0.58070  0.24670  0.32860  Biso   1.000  H
  H37      1.0000 0.58070  0.25330  0.82860  Biso   1.000  H
  H38      1.0000 0.91930  0.74670  0.32860  Biso   1.000  H
  H39      1.0000 0.08070  0.24670  0.17140  Biso   1.000  H
  H40      1.0000 0.41930  0.75330  0.67140  Biso   1.000  H
  C65      1.0000 0.50260  0.77480  0.17570  Biso   1.000  C
  C66      1.0000 0.99740  0.22520  0.67570  Biso   1.000  C
  C67      1.0000 0.00260  0.72520  0.82430  Biso   1.000  C
  C68      1.0000 0.49740  0.27480  0.32430  Biso   1.000  C
  C69      1.0000 0.49740  0.22520  0.82430  Biso   1.000  C
  C70      1.0000 0.00260  0.77480  0.32430  Biso   1.000  C
  C71      1.0000 0.99740  0.27480  0.17570  Biso   1.000  C
  C72      1.0000 0.50260  0.72520  0.67570  Biso   1.000  C
  C73      1.0000 0.59920  0.81130  0.17210  Biso   1.000  C
  C74      1.0000 0.90080  0.18870  0.67210  Biso   1.000  C
  C75      1.0000 0.09920  0.68870  0.82790  Biso   1.000  C
  C76      1.0000 0.40080  0.31130  0.32790  Biso   1.000  C
  C77      1.0000 0.40080  0.18870  0.82790  Biso   1.000  C
  C78      1.0000 0.09920  0.81130  0.32790  Biso   1.000  C
  C79      1.0000 0.90080  0.31130  0.17210  Biso   1.000  C
  C80      1.0000 0.59920  0.68870  0.67210  Biso   1.000  C
  H41      1.0000 0.55420  0.96040  0.86390  Biso   1.000  H
  H42      1.0000 0.94580  0.03960  0.36390  Biso   1.000  H
  H43      1.0000 0.05420  0.53960  0.13610  Biso   1.000  H
  H44      1.0000 0.44580  0.46040  0.63610  Biso   1.000  H
  H45      1.0000 0.44580  0.03960  0.13610  Biso   1.000  H
  H46      1.0000 0.05420  0.96040  0.63610  Biso   1.000  H
  H47      1.0000 0.94580  0.46040  0.86390  Biso   1.000  H
  H48      1.0000 0.55420  0.53960  0.36390  Biso   1.000  H
  C81      1.0000 0.47380  0.94590  0.85380  Biso   1.000  C
  C82      1.0000 0.02620  0.05410  0.35380  Biso   1.000  C
  C83      1.0000 0.97380  0.55410  0.14620  Biso   1.000  C
  C84      1.0000 0.52620  0.44590  0.64620  Biso   1.000  C
  C85      1.0000 0.52620  0.05410  0.14620  Biso   1.000  C
  C86      1.0000 0.97380  0.94590  0.64620  Biso   1.000  C
  C87      1.0000 0.02620  0.44590  0.85380  Biso   1.000  C
  C88      1.0000 0.47380  0.55410  0.35380  Biso   1.000  C
  C89      1.0000 0.37160  0.92910  0.85420  Biso   1.000  C
  C90      1.0000 0.12840  0.07090  0.35420  Biso   1.000  C
  C91      1.0000 0.87160  0.57090  0.14580  Biso   1.000  C
  C92      1.0000 0.62840  0.42910  0.64580  Biso   1.000  C
  C93      1.0000 0.62840  0.07090  0.14580  Biso   1.000  C
  C94      1.0000 0.87160  0.92910  0.64580  Biso   1.000  C
  C95      1.0000 0.12840  0.42910  0.85420  Biso   1.000  C
  C96      1.0000 0.37160  0.57090  0.35420  Biso   1.000  C
  H49      1.0000 0.50670  0.76160  0.20050  Biso   1.000  H
  H50      1.0000 0.99330  0.23840  0.70050  Biso   1.000  H
  H51      1.0000 0.00670  0.73840  0.79950  Biso   1.000  H
  H52      1.0000 0.49330  0.26160  0.29950  Biso   1.000  H
  H53      1.0000 0.49330  0.23840  0.79950  Biso   1.000  H
  H54      1.0000 0.00670  0.76160  0.29950  Biso   1.000  H
  H55      1.0000 0.99330  0.26160  0.20050  Biso   1.000  H
  H56      1.0000 0.50670  0.73840  0.70050  Biso   1.000  H
  C97      1.0000 0.64250  0.82000  0.18570  Biso   1.000  C
  C98      1.0000 0.85750  0.18000  0.68570  Biso   1.000  C
  C99      1.0000 0.14250  0.68000  0.81430  Biso   1.000  C
  C100     1.0000 0.35750  0.32000  0.31430  Biso   1.000  C
  C101     1.0000 0.35750  0.18000  0.81430  Biso   1.000  C
  C102     1.0000 0.14250  0.82000  0.31430  Biso   1.000  C
  C103     1.0000 0.85750  0.32000  0.18570  Biso   1.000  C
  C104     1.0000 0.64250  0.68000  0.68570  Biso   1.000  C
  H57      1.0000 0.47550  0.95120  0.82840  Biso   1.000  H
  H58      1.0000 0.02450  0.04880  0.32840  Biso   1.000  H
  H59      1.0000 0.97550  0.54880  0.17160  Biso   1.000  H
  H60      1.0000 0.52450  0.45120  0.67160  Biso   1.000  H
  H61      1.0000 0.52450  0.04880  0.17160  Biso   1.000  H
  H62      1.0000 0.97550  0.95120  0.67160  Biso   1.000  H
  H63      1.0000 0.02450  0.45120  0.82840  Biso   1.000  H
  H64      1.0000 0.47550  0.54880  0.32840  Biso   1.000  H
  C105     1.0000 0.32890  0.92640  0.83860  Biso   1.000  C
  C106     1.0000 0.17110  0.07360  0.33860  Biso   1.000  C
  C107     1.0000 0.82890  0.57360  0.16140  Biso   1.000  C
  C108     1.0000 0.67110  0.42640  0.66140  Biso   1.000  C
  C109     1.0000 0.67110  0.07360  0.16140  Biso   1.000  C
  C110     1.0000 0.82890  0.92640  0.66140  Biso   1.000  C
  C111     1.0000 0.17110  0.42640  0.83860  Biso   1.000  C
  C112     1.0000 0.32890  0.57360  0.33860  Biso   1.000  C
  C113     1.0000 0.69770  0.82530  0.20110  Biso   1.000  C
  C114     1.0000 0.80230  0.17470  0.70110  Biso   1.000  C
  C115     1.0000 0.19770  0.67470  0.79890  Biso   1.000  C
  C116     1.0000 0.30230  0.32530  0.29890  Biso   1.000  C
  C117     1.0000 0.30230  0.17470  0.79890  Biso   1.000  C
  C118     1.0000 0.19770  0.82530  0.29890  Biso   1.000  C
  C119     1.0000 0.80230  0.32530  0.20110  Biso   1.000  C
  C120     1.0000 0.69770  0.67470  0.70110  Biso   1.000  C
  C121     1.0000 0.27570  0.92600  0.82350  Biso   1.000  C
  C122     1.0000 0.22430  0.07400  0.32350  Biso   1.000  C
  C123     1.0000 0.77570  0.57400  0.17650  Biso   1.000  C
  C124     1.0000 0.72430  0.42600  0.67650  Biso   1.000  C
  C125     1.0000 0.72430  0.07400  0.17650  Biso   1.000  C
  C126     1.0000 0.77570  0.92600  0.67650  Biso   1.000  C
  C127     1.0000 0.22430  0.42600  0.82350  Biso   1.000  C
  C128     1.0000 0.27570  0.57400  0.32350  Biso   1.000  C
  C129     1.0000 0.74260  0.83210  0.17850  Biso   1.000  C
  C130     1.0000 0.75740  0.16790  0.67850  Biso   1.000  C
  C131     1.0000 0.24260  0.66790  0.82150  Biso   1.000  C
  C132     1.0000 0.25740  0.33210  0.32150  Biso   1.000  C
  C133     1.0000 0.25740  0.16790  0.82150  Biso   1.000  C
  C134     1.0000 0.24260  0.83210  0.32150  Biso   1.000  C
  C135     1.0000 0.75740  0.33210  0.17850  Biso   1.000  C
  C136     1.0000 0.74260  0.66790  0.67850  Biso   1.000  C
  C137     1.0000 0.70430  0.81850  0.23910  Biso   1.000  C
  C138     1.0000 0.79570  0.18150  0.73910  Biso   1.000  C
  C139     1.0000 0.20430  0.68150  0.76090  Biso   1.000  C
  C140     1.0000 0.29570  0.31850  0.26090  Biso   1.000  C
  C141     1.0000 0.29570  0.18150  0.76090  Biso   1.000  C
  C142     1.0000 0.20430  0.81850  0.26090  Biso   1.000  C
  C143     1.0000 0.79570  0.31850  0.23910  Biso   1.000  C
  C144     1.0000 0.70430  0.68150  0.73910  Biso   1.000  C
  C145     1.0000 0.23030  0.92170  0.84830  Biso   1.000  C
  C146     1.0000 0.26970  0.07830  0.34830  Biso   1.000  C
  C147     1.0000 0.73030  0.57830  0.15170  Biso   1.000  C
  C148     1.0000 0.76970  0.42170  0.65170  Biso   1.000  C
  C149     1.0000 0.76970  0.07830  0.15170  Biso   1.000  C
  C150     1.0000 0.73030  0.92170  0.65170  Biso   1.000  C
  C151     1.0000 0.26970  0.42170  0.84830  Biso   1.000  C
  C152     1.0000 0.23030  0.57830  0.34830  Biso   1.000  C
  C153     1.0000 0.26560  0.92900  0.78640  Biso   1.000  C
  C154     1.0000 0.23440  0.07100  0.28640  Biso   1.000  C
  C155     1.0000 0.76560  0.57100  0.21360  Biso   1.000  C
  C156     1.0000 0.73440  0.42900  0.71360  Biso   1.000  C
  C157     1.0000 0.73440  0.07100  0.21360  Biso   1.000  C
  C158     1.0000 0.76560  0.92900  0.71360  Biso   1.000  C
  C159     1.0000 0.23440  0.42900  0.78640  Biso   1.000  C
  C160     1.0000 0.26560  0.57100  0.28640  Biso   1.000  C
  H65      1.0000 0.73780  0.83650  0.15330  Biso   1.000  H
  H66      1.0000 0.76220  0.16350  0.65330  Biso   1.000  H
  H67      1.0000 0.23780  0.66350  0.84670  Biso   1.000  H
  H68      1.0000 0.26220  0.33650  0.34670  Biso   1.000  H
  H69      1.0000 0.26220  0.16350  0.84670  Biso   1.000  H
  H70      1.0000 0.23780  0.83650  0.34670  Biso   1.000  H
  H71      1.0000 0.76220  0.33650  0.15330  Biso   1.000  H
  H72      1.0000 0.73780  0.66350  0.65330  Biso   1.000  H
  C161     1.0000 0.79440  0.83240  0.19290  Biso   1.000  C
  C162     1.0000 0.70560  0.16760  0.69290  Biso   1.000  C
  C163     1.0000 0.29440  0.66760  0.80710  Biso   1.000  C
  C164     1.0000 0.20560  0.33240  0.30710  Biso   1.000  C
  C165     1.0000 0.20560  0.16760  0.80710  Biso   1.000  C
  C166     1.0000 0.29440  0.83240  0.30710  Biso   1.000  C
  C167     1.0000 0.70560  0.33240  0.19290  Biso   1.000  C
  C168     1.0000 0.79440  0.66760  0.69290  Biso   1.000  C
  C169     1.0000 0.75740  0.81670  0.25360  Biso   1.000  C
  C170     1.0000 0.74260  0.18330  0.75360  Biso   1.000  C
  C171     1.0000 0.25740  0.68330  0.74640  Biso   1.000  C
  C172     1.0000 0.24260  0.31670  0.24640  Biso   1.000  C
  C173     1.0000 0.24260  0.18330  0.74640  Biso   1.000  C
  C174     1.0000 0.25740  0.81670  0.24640  Biso   1.000  C
  C175     1.0000 0.74260  0.31670  0.25360  Biso   1.000  C
  C176     1.0000 0.75740  0.68330  0.75360  Biso   1.000  C
  H73      1.0000 0.67410  0.81540  0.25450  Biso   1.000  H
  H74      1.0000 0.82590  0.18460  0.75450  Biso   1.000  H
  H75      1.0000 0.17410  0.68460  0.74550  Biso   1.000  H
  H76      1.0000 0.32590  0.31540  0.24550  Biso   1.000  H
  H77      1.0000 0.32590  0.18460  0.74550  Biso   1.000  H
  H78      1.0000 0.17410  0.81540  0.24550  Biso   1.000  H
  H79      1.0000 0.82590  0.31540  0.25450  Biso   1.000  H
  H80      1.0000 0.67410  0.68460  0.75450  Biso   1.000  H
  H81      1.0000 0.23660  0.92040  0.87340  Biso   1.000  H
  H82      1.0000 0.26340  0.07960  0.37340  Biso   1.000  H
  H83      1.0000 0.73660  0.57960  0.12660  Biso   1.000  H
  H84      1.0000 0.76340  0.42040  0.62660  Biso   1.000  H
  H85      1.0000 0.76340  0.07960  0.12660  Biso   1.000  H
  H86      1.0000 0.73660  0.92040  0.62660  Biso   1.000  H
  H87      1.0000 0.26340  0.42040  0.87340  Biso   1.000  H
  H88      1.0000 0.23660  0.57960  0.37340  Biso   1.000  H
  C177     1.0000 0.17850  0.91940  0.83570  Biso   1.000  C
  C178     1.0000 0.32150  0.08060  0.33570  Biso   1.000  C
  C179     1.0000 0.67850  0.58060  0.16430  Biso   1.000  C
  C180     1.0000 0.82150  0.41940  0.66430  Biso   1.000  C
  C181     1.0000 0.82150  0.08060  0.16430  Biso   1.000  C
  C182     1.0000 0.67850  0.91940  0.66430  Biso   1.000  C
  C183     1.0000 0.32150  0.41940  0.83570  Biso   1.000  C
  C184     1.0000 0.17850  0.58060  0.33570  Biso   1.000  C
  C185     1.0000 0.21200  0.92630  0.77220  Biso   1.000  C
  C186     1.0000 0.28800  0.07370  0.27220  Biso   1.000  C
  C187     1.0000 0.71200  0.57370  0.22780  Biso   1.000  C
  C188     1.0000 0.78800  0.42630  0.72780  Biso   1.000  C
  C189     1.0000 0.78800  0.07370  0.22780  Biso   1.000  C
  C190     1.0000 0.71200  0.92630  0.72780  Biso   1.000  C
  C191     1.0000 0.28800  0.42630  0.77220  Biso   1.000  C
  C192     1.0000 0.21200  0.57370  0.27220  Biso   1.000  C
  H89      1.0000 0.29480  0.93290  0.77020  Biso   1.000  H
  H90      1.0000 0.20520  0.06710  0.27020  Biso   1.000  H
  H91      1.0000 0.79480  0.56710  0.22980  Biso   1.000  H
  H92      1.0000 0.70520  0.43290  0.72980  Biso   1.000  H
  H93      1.0000 0.70520  0.06710  0.22980  Biso   1.000  H
  H94      1.0000 0.79480  0.93290  0.72980  Biso   1.000  H
  H95      1.0000 0.20520  0.43290  0.77020  Biso   1.000  H
  H96      1.0000 0.29480  0.56710  0.27020  Biso   1.000  H
  C193     1.0000 0.80220  0.82570  0.22970  Biso   1.000  C
  C194     1.0000 0.69780  0.17430  0.72970  Biso   1.000  C
  C195     1.0000 0.30220  0.67430  0.77030  Biso   1.000  C
  C196     1.0000 0.19780  0.32570  0.27030  Biso   1.000  C
  C197     1.0000 0.19780  0.17430  0.77030  Biso   1.000  C
  C198     1.0000 0.30220  0.82570  0.27030  Biso   1.000  C
  C199     1.0000 0.69780  0.32570  0.22970  Biso   1.000  C
  C200     1.0000 0.80220  0.67430  0.72970  Biso   1.000  C
  C201     1.0000 0.84150  0.83590  0.16790  Biso   1.000  C
  C202     1.0000 0.65850  0.16410  0.66790  Biso   1.000  C
  C203     1.0000 0.34150  0.66410  0.83210  Biso   1.000  C
  C204     1.0000 0.15850  0.33590  0.33210  Biso   1.000  C
  C205     1.0000 0.15850  0.16410  0.83210  Biso   1.000  C
  C206     1.0000 0.34150  0.83590  0.33210  Biso   1.000  C
  C207     1.0000 0.65850  0.33590  0.16790  Biso   1.000  C
  C208     1.0000 0.84150  0.66410  0.66790  Biso   1.000  C
  C209     1.0000 0.76590  0.79780  0.29240  Biso   1.000  C
  C210     1.0000 0.73410  0.20220  0.79240  Biso   1.000  C
  C211     1.0000 0.26590  0.70220  0.70760  Biso   1.000  C
  C212     1.0000 0.23410  0.29780  0.20760  Biso   1.000  C
  C213     1.0000 0.23410  0.20220  0.70760  Biso   1.000  C
  C214     1.0000 0.26590  0.79780  0.20760  Biso   1.000  C
  C215     1.0000 0.73410  0.29780  0.29240  Biso   1.000  C
  C216     1.0000 0.76590  0.70220  0.79240  Biso   1.000  C
  C217     1.0000 0.16880  0.92240  0.79720  Biso   1.000  C
  C218     1.0000 0.33120  0.07760  0.29720  Biso   1.000  C
  C219     1.0000 0.66880  0.57760  0.20280  Biso   1.000  C
  C220     1.0000 0.83120  0.42240  0.70280  Biso   1.000  C
  C221     1.0000 0.83120  0.07760  0.20280  Biso   1.000  C
  C222     1.0000 0.66880  0.92240  0.70280  Biso   1.000  C
  C223     1.0000 0.33120  0.42240  0.79720  Biso   1.000  C
  C224     1.0000 0.16880  0.57760  0.29720  Biso   1.000  C
  C225     1.0000 0.13320  0.91830  0.86020  Biso   1.000  C
  C226     1.0000 0.36680  0.08170  0.36020  Biso   1.000  C
  C227     1.0000 0.63320  0.58170  0.13980  Biso   1.000  C
  C228     1.0000 0.86680  0.41830  0.63980  Biso   1.000  C
  C229     1.0000 0.86680  0.08170  0.13980  Biso   1.000  C
  C230     1.0000 0.63320  0.91830  0.63980  Biso   1.000  C
  C231     1.0000 0.36680  0.41830  0.86020  Biso   1.000  C
  C232     1.0000 0.13320  0.58170  0.36020  Biso   1.000  C
  C233     1.0000 0.20050  0.92720  0.73380  Biso   1.000  C
  C234     1.0000 0.29950  0.07280  0.23380  Biso   1.000  C
  C235     1.0000 0.70050  0.57280  0.26620  Biso   1.000  C
  C236     1.0000 0.79950  0.42720  0.76620  Biso   1.000  C
  C237     1.0000 0.79950  0.07280  0.26620  Biso   1.000  C
  C238     1.0000 0.70050  0.92720  0.76620  Biso   1.000  C
  C239     1.0000 0.29950  0.42720  0.73380  Biso   1.000  C
  C240     1.0000 0.20050  0.57280  0.23380  Biso   1.000  C
  H97      1.0000 0.83730  0.82720  0.23920  Biso   1.000  H
  H98      1.0000 0.66270  0.17280  0.73920  Biso   1.000  H
  H99      1.0000 0.33730  0.67280  0.76080  Biso   1.000  H
  H100     1.0000 0.16270  0.32720  0.26080  Biso   1.000  H
  H101     1.0000 0.16270  0.17280  0.76080  Biso   1.000  H
  H102     1.0000 0.33730  0.82720  0.26080  Biso   1.000  H
  H103     1.0000 0.66270  0.32720  0.23920  Biso   1.000  H
  H104     1.0000 0.83730  0.67280  0.73920  Biso   1.000  H
  C241     1.0000 0.87770  0.83660  0.14740  Biso   1.000  C
  C242     1.0000 0.62230  0.16340  0.64740  Biso   1.000  C
  C243     1.0000 0.37770  0.66340  0.85260  Biso   1.000  C
  C244     1.0000 0.12230  0.33660  0.35260  Biso   1.000  C
  C245     1.0000 0.12230  0.16340  0.85260  Biso   1.000  C
  C246     1.0000 0.37770  0.83660  0.35260  Biso   1.000  C
  C247     1.0000 0.62230  0.33660  0.14740  Biso   1.000  C
  C248     1.0000 0.87770  0.66340  0.64740  Biso   1.000  C
  C249     1.0000 0.77470  0.77420  0.32340  Biso   1.000  C
  C250     1.0000 0.72530  0.22580  0.82340  Biso   1.000  C
  C251     1.0000 0.27470  0.72580  0.67660  Biso   1.000  C
  C252     1.0000 0.22530  0.27420  0.17660  Biso   1.000  C
  C253     1.0000 0.22530  0.22580  0.67660  Biso   1.000  C
  C254     1.0000 0.27470  0.77420  0.17660  Biso   1.000  C
  C255     1.0000 0.72530  0.27420  0.32340  Biso   1.000  C
  C256     1.0000 0.77470  0.72580  0.82340  Biso   1.000  C
  H105     1.0000 0.13310  0.92170  0.78860  Biso   1.000  H
  H106     1.0000 0.36690  0.07830  0.28860  Biso   1.000  H
  H107     1.0000 0.63310  0.57830  0.21140  Biso   1.000  H
  H108     1.0000 0.86690  0.42170  0.71140  Biso   1.000  H
  H109     1.0000 0.86690  0.07830  0.21140  Biso   1.000  H
  H110     1.0000 0.63310  0.92170  0.71140  Biso   1.000  H
  H111     1.0000 0.36690  0.42170  0.78860  Biso   1.000  H
  H112     1.0000 0.13310  0.57830  0.28860  Biso   1.000  H
  C257     1.0000 0.09580  0.91730  0.88210  Biso   1.000  C
  C258     1.0000 0.40420  0.08270  0.38210  Biso   1.000  C
  C259     1.0000 0.59580  0.58270  0.11790  Biso   1.000  C
  C260     1.0000 0.90420  0.41730  0.61790  Biso   1.000  C
  C261     1.0000 0.90420  0.08270  0.11790  Biso   1.000  C
  C262     1.0000 0.59580  0.91730  0.61790  Biso   1.000  C
  C263     1.0000 0.40420  0.41730  0.88210  Biso   1.000  C
  C264     1.0000 0.09580  0.58270  0.38210  Biso   1.000  C
  C265     1.0000 0.19120  0.92560  0.70160  Biso   1.000  C
  C266     1.0000 0.30880  0.07440  0.20160  Biso   1.000  C
  C267     1.0000 0.69120  0.57440  0.29840  Biso   1.000  C
  C268     1.0000 0.80880  0.42560  0.79840  Biso   1.000  C
  C269     1.0000 0.80880  0.07440  0.29840  Biso   1.000  C
  C270     1.0000 0.69120  0.92560  0.79840  Biso   1.000  C
  C271     1.0000 0.30880  0.42560  0.70160  Biso   1.000  C
  C272     1.0000 0.19120  0.57440  0.20160  Biso   1.000  C
  C273     1.0000 0.91810  0.83200  0.11850  Biso   1.000  C
  C274     1.0000 0.58190  0.16800  0.61850  Biso   1.000  C
  C275     1.0000 0.41810  0.66800  0.88150  Biso   1.000  C
  C276     1.0000 0.08190  0.33200  0.38150  Biso   1.000  C
  C277     1.0000 0.08190  0.16800  0.88150  Biso   1.000  C
  C278     1.0000 0.41810  0.83200  0.38150  Biso   1.000  C
  C279     1.0000 0.58190  0.33200  0.11850  Biso   1.000  C
  C280     1.0000 0.91810  0.66800  0.61850  Biso   1.000  C
  C281     1.0000 0.78470  0.73790  0.35970  Biso   1.000  C
  C282     1.0000 0.71530  0.26210  0.85970  Biso   1.000  C
  C283     1.0000 0.28470  0.76210  0.64030  Biso   1.000  C
  C284     1.0000 0.21530  0.23790  0.14030  Biso   1.000  C
  C285     1.0000 0.21530  0.26210  0.64030  Biso   1.000  C
  C286     1.0000 0.28470  0.73790  0.14030  Biso   1.000  C
  C287     1.0000 0.71530  0.23790  0.35970  Biso   1.000  C
  C288     1.0000 0.78470  0.76210  0.85970  Biso   1.000  C
  C289     1.0000 0.05260  0.92010  0.90790  Biso   1.000  C
  C290     1.0000 0.44740  0.07990  0.40790  Biso   1.000  C
  C291     1.0000 0.55260  0.57990  0.09210  Biso   1.000  C
  C292     1.0000 0.94740  0.42010  0.59210  Biso   1.000  C
  C293     1.0000 0.94740  0.07990  0.09210  Biso   1.000  C
  C294     1.0000 0.55260  0.92010  0.59210  Biso   1.000  C
  C295     1.0000 0.44740  0.42010  0.90790  Biso   1.000  C
  C296     1.0000 0.05260  0.57990  0.40790  Biso   1.000  C
  C297     1.0000 0.17720  0.91150  0.66320  Biso   1.000  C
  C298     1.0000 0.32280  0.08850  0.16320  Biso   1.000  C
  C299     1.0000 0.67720  0.58850  0.33680  Biso   1.000  C
  C300     1.0000 0.82280  0.41150  0.83680  Biso   1.000  C
  C301     1.0000 0.82280  0.08850  0.33680  Biso   1.000  C
  C302     1.0000 0.67720  0.91150  0.83680  Biso   1.000  C
  C303     1.0000 0.32280  0.41150  0.66320  Biso   1.000  C
  C304     1.0000 0.17720  0.58850  0.16320  Biso   1.000  C
  C305     1.0000 0.97390  0.82400  0.12530  Biso   1.000  C
  C306     1.0000 0.52610  0.17600  0.62530  Biso   1.000  C
  C307     1.0000 0.47390  0.67600  0.87470  Biso   1.000  C
  C308     1.0000 0.02610  0.32400  0.37470  Biso   1.000  C
  C309     1.0000 0.02610  0.17600  0.87470  Biso   1.000  C
  C310     1.0000 0.47390  0.82400  0.37470  Biso   1.000  C
  C311     1.0000 0.52610  0.32400  0.12530  Biso   1.000  C
  C312     1.0000 0.97390  0.67600  0.62530  Biso   1.000  C
  C313     1.0000 0.90030  0.83350  0.08240  Biso   1.000  C
  C314     1.0000 0.59970  0.16650  0.58240  Biso   1.000  C
  C315     1.0000 0.40030  0.66650  0.91760  Biso   1.000  C
  C316     1.0000 0.09970  0.33350  0.41760  Biso   1.000  C
  C317     1.0000 0.09970  0.16650  0.91760  Biso   1.000  C
  C318     1.0000 0.40030  0.83350  0.41760  Biso   1.000  C
  C319     1.0000 0.59970  0.33350  0.08240  Biso   1.000  C
  C320     1.0000 0.90030  0.66650  0.58240  Biso   1.000  C
  C321     1.0000 0.81710  0.65800  0.36430  Biso   1.000  C
  C322     1.0000 0.68290  0.34200  0.86430  Biso   1.000  C
  C323     1.0000 0.31710  0.84200  0.63570  Biso   1.000  C
  C324     1.0000 0.18290  0.15800  0.13570  Biso   1.000  C
  C325     1.0000 0.18290  0.34200  0.63570  Biso   1.000  C
  C326     1.0000 0.31710  0.65800  0.13570  Biso   1.000  C
  C327     1.0000 0.68290  0.15800  0.36430  Biso   1.000  C
  C328     1.0000 0.81710  0.84200  0.86430  Biso   1.000  C
  C329     1.0000 0.76170  0.77660  0.39100  Biso   1.000  C
  C330     1.0000 0.73830  0.22340  0.89100  Biso   1.000  C
  C331     1.0000 0.26170  0.72340  0.60900  Biso   1.000  C
  C332     1.0000 0.23830  0.27660  0.10900  Biso   1.000  C
  C333     1.0000 0.23830  0.22340  0.60900  Biso   1.000  C
  C334     1.0000 0.26170  0.77660  0.10900  Biso   1.000  C
  C335     1.0000 0.73830  0.27660  0.39100  Biso   1.000  C
  C336     1.0000 0.76170  0.72340  0.89100  Biso   1.000  C
  C337     1.0000 0.00080  0.94310  0.89540  Biso   1.000  C
  C338     1.0000 0.49920  0.05690  0.39540  Biso   1.000  C
  C339     1.0000 0.50080  0.55690  0.10460  Biso   1.000  C
  C340     1.0000 0.99920  0.44310  0.60460  Biso   1.000  C
  C341     1.0000 0.99920  0.05690  0.10460  Biso   1.000  C
  C342     1.0000 0.50080  0.94310  0.60460  Biso   1.000  C
  C343     1.0000 0.49920  0.44310  0.89540  Biso   1.000  C
  C344     1.0000 0.00080  0.55690  0.39540  Biso   1.000  C
  C345     1.0000 0.05980  0.89790  0.94460  Biso   1.000  C
  C346     1.0000 0.44020  0.10210  0.44460  Biso   1.000  C
  C347     1.0000 0.55980  0.60210  0.05540  Biso   1.000  C
  C348     1.0000 0.94020  0.39790  0.55540  Biso   1.000  C
  C349     1.0000 0.94020  0.10210  0.05540  Biso   1.000  C
  C350     1.0000 0.55980  0.89790  0.55540  Biso   1.000  C
  C351     1.0000 0.44020  0.39790  0.94460  Biso   1.000  C
  C352     1.0000 0.05980  0.60210  0.44460  Biso   1.000  C
  C353     1.0000 0.19390  0.97650  0.63630  Biso   1.000  C
  C354     1.0000 0.30610  0.02350  0.13630  Biso   1.000  C
  C355     1.0000 0.69390  0.52350  0.36370  Biso   1.000  C
  C356     1.0000 0.80610  0.47650  0.86370  Biso   1.000  C
  C357     1.0000 0.80610  0.02350  0.36370  Biso   1.000  C
  C358     1.0000 0.69390  0.97650  0.86370  Biso   1.000  C
  C359     1.0000 0.30610  0.47650  0.63630  Biso   1.000  C
  C360     1.0000 0.19390  0.52350  0.13630  Biso   1.000  C
  C361     1.0000 0.14900  0.83070  0.65390  Biso   1.000  C
  C362     1.0000 0.35100  0.16930  0.15390  Biso   1.000  C
  C363     1.0000 0.64900  0.66930  0.34610  Biso   1.000  C
  C364     1.0000 0.85100  0.33070  0.84610  Biso   1.000  C
  C365     1.0000 0.85100  0.16930  0.34610  Biso   1.000  C
  C366     1.0000 0.64900  0.83070  0.84610  Biso   1.000  C
  C367     1.0000 0.35100  0.33070  0.65390  Biso   1.000  C
  C368     1.0000 0.14900  0.66930  0.15390  Biso   1.000  C
  N17      1.0000 0.01130  0.81540  0.09940  Biso   1.000  N
  N18      1.0000 0.48870  0.18460  0.59940  Biso   1.000  N
  N19      1.0000 0.51130  0.68460  0.90060  Biso   1.000  N
  N20      1.0000 0.98870  0.31540  0.40060  Biso   1.000  N
  N21      1.0000 0.98870  0.18460  0.90060  Biso   1.000  N
  N22      1.0000 0.51130  0.81540  0.40060  Biso   1.000  N
  N23      1.0000 0.48870  0.31540  0.09940  Biso   1.000  N
  N24      1.0000 0.01130  0.68460  0.59940  Biso   1.000  N
  H113     1.0000 0.98540  0.82490  0.14960  Biso   1.000  H
  H114     1.0000 0.51460  0.17510  0.64960  Biso   1.000  H
  H115     1.0000 0.48540  0.67510  0.85040  Biso   1.000  H
  H116     1.0000 0.01460  0.32490  0.35040  Biso   1.000  H
  H117     1.0000 0.01460  0.17510  0.85040  Biso   1.000  H
  H118     1.0000 0.48540  0.82490  0.35040  Biso   1.000  H
  H119     1.0000 0.51460  0.32490  0.14960  Biso   1.000  H
  H120     1.0000 0.98540  0.67510  0.64960  Biso   1.000  H
  C369     1.0000 0.93860  0.82440  0.05410  Biso   1.000  C
  C370     1.0000 0.56140  0.17560  0.55410  Biso   1.000  C
  C371     1.0000 0.43860  0.67560  0.94590  Biso   1.000  C
  C372     1.0000 0.06140  0.32440  0.44590  Biso   1.000  C
  C373     1.0000 0.06140  0.17560  0.94590  Biso   1.000  C
  C374     1.0000 0.43860  0.82440  0.44590  Biso   1.000  C
  C375     1.0000 0.56140  0.32440  0.05410  Biso   1.000  C
  C376     1.0000 0.93860  0.67560  0.55410  Biso   1.000  C
  H121     1.0000 0.86350  0.84050  0.07700  Biso   1.000  H
  H122     1.0000 0.63650  0.15950  0.57700  Biso   1.000  H
  H123     1.0000 0.36350  0.65950  0.92300  Biso   1.000  H
  H124     1.0000 0.13650  0.34050  0.42300  Biso   1.000  H
  H125     1.0000 0.13650  0.15950  0.92300  Biso   1.000  H
  H126     1.0000 0.36350  0.84050  0.42300  Biso   1.000  H
  H127     1.0000 0.63650  0.34050  0.07700  Biso   1.000  H
  H128     1.0000 0.86350  0.65950  0.57700  Biso   1.000  H
  N25      1.0000 0.82910  0.61650  0.39540  Biso   1.000  N
  N26      1.0000 0.67090  0.38350  0.89540  Biso   1.000  N
  N27      1.0000 0.32910  0.88350  0.60460  Biso   1.000  N
  N28      1.0000 0.17090  0.11650  0.10460  Biso   1.000  N
  N29      1.0000 0.17090  0.38350  0.60460  Biso   1.000  N
  N30      1.0000 0.32910  0.61650  0.10460  Biso   1.000  N
  N31      1.0000 0.67090  0.11650  0.39540  Biso   1.000  N
  N32      1.0000 0.82910  0.88350  0.89540  Biso   1.000  N
  H129     1.0000 0.83190  0.63110  0.34320  Biso   1.000  H
  H130     1.0000 0.66810  0.36890  0.84320  Biso   1.000  H
  H131     1.0000 0.33190  0.86890  0.65680  Biso   1.000  H
  H132     1.0000 0.16810  0.13110  0.15680  Biso   1.000  H
  H133     1.0000 0.16810  0.36890  0.65680  Biso   1.000  H
  H134     1.0000 0.33190  0.63110  0.15680  Biso   1.000  H
  H135     1.0000 0.66810  0.13110  0.34320  Biso   1.000  H
  H136     1.0000 0.83190  0.86890  0.84320  Biso   1.000  H
  C377     1.0000 0.77310  0.73500  0.42480  Biso   1.000  C
  C378     1.0000 0.72690  0.26500  0.92480  Biso   1.000  C
  C379     1.0000 0.27310  0.76500  0.57520  Biso   1.000  C
  C380     1.0000 0.22690  0.23500  0.07520  Biso   1.000  C
  C381     1.0000 0.22690  0.26500  0.57520  Biso   1.000  C
  C382     1.0000 0.27310  0.73500  0.07520  Biso   1.000  C
  C383     1.0000 0.72690  0.23500  0.42480  Biso   1.000  C
  C384     1.0000 0.77310  0.76500  0.92480  Biso   1.000  C
  H137     1.0000 0.73890  0.82970  0.38950  Biso   1.000  H
  H138     1.0000 0.76110  0.17030  0.88950  Biso   1.000  H
  H139     1.0000 0.23890  0.67030  0.61050  Biso   1.000  H
  H140     1.0000 0.26110  0.32970  0.11050  Biso   1.000  H
  H141     1.0000 0.26110  0.17030  0.61050  Biso   1.000  H
  H142     1.0000 0.23890  0.82970  0.11050  Biso   1.000  H
  H143     1.0000 0.76110  0.32970  0.38950  Biso   1.000  H
  H144     1.0000 0.73890  0.67030  0.88950  Biso   1.000  H
  N33      1.0000 0.95620  0.94640  0.91800  Biso   1.000  N
  N34      1.0000 0.54380  0.05360  0.41800  Biso   1.000  N
  N35      1.0000 0.45620  0.55360  0.08200  Biso   1.000  N
  N36      1.0000 0.04380  0.44640  0.58200  Biso   1.000  N
  N37      1.0000 0.04380  0.05360  0.08200  Biso   1.000  N
  N38      1.0000 0.45620  0.94640  0.58200  Biso   1.000  N
  N39      1.0000 0.54380  0.44640  0.91800  Biso   1.000  N
  N40      1.0000 0.95620  0.55360  0.41800  Biso   1.000  N
  H145     1.0000 0.99620  0.95690  0.87070  Biso   1.000  H
  H146     1.0000 0.50380  0.04310  0.37070  Biso   1.000  H
  H147     1.0000 0.49620  0.54310  0.12930  Biso   1.000  H
  H148     1.0000 0.00380  0.45690  0.62930  Biso   1.000  H
  H149     1.0000 0.00380  0.04310  0.12930  Biso   1.000  H
  H150     1.0000 0.49620  0.95690  0.62930  Biso   1.000  H
  H151     1.0000 0.50380  0.45690  0.87070  Biso   1.000  H
  H152     1.0000 0.99620  0.54310  0.37070  Biso   1.000  H
  H153     1.0000 0.09380  0.88060  0.95360  Biso   1.000  H
  H154     1.0000 0.40620  0.11940  0.45360  Biso   1.000  H
  H155     1.0000 0.59380  0.61940  0.04640  Biso   1.000  H
  H156     1.0000 0.90620  0.38060  0.54640  Biso   1.000  H
  H157     1.0000 0.90620  0.11940  0.04640  Biso   1.000  H
  H158     1.0000 0.59380  0.88060  0.54640  Biso   1.000  H
  H159     1.0000 0.40620  0.38060  0.95360  Biso   1.000  H
  H160     1.0000 0.09380  0.61940  0.45360  Biso   1.000  H
  C385     1.0000 0.01450  0.90230  0.96750  Biso   1.000  C
  C386     1.0000 0.48550  0.09770  0.46750  Biso   1.000  C
  C387     1.0000 0.51450  0.59770  0.03250  Biso   1.000  C
  C388     1.0000 0.98550  0.40230  0.53250  Biso   1.000  C
  C389     1.0000 0.98550  0.09770  0.03250  Biso   1.000  C
  C390     1.0000 0.51450  0.90230  0.53250  Biso   1.000  C
  C391     1.0000 0.48550  0.40230  0.96750  Biso   1.000  C
  C392     1.0000 0.01450  0.59770  0.46750  Biso   1.000  C
  H161     1.0000 0.21410  0.03090  0.64200  Biso   1.000  H
  H162     1.0000 0.28590  0.96910  0.14200  Biso   1.000  H
  H163     1.0000 0.71410  0.46910  0.35800  Biso   1.000  H
  H164     1.0000 0.78590  0.53090  0.85800  Biso   1.000  H
  H165     1.0000 0.78590  0.96910  0.35800  Biso   1.000  H
  H166     1.0000 0.71410  0.03090  0.85800  Biso   1.000  H
  H167     1.0000 0.28590  0.53090  0.64200  Biso   1.000  H
  H168     1.0000 0.21410  0.46910  0.14200  Biso   1.000  H
  C393     1.0000 0.17810  0.95450  0.59990  Biso   1.000  C
  C394     1.0000 0.32190  0.04550  0.09990  Biso   1.000  C
  C395     1.0000 0.67810  0.54550  0.40010  Biso   1.000  C
  C396     1.0000 0.82190  0.45450  0.90010  Biso   1.000  C
  C397     1.0000 0.82190  0.04550  0.40010  Biso   1.000  C
  C398     1.0000 0.67810  0.95450  0.90010  Biso   1.000  C
  C399     1.0000 0.32190  0.45450  0.59990  Biso   1.000  C
  C400     1.0000 0.17810  0.54550  0.09990  Biso   1.000  C
  N41      1.0000 0.13510  0.80920  0.61920  Biso   1.000  N
  N42      1.0000 0.36490  0.19080  0.11920  Biso   1.000  N
  N43      1.0000 0.63510  0.69080  0.38080  Biso   1.000  N
  N44      1.0000 0.86490  0.30920  0.88080  Biso   1.000  N
  N45      1.0000 0.86490  0.19080  0.38080  Biso   1.000  N
  N46      1.0000 0.63510  0.80920  0.88080  Biso   1.000  N
  N47      1.0000 0.36490  0.30920  0.61920  Biso   1.000  N
  N48      1.0000 0.13510  0.69080  0.11920  Biso   1.000  N
  H169     1.0000 0.13890  0.78850  0.67240  Biso   1.000  H
  H170     1.0000 0.36110  0.21150  0.17240  Biso   1.000  H
  H171     1.0000 0.63890  0.71150  0.32760  Biso   1.000  H
  H172     1.0000 0.86110  0.28850  0.82760  Biso   1.000  H
  H173     1.0000 0.86110  0.21150  0.32760  Biso   1.000  H
  H174     1.0000 0.63890  0.78850  0.82760  Biso   1.000  H
  H175     1.0000 0.36110  0.28850  0.67240  Biso   1.000  H
  H176     1.0000 0.13890  0.71150  0.17240  Biso   1.000  H
  Cu17     1.0000 0.09442  0.81519  0.10786  Biso   1.000  Cu
  Cu18     1.0000 0.40558  0.18481  0.60786  Biso   1.000  Cu
  Cu19     1.0000 0.59442  0.68481  0.89214  Biso   1.000  Cu
  Cu20     1.0000 0.90558  0.31519  0.39214  Biso   1.000  Cu
  Cu21     1.0000 0.90558  0.18481  0.89214  Biso   1.000  Cu
  Cu22     1.0000 0.59442  0.81519  0.39214  Biso   1.000  Cu
  Cu23     1.0000 0.40558  0.31519  0.10786  Biso   1.000  Cu
  Cu24     1.0000 0.09442  0.68481  0.60786  Biso   1.000  Cu
  C401     1.0000 0.99430  0.81770  0.06410  Biso   1.000  C
  C402     1.0000 0.50570  0.18230  0.56410  Biso   1.000  C
  C403     1.0000 0.49430  0.68230  0.93590  Biso   1.000  C
  C404     1.0000 0.00570  0.31770  0.43590  Biso   1.000  C
  C405     1.0000 0.00570  0.18230  0.93590  Biso   1.000  C
  C406     1.0000 0.49430  0.81770  0.43590  Biso   1.000  C
  C407     1.0000 0.50570  0.31770  0.06410  Biso   1.000  C
  C408     1.0000 0.99430  0.68230  0.56410  Biso   1.000  C
  H177     1.0000 0.92790  0.82290  0.02960  Biso   1.000  H
  H178     1.0000 0.57210  0.17710  0.52960  Biso   1.000  H
  H179     1.0000 0.42790  0.67710  0.97040  Biso   1.000  H
  H180     1.0000 0.07210  0.32290  0.47040  Biso   1.000  H
  H181     1.0000 0.07210  0.17710  0.97040  Biso   1.000  H
  H182     1.0000 0.42790  0.82290  0.47040  Biso   1.000  H
  H183     1.0000 0.57210  0.32290  0.02960  Biso   1.000  H
  H184     1.0000 0.92790  0.67710  0.52960  Biso   1.000  H
  C409     1.0000 0.80650  0.65420  0.42640  Biso   1.000  C
  C410     1.0000 0.69350  0.34580  0.92640  Biso   1.000  C
  C411     1.0000 0.30650  0.84580  0.57360  Biso   1.000  C
  C412     1.0000 0.19350  0.15420  0.07360  Biso   1.000  C
  C413     1.0000 0.19350  0.34580  0.57360  Biso   1.000  C
  C414     1.0000 0.30650  0.65420  0.07360  Biso   1.000  C
  C415     1.0000 0.69350  0.15420  0.42640  Biso   1.000  C
  C416     1.0000 0.80650  0.84580  0.92640  Biso   1.000  C
  Cu25     1.0000 0.88155  0.50228  0.39968  Biso   1.000  Cu
  Cu26     1.0000 0.61845  0.49772  0.89968  Biso   1.000  Cu
  Cu27     1.0000 0.38155  0.99772  0.60032  Biso   1.000  Cu
  Cu28     1.0000 0.11845  0.00228  0.10032  Biso   1.000  Cu
  Cu29     1.0000 0.11845  0.49772  0.60032  Biso   1.000  Cu
  Cu30     1.0000 0.38155  0.50228  0.10032  Biso   1.000  Cu
  Cu31     1.0000 0.61845  0.00228  0.39968  Biso   1.000  Cu
  Cu32     1.0000 0.88155  0.99772  0.89968  Biso   1.000  Cu
  H185     1.0000 0.75860  0.76090  0.44620  Biso   1.000  H
  H186     1.0000 0.74140  0.23910  0.94620  Biso   1.000  H
  H187     1.0000 0.25860  0.73910  0.55380  Biso   1.000  H
  H188     1.0000 0.24140  0.26090  0.05380  Biso   1.000  H
  H189     1.0000 0.24140  0.23910  0.55380  Biso   1.000  H
  H190     1.0000 0.25860  0.76090  0.05380  Biso   1.000  H
  H191     1.0000 0.74140  0.26090  0.44620  Biso   1.000  H
  H192     1.0000 0.75860  0.73910  0.94620  Biso   1.000  H
  C417     1.0000 0.96520  0.92580  0.95260  Biso   1.000  C
  C418     1.0000 0.53480  0.07420  0.45260  Biso   1.000  C
  C419     1.0000 0.46520  0.57420  0.04740  Biso   1.000  C
  C420     1.0000 0.03480  0.42580  0.54740  Biso   1.000  C
  C421     1.0000 0.03480  0.07420  0.04740  Biso   1.000  C
  C422     1.0000 0.46520  0.92580  0.54740  Biso   1.000  C
  C423     1.0000 0.53480  0.42580  0.95260  Biso   1.000  C
  C424     1.0000 0.96520  0.57420  0.45260  Biso   1.000  C
  H193     1.0000 0.01780  0.88960  0.99240  Biso   1.000  H
  H194     1.0000 0.48220  0.11040  0.49240  Biso   1.000  H
  H195     1.0000 0.51780  0.61040  0.00760  Biso   1.000  H
  H196     1.0000 0.98220  0.38960  0.50760  Biso   1.000  H
  H197     1.0000 0.98220  0.11040  0.00760  Biso   1.000  H
  H198     1.0000 0.51780  0.88960  0.50760  Biso   1.000  H
  H199     1.0000 0.48220  0.38960  0.99240  Biso   1.000  H
  H200     1.0000 0.01780  0.61040  0.49240  Biso   1.000  H
  H201     1.0000 0.18610  0.99670  0.58090  Biso   1.000  H
  H202     1.0000 0.31390  0.00330  0.08090  Biso   1.000  H
  H203     1.0000 0.68610  0.50330  0.41910  Biso   1.000  H
  H204     1.0000 0.81390  0.49670  0.91910  Biso   1.000  H
  H205     1.0000 0.81390  0.00330  0.41910  Biso   1.000  H
  H206     1.0000 0.68610  0.99670  0.91910  Biso   1.000  H
  H207     1.0000 0.31390  0.49670  0.58090  Biso   1.000  H
  H208     1.0000 0.18610  0.50330  0.08090  Biso   1.000  H
  C425     1.0000 0.15090  0.87060  0.59280  Biso   1.000  C
  C426     1.0000 0.34910  0.12940  0.09280  Biso   1.000  C
  C427     1.0000 0.65090  0.62940  0.40720  Biso   1.000  C
  C428     1.0000 0.84910  0.37060  0.90720  Biso   1.000  C
  C429     1.0000 0.84910  0.12940  0.40720  Biso   1.000  C
  C430     1.0000 0.65090  0.87060  0.90720  Biso   1.000  C
  C431     1.0000 0.34910  0.37060  0.59280  Biso   1.000  C
  C432     1.0000 0.15090  0.62940  0.09280  Biso   1.000  C
  I17      1.0000 0.14518  0.88423  0.04673  Biso   1.000  I
  I18      1.0000 0.35482  0.11577  0.54673  Biso   1.000  I
  I19      1.0000 0.64518  0.61577  0.95327  Biso   1.000  I
  I20      1.0000 0.85482  0.38423  0.45327  Biso   1.000  I
  I21      1.0000 0.85482  0.11577  0.95327  Biso   1.000  I
  I22      1.0000 0.64518  0.88423  0.45327  Biso   1.000  I
  I23      1.0000 0.35482  0.38423  0.04673  Biso   1.000  I
  I24      1.0000 0.14518  0.61577  0.54673  Biso   1.000  I
  I25      1.0000 0.11087  0.92822  0.16677  Biso   1.000  I
  I26      1.0000 0.38913  0.07178  0.66677  Biso   1.000  I
  I27      1.0000 0.61087  0.57178  0.83323  Biso   1.000  I
  I28      1.0000 0.88913  0.42822  0.33323  Biso   1.000  I
  I29      1.0000 0.88913  0.07178  0.83323  Biso   1.000  I
  I30      1.0000 0.61087  0.92822  0.33323  Biso   1.000  I
  I31      1.0000 0.38913  0.42822  0.16677  Biso   1.000  I
  I32      1.0000 0.11087  0.57178  0.66677  Biso   1.000  I
  H209     1.0000 0.02030  0.81470  0.04560  Biso   1.000  H
  H210     1.0000 0.47970  0.18530  0.54560  Biso   1.000  H
  H211     1.0000 0.52030  0.68530  0.95440  Biso   1.000  H
  H212     1.0000 0.97970  0.31470  0.45440  Biso   1.000  H
  H213     1.0000 0.97970  0.18530  0.95440  Biso   1.000  H
  H214     1.0000 0.52030  0.81470  0.45440  Biso   1.000  H
  H215     1.0000 0.47970  0.31470  0.04560  Biso   1.000  H
  H216     1.0000 0.02030  0.68530  0.54560  Biso   1.000  H
  H217     1.0000 0.81350  0.62550  0.44900  Biso   1.000  H
  H218     1.0000 0.68650  0.37450  0.94900  Biso   1.000  H
  H219     1.0000 0.31350  0.87450  0.55100  Biso   1.000  H
  H220     1.0000 0.18650  0.12550  0.05100  Biso   1.000  H
  H221     1.0000 0.18650  0.37450  0.55100  Biso   1.000  H
  H222     1.0000 0.31350  0.62550  0.05100  Biso   1.000  H
  H223     1.0000 0.68650  0.12550  0.44900  Biso   1.000  H
  H224     1.0000 0.81350  0.87450  0.94900  Biso   1.000  H
  H225     1.0000 0.93540  0.92740  0.96830  Biso   1.000  H
  H226     1.0000 0.56460  0.07260  0.46830  Biso   1.000  H
  H227     1.0000 0.43540  0.57260  0.03170  Biso   1.000  H
  H228     1.0000 0.06460  0.42740  0.53170  Biso   1.000  H
  H229     1.0000 0.06460  0.07260  0.03170  Biso   1.000  H
  H230     1.0000 0.43540  0.92740  0.53170  Biso   1.000  H
  H231     1.0000 0.56460  0.42740  0.96830  Biso   1.000  H
  H232     1.0000 0.93540  0.57260  0.46830  Biso   1.000  H
  H233     1.0000 0.14290  0.85540  0.56850  Biso   1.000  H
  H234     1.0000 0.35710  0.14460  0.06850  Biso   1.000  H
  H235     1.0000 0.64290  0.64460  0.43150  Biso   1.000  H
  H236     1.0000 0.85710  0.35540  0.93150  Biso   1.000  H
  H237     1.0000 0.85710  0.14460  0.43150  Biso   1.000  H
  H238     1.0000 0.64290  0.85540  0.93150  Biso   1.000  H
  H239     1.0000 0.35710  0.35540  0.56850  Biso   1.000  H
  H240     1.0000 0.14290  0.64460  0.06850  Biso   1.000  H
