data_image0
_cell_length_a       24.539
_cell_length_b       13.947
_cell_length_c       36.45
_cell_angle_alpha    90
_cell_angle_beta     90
_cell_angle_gamma    90

_symmetry_space_group_name_H-M    "P 1"
_symmetry_int_tables_number       1

loop_
  _symmetry_equiv_pos_as_xyz
  'x, y, z'

loop_
  _atom_site_label
  _atom_site_occupancy
  _atom_site_fract_x
  _atom_site_fract_y
  _atom_site_fract_z
  _atom_site_thermal_displace_type
  _atom_site_B_iso_or_equiv
  _atom_site_type_symbol
  I1       1.0000 0.56470  0.87483  0.00939  Biso   1.000  I
  I2       1.0000 0.93530  0.12517  0.50939  Biso   1.000  I
  I3       1.0000 0.06470  0.62517  0.99061  Biso   1.000  I
  I4       1.0000 0.43530  0.37483  0.49061  Biso   1.000  I
  I5       1.0000 0.43530  0.12517  0.99061  Biso   1.000  I
  I6       1.0000 0.06470  0.87483  0.49061  Biso   1.000  I
  I7       1.0000 0.93530  0.37483  0.00939  Biso   1.000  I
  I8       1.0000 0.56470  0.62517  0.50939  Biso   1.000  I
  I9       1.0000 0.38485  0.84897  0.02093  Biso   1.000  I
  I10      1.0000 0.11515  0.15103  0.52093  Biso   1.000  I
  I11      1.0000 0.88485  0.65103  0.97907  Biso   1.000  I
  I12      1.0000 0.61515  0.34897  0.47907  Biso   1.000  I
  I13      1.0000 0.61515  0.15103  0.97907  Biso   1.000  I
  I14      1.0000 0.88485  0.84897  0.47907  Biso   1.000  I
  I15      1.0000 0.11515  0.34897  0.02093  Biso   1.000  I
  I16      1.0000 0.38485  0.65103  0.52093  Biso   1.000  I
  I17      1.0000 0.14521  0.88426  0.04676  Biso   1.000  I
  I18      1.0000 0.35479  0.11574  0.54676  Biso   1.000  I
  I19      1.0000 0.64521  0.61574  0.95324  Biso   1.000  I
  I20      1.0000 0.85479  0.38426  0.45324  Biso   1.000  I
  I21      1.0000 0.85479  0.11574  0.95324  Biso   1.000  I
  I22      1.0000 0.64521  0.88426  0.45324  Biso   1.000  I
  I23      1.0000 0.35479  0.38426  0.04676  Biso   1.000  I
  I24      1.0000 0.14521  0.61574  0.54676  Biso   1.000  I
  I25      1.0000 0.11085  0.92833  0.16675  Biso   1.000  I
  I26      1.0000 0.38915  0.07167  0.66675  Biso   1.000  I
  I27      1.0000 0.61085  0.57167  0.83325  Biso   1.000  I
  I28      1.0000 0.88915  0.42833  0.33325  Biso   1.000  I
  I29      1.0000 0.88915  0.07167  0.83325  Biso   1.000  I
  I30      1.0000 0.61085  0.92833  0.33325  Biso   1.000  I
  I31      1.0000 0.38915  0.42833  0.16675  Biso   1.000  I
  I32      1.0000 0.11085  0.57167  0.66675  Biso   1.000  I
  Cu1      1.0000 0.48000  0.84203  0.04780  Biso   1.000  Cu
  Cu2      1.0000 0.02000  0.15797  0.54780  Biso   1.000  Cu
  Cu3      1.0000 0.98000  0.65797  0.95220  Biso   1.000  Cu
  Cu4      1.0000 0.52000  0.34203  0.45220  Biso   1.000  Cu
  Cu5      1.0000 0.52000  0.15797  0.95220  Biso   1.000  Cu
  Cu6      1.0000 0.98000  0.84203  0.45220  Biso   1.000  Cu
  Cu7      1.0000 0.02000  0.34203  0.04780  Biso   1.000  Cu
  Cu8      1.0000 0.48000  0.65797  0.54780  Biso   1.000  Cu
  Cu9      1.0000 0.46579  0.93374  0.98604  Biso   1.000  Cu
  Cu10     1.0000 0.03421  0.06626  0.48604  Biso   1.000  Cu
  Cu11     1.0000 0.96579  0.56626  0.01396  Biso   1.000  Cu
  Cu12     1.0000 0.53421  0.43374  0.51396  Biso   1.000  Cu
  Cu13     1.0000 0.53421  0.06626  0.01396  Biso   1.000  Cu
  Cu14     1.0000 0.96579  0.93374  0.51396  Biso   1.000  Cu
  Cu15     1.0000 0.03421  0.43374  0.98604  Biso   1.000  Cu
  Cu16     1.0000 0.46579  0.56626  0.48604  Biso   1.000  Cu
  Cu17     1.0000 0.09439  0.81513  0.10784  Biso   1.000  Cu
  Cu18     1.0000 0.40561  0.18487  0.60784  Biso   1.000  Cu
  Cu19     1.0000 0.59439  0.68487  0.89216  Biso   1.000  Cu
  Cu20     1.0000 0.90561  0.31513  0.39216  Biso   1.000  Cu
  Cu21     1.0000 0.90561  0.18487  0.89216  Biso   1.000  Cu
  Cu22     1.0000 0.59439  0.81513  0.39216  Biso   1.000  Cu
  Cu23     1.0000 0.40561  0.31513  0.10784  Biso   1.000  Cu
  Cu24     1.0000 0.09439  0.68487  0.60784  Biso   1.000  Cu
  Cu25     1.0000 0.88158  0.50216  0.39971  Biso   1.000  Cu
  Cu26     1.0000 0.61842  0.49784  0.89971  Biso   1.000  Cu
  Cu27     1.0000 0.38158  0.99784  0.60029  Biso   1.000  Cu
  Cu28     1.0000 0.11842  0.00216  0.10029  Biso   1.000  Cu
  Cu29     1.0000 0.11842  0.49784  0.60029  Biso   1.000  Cu
  Cu30     1.0000 0.38158  0.50216  0.10029  Biso   1.000  Cu
  Cu31     1.0000 0.61842  0.00216  0.39971  Biso   1.000  Cu
  Cu32     1.0000 0.88158  0.99784  0.89971  Biso   1.000  Cu
  N1       1.0000 0.46980  0.92720  0.93010  Biso   1.000  N
  N2       1.0000 0.03020  0.07280  0.43010  Biso   1.000  N
  N3       1.0000 0.96980  0.57280  0.06990  Biso   1.000  N
  N4       1.0000 0.53020  0.42720  0.56990  Biso   1.000  N
  N5       1.0000 0.53020  0.07280  0.06990  Biso   1.000  N
  N6       1.0000 0.96980  0.92720  0.56990  Biso   1.000  N
  N7       1.0000 0.03020  0.42720  0.93010  Biso   1.000  N
  N8       1.0000 0.46980  0.57280  0.43010  Biso   1.000  N
  N9       1.0000 0.95670  0.94670  0.91800  Biso   1.000  N
  N10      1.0000 0.54330  0.05330  0.41800  Biso   1.000  N
  N11      1.0000 0.45670  0.55330  0.08200  Biso   1.000  N
  N12      1.0000 0.04330  0.44670  0.58200  Biso   1.000  N
  N13      1.0000 0.04330  0.05330  0.08200  Biso   1.000  N
  N14      1.0000 0.45670  0.94670  0.58200  Biso   1.000  N
  N15      1.0000 0.54330  0.44670  0.91800  Biso   1.000  N
  N16      1.0000 0.95670  0.55330  0.41800  Biso   1.000  N
  N17      1.0000 0.13510  0.81030  0.61900  Biso   1.000  N
  N18      1.0000 0.36490  0.18970  0.11900  Biso   1.000  N
  N19      1.0000 0.63510  0.68970  0.38100  Biso   1.000  N
  N20      1.0000 0.86490  0.31030  0.88100  Biso   1.000  N
  N21      1.0000 0.86490  0.18970  0.38100  Biso   1.000  N
  N22      1.0000 0.63510  0.81030  0.88100  Biso   1.000  N
  N23      1.0000 0.36490  0.31030  0.61900  Biso   1.000  N
  N24      1.0000 0.13510  0.68970  0.11900  Biso   1.000  N
  N25      1.0000 0.82900  0.61670  0.39570  Biso   1.000  N
  N26      1.0000 0.67100  0.38330  0.89570  Biso   1.000  N
  N27      1.0000 0.32900  0.88330  0.60430  Biso   1.000  N
  N28      1.0000 0.17100  0.11670  0.10430  Biso   1.000  N
  N29      1.0000 0.17100  0.38330  0.60430  Biso   1.000  N
  N30      1.0000 0.32900  0.61670  0.10430  Biso   1.000  N
  N31      1.0000 0.67100  0.11670  0.39570  Biso   1.000  N
  N32      1.0000 0.82900  0.88330  0.89570  Biso   1.000  N
  N33      1.0000 0.48940  0.81370  0.10150  Biso   1.000  N
  N34      1.0000 0.01060  0.18630  0.60150  Biso   1.000  N
  N35      1.0000 0.98940  0.68630  0.89850  Biso   1.000  N
  N36      1.0000 0.51060  0.31370  0.39850  Biso   1.000  N
  N37      1.0000 0.51060  0.18630  0.89850  Biso   1.000  N
  N38      1.0000 0.98940  0.81370  0.39850  Biso   1.000  N
  N39      1.0000 0.01060  0.31370  0.10150  Biso   1.000  N
  N40      1.0000 0.48940  0.68630  0.60150  Biso   1.000  N
  N41      1.0000 0.01100  0.81560  0.09910  Biso   1.000  N
  N42      1.0000 0.48900  0.18440  0.59910  Biso   1.000  N
  N43      1.0000 0.51100  0.68440  0.90090  Biso   1.000  N
  N44      1.0000 0.98900  0.31560  0.40090  Biso   1.000  N
  N45      1.0000 0.98900  0.18440  0.90090  Biso   1.000  N
  N46      1.0000 0.51100  0.81560  0.40090  Biso   1.000  N
  N47      1.0000 0.48900  0.31560  0.09910  Biso   1.000  N
  N48      1.0000 0.01100  0.68440  0.59910  Biso   1.000  N
  C1       1.0000 0.51710  0.94220  0.91260  Biso   1.000  C
  C2       1.0000 0.98290  0.05780  0.41260  Biso   1.000  C
  C3       1.0000 0.01710  0.55780  0.08740  Biso   1.000  C
  C4       1.0000 0.48290  0.44220  0.58740  Biso   1.000  C
  C5       1.0000 0.48290  0.05780  0.08740  Biso   1.000  C
  C6       1.0000 0.01710  0.94220  0.58740  Biso   1.000  C
  C7       1.0000 0.98290  0.44220  0.91260  Biso   1.000  C
  C8       1.0000 0.51710  0.55780  0.41260  Biso   1.000  C
  H1       1.0000 0.54890  0.94650  0.92640  Biso   1.000  H
  H2       1.0000 0.95110  0.05350  0.42640  Biso   1.000  H
  H3       1.0000 0.04890  0.55350  0.07360  Biso   1.000  H
  H4       1.0000 0.45110  0.44650  0.57360  Biso   1.000  H
  H5       1.0000 0.45110  0.05350  0.07360  Biso   1.000  H
  H6       1.0000 0.04890  0.94650  0.57360  Biso   1.000  H
  H7       1.0000 0.95110  0.44650  0.92640  Biso   1.000  H
  H8       1.0000 0.54890  0.55350  0.42640  Biso   1.000  H
  C9       1.0000 0.52050  0.95150  0.87500  Biso   1.000  C
  C10      1.0000 0.97950  0.04850  0.37500  Biso   1.000  C
  C11      1.0000 0.02050  0.54850  0.12500  Biso   1.000  C
  C12      1.0000 0.47950  0.45150  0.62500  Biso   1.000  C
  C13      1.0000 0.47950  0.04850  0.12500  Biso   1.000  C
  C14      1.0000 0.02050  0.95150  0.62500  Biso   1.000  C
  C15      1.0000 0.97950  0.45150  0.87500  Biso   1.000  C
  C16      1.0000 0.52050  0.54850  0.37500  Biso   1.000  C
  H9       1.0000 0.55410  0.96160  0.86380  Biso   1.000  H
  H10      1.0000 0.94590  0.03840  0.36380  Biso   1.000  H
  H11      1.0000 0.05410  0.53840  0.13620  Biso   1.000  H
  H12      1.0000 0.44590  0.46160  0.63620  Biso   1.000  H
  H13      1.0000 0.44590  0.03840  0.13620  Biso   1.000  H
  H14      1.0000 0.05410  0.96160  0.63620  Biso   1.000  H
  H15      1.0000 0.94590  0.46160  0.86380  Biso   1.000  H
  H16      1.0000 0.55410  0.53840  0.36380  Biso   1.000  H
  C17      1.0000 0.47350  0.94570  0.85390  Biso   1.000  C
  C18      1.0000 0.02650  0.05430  0.35390  Biso   1.000  C
  C19      1.0000 0.97350  0.55430  0.14610  Biso   1.000  C
  C20      1.0000 0.52650  0.44570  0.64610  Biso   1.000  C
  C21      1.0000 0.52650  0.05430  0.14610  Biso   1.000  C
  C22      1.0000 0.97350  0.94570  0.64610  Biso   1.000  C
  C23      1.0000 0.02650  0.44570  0.85390  Biso   1.000  C
  C24      1.0000 0.47350  0.55430  0.35390  Biso   1.000  C
  H17      1.0000 0.47500  0.95090  0.82850  Biso   1.000  H
  H18      1.0000 0.02500  0.04910  0.32850  Biso   1.000  H
  H19      1.0000 0.97500  0.54910  0.17150  Biso   1.000  H
  H20      1.0000 0.52500  0.45090  0.67150  Biso   1.000  H
  H21      1.0000 0.52500  0.04910  0.17150  Biso   1.000  H
  H22      1.0000 0.97500  0.95090  0.67150  Biso   1.000  H
  H23      1.0000 0.02500  0.45090  0.82850  Biso   1.000  H
  H24      1.0000 0.47500  0.54910  0.32850  Biso   1.000  H
  C25      1.0000 0.42430  0.93180  0.87190  Biso   1.000  C
  C26      1.0000 0.07570  0.06820  0.37190  Biso   1.000  C
  C27      1.0000 0.92430  0.56820  0.12810  Biso   1.000  C
  C28      1.0000 0.57570  0.43180  0.62810  Biso   1.000  C
  C29      1.0000 0.57570  0.06820  0.12810  Biso   1.000  C
  C30      1.0000 0.92430  0.93180  0.62810  Biso   1.000  C
  C31      1.0000 0.07570  0.43180  0.87190  Biso   1.000  C
  C32      1.0000 0.42430  0.56820  0.37190  Biso   1.000  C
  C33      1.0000 0.42470  0.92020  0.91000  Biso   1.000  C
  C34      1.0000 0.07530  0.07980  0.41000  Biso   1.000  C
  C35      1.0000 0.92470  0.57980  0.09000  Biso   1.000  C
  C36      1.0000 0.57530  0.42020  0.59000  Biso   1.000  C
  C37      1.0000 0.57530  0.07980  0.09000  Biso   1.000  C
  C38      1.0000 0.92470  0.92020  0.59000  Biso   1.000  C
  C39      1.0000 0.07530  0.42020  0.91000  Biso   1.000  C
  C40      1.0000 0.42470  0.57980  0.41000  Biso   1.000  C
  H25      1.0000 0.39200  0.90700  0.92180  Biso   1.000  H
  H26      1.0000 0.10800  0.09300  0.42180  Biso   1.000  H
  H27      1.0000 0.89200  0.59300  0.07820  Biso   1.000  H
  H28      1.0000 0.60800  0.40700  0.57820  Biso   1.000  H
  H29      1.0000 0.60800  0.09300  0.07820  Biso   1.000  H
  H30      1.0000 0.89200  0.90700  0.57820  Biso   1.000  H
  H31      1.0000 0.10800  0.40700  0.92180  Biso   1.000  H
  H32      1.0000 0.39200  0.59300  0.42180  Biso   1.000  H
  C41      1.0000 0.37160  0.92860  0.85370  Biso   1.000  C
  C42      1.0000 0.12840  0.07140  0.35370  Biso   1.000  C
  C43      1.0000 0.87160  0.57140  0.14630  Biso   1.000  C
  C44      1.0000 0.62840  0.42860  0.64630  Biso   1.000  C
  C45      1.0000 0.62840  0.07140  0.14630  Biso   1.000  C
  C46      1.0000 0.87160  0.92860  0.64630  Biso   1.000  C
  C47      1.0000 0.12840  0.42860  0.85370  Biso   1.000  C
  C48      1.0000 0.37160  0.57140  0.35370  Biso   1.000  C
  C49      1.0000 0.32930  0.92560  0.83890  Biso   1.000  C
  C50      1.0000 0.17070  0.07440  0.33890  Biso   1.000  C
  C51      1.0000 0.82930  0.57440  0.16110  Biso   1.000  C
  C52      1.0000 0.67070  0.42560  0.66110  Biso   1.000  C
  C53      1.0000 0.67070  0.07440  0.16110  Biso   1.000  C
  C54      1.0000 0.82930  0.92560  0.66110  Biso   1.000  C
  C55      1.0000 0.17070  0.42560  0.83890  Biso   1.000  C
  C56      1.0000 0.32930  0.57440  0.33890  Biso   1.000  C
  C57      1.0000 0.27570  0.92570  0.82350  Biso   1.000  C
  C58      1.0000 0.22430  0.07430  0.32350  Biso   1.000  C
  C59      1.0000 0.77570  0.57430  0.17650  Biso   1.000  C
  C60      1.0000 0.72430  0.42570  0.67650  Biso   1.000  C
  C61      1.0000 0.72430  0.07430  0.17650  Biso   1.000  C
  C62      1.0000 0.77570  0.92570  0.67650  Biso   1.000  C
  C63      1.0000 0.22430  0.42570  0.82350  Biso   1.000  C
  C64      1.0000 0.27570  0.57430  0.32350  Biso   1.000  C
  C65      1.0000 0.23100  0.92150  0.84790  Biso   1.000  C
  C66      1.0000 0.26900  0.07850  0.34790  Biso   1.000  C
  C67      1.0000 0.73100  0.57850  0.15210  Biso   1.000  C
  C68      1.0000 0.76900  0.42150  0.65210  Biso   1.000  C
  C69      1.0000 0.76900  0.07850  0.15210  Biso   1.000  C
  C70      1.0000 0.73100  0.92150  0.65210  Biso   1.000  C
  C71      1.0000 0.26900  0.42150  0.84790  Biso   1.000  C
  C72      1.0000 0.23100  0.57850  0.34790  Biso   1.000  C
  H33      1.0000 0.23750  0.91990  0.87300  Biso   1.000  H
  H34      1.0000 0.26250  0.08010  0.37300  Biso   1.000  H
  H35      1.0000 0.73750  0.58010  0.12700  Biso   1.000  H
  H36      1.0000 0.76250  0.41990  0.62700  Biso   1.000  H
  H37      1.0000 0.76250  0.08010  0.12700  Biso   1.000  H
  H38      1.0000 0.73750  0.91990  0.62700  Biso   1.000  H
  H39      1.0000 0.26250  0.41990  0.87300  Biso   1.000  H
  H40      1.0000 0.23750  0.58010  0.37300  Biso   1.000  H
  C73      1.0000 0.17850  0.91960  0.83540  Biso   1.000  C
  C74      1.0000 0.32150  0.08040  0.33540  Biso   1.000  C
  C75      1.0000 0.67850  0.58040  0.16460  Biso   1.000  C
  C76      1.0000 0.82150  0.41960  0.66460  Biso   1.000  C
  C77      1.0000 0.82150  0.08040  0.16460  Biso   1.000  C
  C78      1.0000 0.67850  0.91960  0.66460  Biso   1.000  C
  C79      1.0000 0.32150  0.41960  0.83540  Biso   1.000  C
  C80      1.0000 0.17850  0.58040  0.33540  Biso   1.000  C
  C81      1.0000 0.16860  0.92260  0.79740  Biso   1.000  C
  C82      1.0000 0.33140  0.07740  0.29740  Biso   1.000  C
  C83      1.0000 0.66860  0.57740  0.20260  Biso   1.000  C
  C84      1.0000 0.83140  0.42260  0.70260  Biso   1.000  C
  C85      1.0000 0.83140  0.07740  0.20260  Biso   1.000  C
  C86      1.0000 0.66860  0.92260  0.70260  Biso   1.000  C
  C87      1.0000 0.33140  0.42260  0.79740  Biso   1.000  C
  C88      1.0000 0.16860  0.57740  0.29740  Biso   1.000  C
  H41      1.0000 0.13300  0.92190  0.78860  Biso   1.000  H
  H42      1.0000 0.36700  0.07810  0.28860  Biso   1.000  H
  H43      1.0000 0.63300  0.57810  0.21140  Biso   1.000  H
  H44      1.0000 0.86700  0.42190  0.71140  Biso   1.000  H
  H45      1.0000 0.86700  0.07810  0.21140  Biso   1.000  H
  H46      1.0000 0.63300  0.92190  0.71140  Biso   1.000  H
  H47      1.0000 0.36700  0.42190  0.78860  Biso   1.000  H
  H48      1.0000 0.13300  0.57810  0.28860  Biso   1.000  H
  C89      1.0000 0.21270  0.92650  0.77240  Biso   1.000  C
  C90      1.0000 0.28730  0.07350  0.27240  Biso   1.000  C
  C91      1.0000 0.71270  0.57350  0.22760  Biso   1.000  C
  C92      1.0000 0.78730  0.42650  0.72760  Biso   1.000  C
  C93      1.0000 0.78730  0.07350  0.22760  Biso   1.000  C
  C94      1.0000 0.71270  0.92650  0.72760  Biso   1.000  C
  C95      1.0000 0.28730  0.42650  0.77240  Biso   1.000  C
  C96      1.0000 0.21270  0.57350  0.27240  Biso   1.000  C
  C97      1.0000 0.26520  0.92950  0.78620  Biso   1.000  C
  C98      1.0000 0.23480  0.07050  0.28620  Biso   1.000  C
  C99      1.0000 0.76520  0.57050  0.21380  Biso   1.000  C
  C100     1.0000 0.73480  0.42950  0.71380  Biso   1.000  C
  C101     1.0000 0.73480  0.07050  0.21380  Biso   1.000  C
  C102     1.0000 0.76520  0.92950  0.71380  Biso   1.000  C
  C103     1.0000 0.23480  0.42950  0.78620  Biso   1.000  C
  C104     1.0000 0.26520  0.57050  0.28620  Biso   1.000  C
  H49      1.0000 0.29430  0.93410  0.77000  Biso   1.000  H
  H50      1.0000 0.20570  0.06590  0.27000  Biso   1.000  H
  H51      1.0000 0.79430  0.56590  0.23000  Biso   1.000  H
  H52      1.0000 0.70570  0.43410  0.73000  Biso   1.000  H
  H53      1.0000 0.70570  0.06590  0.23000  Biso   1.000  H
  H54      1.0000 0.79430  0.93410  0.73000  Biso   1.000  H
  H55      1.0000 0.20570  0.43410  0.77000  Biso   1.000  H
  H56      1.0000 0.29430  0.56590  0.27000  Biso   1.000  H
  C105     1.0000 0.20090  0.92660  0.73420  Biso   1.000  C
  C106     1.0000 0.29910  0.07340  0.23420  Biso   1.000  C
  C107     1.0000 0.70090  0.57340  0.26580  Biso   1.000  C
  C108     1.0000 0.79910  0.42660  0.76580  Biso   1.000  C
  C109     1.0000 0.79910  0.07340  0.26580  Biso   1.000  C
  C110     1.0000 0.70090  0.92660  0.76580  Biso   1.000  C
  C111     1.0000 0.29910  0.42660  0.73420  Biso   1.000  C
  C112     1.0000 0.20090  0.57340  0.23420  Biso   1.000  C
  C113     1.0000 0.19090  0.92570  0.70200  Biso   1.000  C
  C114     1.0000 0.30910  0.07430  0.20200  Biso   1.000  C
  C115     1.0000 0.69090  0.57430  0.29800  Biso   1.000  C
  C116     1.0000 0.80910  0.42570  0.79800  Biso   1.000  C
  C117     1.0000 0.80910  0.07430  0.29800  Biso   1.000  C
  C118     1.0000 0.69090  0.92570  0.79800  Biso   1.000  C
  C119     1.0000 0.30910  0.42570  0.70200  Biso   1.000  C
  C120     1.0000 0.19090  0.57430  0.20200  Biso   1.000  C
  C121     1.0000 0.17730  0.91170  0.66310  Biso   1.000  C
  C122     1.0000 0.32270  0.08830  0.16310  Biso   1.000  C
  C123     1.0000 0.67730  0.58830  0.33690  Biso   1.000  C
  C124     1.0000 0.82270  0.41170  0.83690  Biso   1.000  C
  C125     1.0000 0.82270  0.08830  0.33690  Biso   1.000  C
  C126     1.0000 0.67730  0.91170  0.83690  Biso   1.000  C
  C127     1.0000 0.32270  0.41170  0.66310  Biso   1.000  C
  C128     1.0000 0.17730  0.58830  0.16310  Biso   1.000  C
  C129     1.0000 0.19370  0.97550  0.63630  Biso   1.000  C
  C130     1.0000 0.30630  0.02450  0.13630  Biso   1.000  C
  C131     1.0000 0.69370  0.52450  0.36370  Biso   1.000  C
  C132     1.0000 0.80630  0.47550  0.86370  Biso   1.000  C
  C133     1.0000 0.80630  0.02450  0.36370  Biso   1.000  C
  C134     1.0000 0.69370  0.97550  0.86370  Biso   1.000  C
  C135     1.0000 0.30630  0.47550  0.63630  Biso   1.000  C
  C136     1.0000 0.19370  0.52450  0.13630  Biso   1.000  C
  H57      1.0000 0.21430  0.02960  0.64190  Biso   1.000  H
  H58      1.0000 0.28570  0.97040  0.14190  Biso   1.000  H
  H59      1.0000 0.71430  0.47040  0.35810  Biso   1.000  H
  H60      1.0000 0.78570  0.52960  0.85810  Biso   1.000  H
  H61      1.0000 0.78570  0.97040  0.35810  Biso   1.000  H
  H62      1.0000 0.71430  0.02960  0.85810  Biso   1.000  H
  H63      1.0000 0.28570  0.52960  0.64190  Biso   1.000  H
  H64      1.0000 0.21430  0.47040  0.14190  Biso   1.000  H
  C137     1.0000 0.17770  0.95460  0.59980  Biso   1.000  C
  C138     1.0000 0.32230  0.04540  0.09980  Biso   1.000  C
  C139     1.0000 0.67770  0.54540  0.40020  Biso   1.000  C
  C140     1.0000 0.82230  0.45460  0.90020  Biso   1.000  C
  C141     1.0000 0.82230  0.04540  0.40020  Biso   1.000  C
  C142     1.0000 0.67770  0.95460  0.90020  Biso   1.000  C
  C143     1.0000 0.32230  0.45460  0.59980  Biso   1.000  C
  C144     1.0000 0.17770  0.54540  0.09980  Biso   1.000  C
  H65      1.0000 0.18540  0.99730  0.58090  Biso   1.000  H
  H66      1.0000 0.31460  0.00270  0.08090  Biso   1.000  H
  H67      1.0000 0.68540  0.50270  0.41910  Biso   1.000  H
  H68      1.0000 0.81460  0.49730  0.91910  Biso   1.000  H
  H69      1.0000 0.81460  0.00270  0.41910  Biso   1.000  H
  H70      1.0000 0.68540  0.99730  0.91910  Biso   1.000  H
  H71      1.0000 0.31460  0.49730  0.58090  Biso   1.000  H
  H72      1.0000 0.18540  0.50270  0.08090  Biso   1.000  H
  C145     1.0000 0.15080  0.87090  0.59290  Biso   1.000  C
  C146     1.0000 0.34920  0.12910  0.09290  Biso   1.000  C
  C147     1.0000 0.65080  0.62910  0.40710  Biso   1.000  C
  C148     1.0000 0.84920  0.37090  0.90710  Biso   1.000  C
  C149     1.0000 0.84920  0.12910  0.40710  Biso   1.000  C
  C150     1.0000 0.65080  0.87090  0.90710  Biso   1.000  C
  C151     1.0000 0.34920  0.37090  0.59290  Biso   1.000  C
  C152     1.0000 0.15080  0.62910  0.09290  Biso   1.000  C
  H73      1.0000 0.14300  0.85560  0.56860  Biso   1.000  H
  H74      1.0000 0.35700  0.14440  0.06860  Biso   1.000  H
  H75      1.0000 0.64300  0.64440  0.43140  Biso   1.000  H
  H76      1.0000 0.85700  0.35560  0.93140  Biso   1.000  H
  H77      1.0000 0.85700  0.14440  0.43140  Biso   1.000  H
  H78      1.0000 0.64300  0.85560  0.93140  Biso   1.000  H
  H79      1.0000 0.35700  0.35560  0.56860  Biso   1.000  H
  H80      1.0000 0.14300  0.64440  0.06860  Biso   1.000  H
  C153     1.0000 0.14900  0.83050  0.65390  Biso   1.000  C
  C154     1.0000 0.35100  0.16950  0.15390  Biso   1.000  C
  C155     1.0000 0.64900  0.66950  0.34610  Biso   1.000  C
  C156     1.0000 0.85100  0.33050  0.84610  Biso   1.000  C
  C157     1.0000 0.85100  0.16950  0.34610  Biso   1.000  C
  C158     1.0000 0.64900  0.83050  0.84610  Biso   1.000  C
  C159     1.0000 0.35100  0.33050  0.65390  Biso   1.000  C
  C160     1.0000 0.14900  0.66950  0.15390  Biso   1.000  C
  H81      1.0000 0.13890  0.78790  0.67240  Biso   1.000  H
  H82      1.0000 0.36110  0.21210  0.17240  Biso   1.000  H
  H83      1.0000 0.63890  0.71210  0.32760  Biso   1.000  H
  H84      1.0000 0.86110  0.28790  0.82760  Biso   1.000  H
  H85      1.0000 0.86110  0.21210  0.32760  Biso   1.000  H
  H86      1.0000 0.63890  0.78790  0.82760  Biso   1.000  H
  H87      1.0000 0.36110  0.28790  0.67240  Biso   1.000  H
  H88      1.0000 0.13890  0.71210  0.17240  Biso   1.000  H
  C161     1.0000 0.13330  0.91900  0.86000  Biso   1.000  C
  C162     1.0000 0.36670  0.08100  0.36000  Biso   1.000  C
  C163     1.0000 0.63330  0.58100  0.14000  Biso   1.000  C
  C164     1.0000 0.86670  0.41900  0.64000  Biso   1.000  C
  C165     1.0000 0.86670  0.08100  0.14000  Biso   1.000  C
  C166     1.0000 0.63330  0.91900  0.64000  Biso   1.000  C
  C167     1.0000 0.36670  0.41900  0.86000  Biso   1.000  C
  C168     1.0000 0.13330  0.58100  0.36000  Biso   1.000  C
  C169     1.0000 0.09610  0.91700  0.88260  Biso   1.000  C
  C170     1.0000 0.40390  0.08300  0.38260  Biso   1.000  C
  C171     1.0000 0.59610  0.58300  0.11740  Biso   1.000  C
  C172     1.0000 0.90390  0.41700  0.61740  Biso   1.000  C
  C173     1.0000 0.90390  0.08300  0.11740  Biso   1.000  C
  C174     1.0000 0.59610  0.91700  0.61740  Biso   1.000  C
  C175     1.0000 0.40390  0.41700  0.88260  Biso   1.000  C
  C176     1.0000 0.09610  0.58300  0.38260  Biso   1.000  C
  C177     1.0000 0.05310  0.91920  0.90770  Biso   1.000  C
  C178     1.0000 0.44690  0.08080  0.40770  Biso   1.000  C
  C179     1.0000 0.55310  0.58080  0.09230  Biso   1.000  C
  C180     1.0000 0.94690  0.41920  0.59230  Biso   1.000  C
  C181     1.0000 0.94690  0.08080  0.09230  Biso   1.000  C
  C182     1.0000 0.55310  0.91920  0.59230  Biso   1.000  C
  C183     1.0000 0.44690  0.41920  0.90770  Biso   1.000  C
  C184     1.0000 0.05310  0.58080  0.40770  Biso   1.000  C
  C185     1.0000 0.00040  0.94250  0.89520  Biso   1.000  C
  C186     1.0000 0.49960  0.05750  0.39520  Biso   1.000  C
  C187     1.0000 0.50040  0.55750  0.10480  Biso   1.000  C
  C188     1.0000 0.99960  0.44250  0.60480  Biso   1.000  C
  C189     1.0000 0.99960  0.05750  0.10480  Biso   1.000  C
  C190     1.0000 0.50040  0.94250  0.60480  Biso   1.000  C
  C191     1.0000 0.49960  0.44250  0.89520  Biso   1.000  C
  C192     1.0000 0.00040  0.55750  0.39520  Biso   1.000  C
  H89      1.0000 0.99530  0.95560  0.87050  Biso   1.000  H
  H90      1.0000 0.50470  0.04440  0.37050  Biso   1.000  H
  H91      1.0000 0.49530  0.54440  0.12950  Biso   1.000  H
  H92      1.0000 0.00470  0.45560  0.62950  Biso   1.000  H
  H93      1.0000 0.00470  0.04440  0.12950  Biso   1.000  H
  H94      1.0000 0.49530  0.95560  0.62950  Biso   1.000  H
  H95      1.0000 0.50470  0.45560  0.87050  Biso   1.000  H
  H96      1.0000 0.99530  0.54440  0.37050  Biso   1.000  H
  C193     1.0000 0.05970  0.89740  0.94410  Biso   1.000  C
  C194     1.0000 0.44030  0.10260  0.44410  Biso   1.000  C
  C195     1.0000 0.55970  0.60260  0.05590  Biso   1.000  C
  C196     1.0000 0.94030  0.39740  0.55590  Biso   1.000  C
  C197     1.0000 0.94030  0.10260  0.05590  Biso   1.000  C
  C198     1.0000 0.55970  0.89740  0.55590  Biso   1.000  C
  C199     1.0000 0.44030  0.39740  0.94410  Biso   1.000  C
  C200     1.0000 0.05970  0.60260  0.44410  Biso   1.000  C
  H97      1.0000 0.09360  0.87980  0.95320  Biso   1.000  H
  H98      1.0000 0.40640  0.12020  0.45320  Biso   1.000  H
  H99      1.0000 0.59360  0.62020  0.04680  Biso   1.000  H
  H100     1.0000 0.90640  0.37980  0.54680  Biso   1.000  H
  H101     1.0000 0.90640  0.12020  0.04680  Biso   1.000  H
  H102     1.0000 0.59360  0.87980  0.54680  Biso   1.000  H
  H103     1.0000 0.40640  0.37980  0.95320  Biso   1.000  H
  H104     1.0000 0.09360  0.62020  0.45320  Biso   1.000  H
  C201     1.0000 0.01400  0.90230  0.96740  Biso   1.000  C
  C202     1.0000 0.48600  0.09770  0.46740  Biso   1.000  C
  C203     1.0000 0.51400  0.59770  0.03260  Biso   1.000  C
  C204     1.0000 0.98600  0.40230  0.53260  Biso   1.000  C
  C205     1.0000 0.98600  0.09770  0.03260  Biso   1.000  C
  C206     1.0000 0.51400  0.90230  0.53260  Biso   1.000  C
  C207     1.0000 0.48600  0.40230  0.96740  Biso   1.000  C
  C208     1.0000 0.01400  0.59770  0.46740  Biso   1.000  C
  H105     1.0000 0.01720  0.89030  0.99240  Biso   1.000  H
  H106     1.0000 0.48280  0.10970  0.49240  Biso   1.000  H
  H107     1.0000 0.51720  0.60970  0.00760  Biso   1.000  H
  H108     1.0000 0.98280  0.39030  0.50760  Biso   1.000  H
  H109     1.0000 0.98280  0.10970  0.00760  Biso   1.000  H
  H110     1.0000 0.51720  0.89030  0.50760  Biso   1.000  H
  H111     1.0000 0.48280  0.39030  0.99240  Biso   1.000  H
  H112     1.0000 0.01720  0.60970  0.49240  Biso   1.000  H
  C209     1.0000 0.96500  0.92520  0.95240  Biso   1.000  C
  C210     1.0000 0.53500  0.07480  0.45240  Biso   1.000  C
  C211     1.0000 0.46500  0.57480  0.04760  Biso   1.000  C
  C212     1.0000 0.03500  0.42520  0.54760  Biso   1.000  C
  C213     1.0000 0.03500  0.07480  0.04760  Biso   1.000  C
  C214     1.0000 0.46500  0.92520  0.54760  Biso   1.000  C
  C215     1.0000 0.53500  0.42520  0.95240  Biso   1.000  C
  C216     1.0000 0.96500  0.57480  0.45240  Biso   1.000  C
  H113     1.0000 0.93490  0.92550  0.96790  Biso   1.000  H
  H114     1.0000 0.56510  0.07450  0.46790  Biso   1.000  H
  H115     1.0000 0.43490  0.57450  0.03210  Biso   1.000  H
  H116     1.0000 0.06510  0.42550  0.53210  Biso   1.000  H
  H117     1.0000 0.06510  0.07450  0.03210  Biso   1.000  H
  H118     1.0000 0.43490  0.92550  0.53210  Biso   1.000  H
  H119     1.0000 0.56510  0.42550  0.96790  Biso   1.000  H
  H120     1.0000 0.93490  0.57450  0.46790  Biso   1.000  H
  C217     1.0000 0.80670  0.65460  0.42620  Biso   1.000  C
  C218     1.0000 0.69330  0.34540  0.92620  Biso   1.000  C
  C219     1.0000 0.30670  0.84540  0.57380  Biso   1.000  C
  C220     1.0000 0.19330  0.15460  0.07380  Biso   1.000  C
  C221     1.0000 0.19330  0.34540  0.57380  Biso   1.000  C
  C222     1.0000 0.30670  0.65460  0.07380  Biso   1.000  C
  C223     1.0000 0.69330  0.15460  0.42620  Biso   1.000  C
  C224     1.0000 0.80670  0.84540  0.92620  Biso   1.000  C
  H121     1.0000 0.81390  0.62640  0.44880  Biso   1.000  H
  H122     1.0000 0.68610  0.37360  0.94880  Biso   1.000  H
  H123     1.0000 0.31390  0.87360  0.55120  Biso   1.000  H
  H124     1.0000 0.18610  0.12640  0.05120  Biso   1.000  H
  H125     1.0000 0.18610  0.37360  0.55120  Biso   1.000  H
  H126     1.0000 0.31390  0.62640  0.05120  Biso   1.000  H
  H127     1.0000 0.68610  0.12640  0.44880  Biso   1.000  H
  H128     1.0000 0.81390  0.87360  0.94880  Biso   1.000  H
  C225     1.0000 0.77290  0.73520  0.42480  Biso   1.000  C
  C226     1.0000 0.72710  0.26480  0.92480  Biso   1.000  C
  C227     1.0000 0.27290  0.76480  0.57520  Biso   1.000  C
  C228     1.0000 0.22710  0.23520  0.07520  Biso   1.000  C
  C229     1.0000 0.22710  0.26480  0.57520  Biso   1.000  C
  C230     1.0000 0.27290  0.73520  0.07520  Biso   1.000  C
  C231     1.0000 0.72710  0.23520  0.42480  Biso   1.000  C
  C232     1.0000 0.77290  0.76480  0.92480  Biso   1.000  C
  H129     1.0000 0.75830  0.76070  0.44620  Biso   1.000  H
  H130     1.0000 0.74170  0.23930  0.94620  Biso   1.000  H
  H131     1.0000 0.25830  0.73930  0.55380  Biso   1.000  H
  H132     1.0000 0.24170  0.26070  0.05380  Biso   1.000  H
  H133     1.0000 0.24170  0.23930  0.55380  Biso   1.000  H
  H134     1.0000 0.25830  0.76070  0.05380  Biso   1.000  H
  H135     1.0000 0.74170  0.26070  0.44620  Biso   1.000  H
  H136     1.0000 0.75830  0.73930  0.94620  Biso   1.000  H
  C233     1.0000 0.76120  0.77680  0.39110  Biso   1.000  C
  C234     1.0000 0.73880  0.22320  0.89110  Biso   1.000  C
  C235     1.0000 0.26120  0.72320  0.60890  Biso   1.000  C
  C236     1.0000 0.23880  0.27680  0.10890  Biso   1.000  C
  C237     1.0000 0.23880  0.22320  0.60890  Biso   1.000  C
  C238     1.0000 0.26120  0.77680  0.10890  Biso   1.000  C
  C239     1.0000 0.73880  0.27680  0.39110  Biso   1.000  C
  C240     1.0000 0.76120  0.72320  0.89110  Biso   1.000  C
  H137     1.0000 0.73820  0.82970  0.38960  Biso   1.000  H
  H138     1.0000 0.76180  0.17030  0.88960  Biso   1.000  H
  H139     1.0000 0.23820  0.67030  0.61040  Biso   1.000  H
  H140     1.0000 0.26180  0.32970  0.11040  Biso   1.000  H
  H141     1.0000 0.26180  0.17030  0.61040  Biso   1.000  H
  H142     1.0000 0.23820  0.82970  0.11040  Biso   1.000  H
  H143     1.0000 0.76180  0.32970  0.38960  Biso   1.000  H
  H144     1.0000 0.73820  0.67030  0.88960  Biso   1.000  H
  C241     1.0000 0.78420  0.73870  0.36000  Biso   1.000  C
  C242     1.0000 0.71580  0.26130  0.86000  Biso   1.000  C
  C243     1.0000 0.28420  0.76130  0.64000  Biso   1.000  C
  C244     1.0000 0.21580  0.23870  0.14000  Biso   1.000  C
  C245     1.0000 0.21580  0.26130  0.64000  Biso   1.000  C
  C246     1.0000 0.28420  0.73870  0.14000  Biso   1.000  C
  C247     1.0000 0.71580  0.23870  0.36000  Biso   1.000  C
  C248     1.0000 0.78420  0.76130  0.86000  Biso   1.000  C
  C249     1.0000 0.81740  0.65770  0.36450  Biso   1.000  C
  C250     1.0000 0.68260  0.34230  0.86450  Biso   1.000  C
  C251     1.0000 0.31740  0.84230  0.63550  Biso   1.000  C
  C252     1.0000 0.18260  0.15770  0.13550  Biso   1.000  C
  C253     1.0000 0.18260  0.34230  0.63550  Biso   1.000  C
  C254     1.0000 0.31740  0.65770  0.13550  Biso   1.000  C
  C255     1.0000 0.68260  0.15770  0.36450  Biso   1.000  C
  C256     1.0000 0.81740  0.84230  0.86450  Biso   1.000  C
  H145     1.0000 0.83230  0.63080  0.34340  Biso   1.000  H
  H146     1.0000 0.66770  0.36920  0.84340  Biso   1.000  H
  H147     1.0000 0.33230  0.86920  0.65660  Biso   1.000  H
  H148     1.0000 0.16770  0.13080  0.15660  Biso   1.000  H
  H149     1.0000 0.16770  0.36920  0.65660  Biso   1.000  H
  H150     1.0000 0.33230  0.63080  0.15660  Biso   1.000  H
  H151     1.0000 0.66770  0.13080  0.34340  Biso   1.000  H
  H152     1.0000 0.83230  0.86920  0.84340  Biso   1.000  H
  C257     1.0000 0.77450  0.77410  0.32330  Biso   1.000  C
  C258     1.0000 0.72550  0.22590  0.82330  Biso   1.000  C
  C259     1.0000 0.27450  0.72590  0.67670  Biso   1.000  C
  C260     1.0000 0.22550  0.27410  0.17670  Biso   1.000  C
  C261     1.0000 0.22550  0.22590  0.67670  Biso   1.000  C
  C262     1.0000 0.27450  0.77410  0.17670  Biso   1.000  C
  C263     1.0000 0.72550  0.27410  0.32330  Biso   1.000  C
  C264     1.0000 0.77450  0.72590  0.82330  Biso   1.000  C
  C265     1.0000 0.76600  0.79790  0.29240  Biso   1.000  C
  C266     1.0000 0.73400  0.20210  0.79240  Biso   1.000  C
  C267     1.0000 0.26600  0.70210  0.70760  Biso   1.000  C
  C268     1.0000 0.23400  0.29790  0.20760  Biso   1.000  C
  C269     1.0000 0.23400  0.20210  0.70760  Biso   1.000  C
  C270     1.0000 0.26600  0.79790  0.20760  Biso   1.000  C
  C271     1.0000 0.73400  0.29790  0.29240  Biso   1.000  C
  C272     1.0000 0.76600  0.70210  0.79240  Biso   1.000  C
  C273     1.0000 0.75720  0.81640  0.25330  Biso   1.000  C
  C274     1.0000 0.74280  0.18360  0.75330  Biso   1.000  C
  C275     1.0000 0.25720  0.68360  0.74670  Biso   1.000  C
  C276     1.0000 0.24280  0.31640  0.24670  Biso   1.000  C
  C277     1.0000 0.24280  0.18360  0.74670  Biso   1.000  C
  C278     1.0000 0.25720  0.81640  0.24670  Biso   1.000  C
  C279     1.0000 0.74280  0.31640  0.25330  Biso   1.000  C
  C280     1.0000 0.75720  0.68360  0.75330  Biso   1.000  C
  C281     1.0000 0.70500  0.81780  0.23930  Biso   1.000  C
  C282     1.0000 0.79500  0.18220  0.73930  Biso   1.000  C
  C283     1.0000 0.20500  0.68220  0.76070  Biso   1.000  C
  C284     1.0000 0.29500  0.31780  0.26070  Biso   1.000  C
  C285     1.0000 0.29500  0.18220  0.76070  Biso   1.000  C
  C286     1.0000 0.20500  0.81780  0.26070  Biso   1.000  C
  C287     1.0000 0.79500  0.31780  0.23930  Biso   1.000  C
  C288     1.0000 0.70500  0.68220  0.73930  Biso   1.000  C
  H153     1.0000 0.67510  0.81350  0.25490  Biso   1.000  H
  H154     1.0000 0.82490  0.18650  0.75490  Biso   1.000  H
  H155     1.0000 0.17510  0.68650  0.74510  Biso   1.000  H
  H156     1.0000 0.32490  0.31350  0.24510  Biso   1.000  H
  H157     1.0000 0.32490  0.18650  0.74510  Biso   1.000  H
  H158     1.0000 0.17510  0.81350  0.24510  Biso   1.000  H
  H159     1.0000 0.82490  0.31350  0.25490  Biso   1.000  H
  H160     1.0000 0.67510  0.68650  0.75490  Biso   1.000  H
  C289     1.0000 0.69750  0.82580  0.20150  Biso   1.000  C
  C290     1.0000 0.80250  0.17420  0.70150  Biso   1.000  C
  C291     1.0000 0.19750  0.67420  0.79850  Biso   1.000  C
  C292     1.0000 0.30250  0.32580  0.29850  Biso   1.000  C
  C293     1.0000 0.30250  0.17420  0.79850  Biso   1.000  C
  C294     1.0000 0.19750  0.82580  0.29850  Biso   1.000  C
  C295     1.0000 0.80250  0.32580  0.20150  Biso   1.000  C
  C296     1.0000 0.69750  0.67420  0.70150  Biso   1.000  C
  C297     1.0000 0.74250  0.83170  0.17880  Biso   1.000  C
  C298     1.0000 0.75750  0.16830  0.67880  Biso   1.000  C
  C299     1.0000 0.24250  0.66830  0.82120  Biso   1.000  C
  C300     1.0000 0.25750  0.33170  0.32120  Biso   1.000  C
  C301     1.0000 0.25750  0.16830  0.82120  Biso   1.000  C
  C302     1.0000 0.24250  0.83170  0.32120  Biso   1.000  C
  C303     1.0000 0.75750  0.33170  0.17880  Biso   1.000  C
  C304     1.0000 0.74250  0.66830  0.67880  Biso   1.000  C
  H161     1.0000 0.73760  0.83540  0.15350  Biso   1.000  H
  H162     1.0000 0.76240  0.16460  0.65350  Biso   1.000  H
  H163     1.0000 0.23760  0.66460  0.84650  Biso   1.000  H
  H164     1.0000 0.26240  0.33540  0.34650  Biso   1.000  H
  H165     1.0000 0.26240  0.16460  0.84650  Biso   1.000  H
  H166     1.0000 0.23760  0.83540  0.34650  Biso   1.000  H
  H167     1.0000 0.76240  0.33540  0.15350  Biso   1.000  H
  H168     1.0000 0.73760  0.66460  0.65350  Biso   1.000  H
  C305     1.0000 0.79430  0.83230  0.19290  Biso   1.000  C
  C306     1.0000 0.70570  0.16770  0.69290  Biso   1.000  C
  C307     1.0000 0.29430  0.66770  0.80710  Biso   1.000  C
  C308     1.0000 0.20570  0.33230  0.30710  Biso   1.000  C
  C309     1.0000 0.20570  0.16770  0.80710  Biso   1.000  C
  C310     1.0000 0.29430  0.83230  0.30710  Biso   1.000  C
  C311     1.0000 0.70570  0.33230  0.19290  Biso   1.000  C
  C312     1.0000 0.79430  0.66770  0.69290  Biso   1.000  C
  C313     1.0000 0.80190  0.82520  0.23010  Biso   1.000  C
  C314     1.0000 0.69810  0.17480  0.73010  Biso   1.000  C
  C315     1.0000 0.30190  0.67480  0.76990  Biso   1.000  C
  C316     1.0000 0.19810  0.32520  0.26990  Biso   1.000  C
  C317     1.0000 0.19810  0.17480  0.76990  Biso   1.000  C
  C318     1.0000 0.30190  0.82520  0.26990  Biso   1.000  C
  C319     1.0000 0.69810  0.32520  0.23010  Biso   1.000  C
  C320     1.0000 0.80190  0.67480  0.73010  Biso   1.000  C
  H169     1.0000 0.83700  0.82620  0.23970  Biso   1.000  H
  H170     1.0000 0.66300  0.17380  0.73970  Biso   1.000  H
  H171     1.0000 0.33700  0.67380  0.76030  Biso   1.000  H
  H172     1.0000 0.16300  0.32620  0.26030  Biso   1.000  H
  H173     1.0000 0.16300  0.17380  0.76030  Biso   1.000  H
  H174     1.0000 0.33700  0.82620  0.26030  Biso   1.000  H
  H175     1.0000 0.66300  0.32620  0.23970  Biso   1.000  H
  H176     1.0000 0.83700  0.67380  0.73970  Biso   1.000  H
  C321     1.0000 0.64290  0.82010  0.18590  Biso   1.000  C
  C322     1.0000 0.85710  0.17990  0.68590  Biso   1.000  C
  C323     1.0000 0.14290  0.67990  0.81410  Biso   1.000  C
  C324     1.0000 0.35710  0.32010  0.31410  Biso   1.000  C
  C325     1.0000 0.35710  0.17990  0.81410  Biso   1.000  C
  C326     1.0000 0.14290  0.82010  0.31410  Biso   1.000  C
  C327     1.0000 0.85710  0.32010  0.18590  Biso   1.000  C
  C328     1.0000 0.64290  0.67990  0.68590  Biso   1.000  C
  C329     1.0000 0.59900  0.81100  0.17230  Biso   1.000  C
  C330     1.0000 0.90100  0.18900  0.67230  Biso   1.000  C
  C331     1.0000 0.09900  0.68900  0.82770  Biso   1.000  C
  C332     1.0000 0.40100  0.31100  0.32770  Biso   1.000  C
  C333     1.0000 0.40100  0.18900  0.82770  Biso   1.000  C
  C334     1.0000 0.09900  0.81100  0.32770  Biso   1.000  C
  C335     1.0000 0.90100  0.31100  0.17230  Biso   1.000  C
  C336     1.0000 0.59900  0.68900  0.67230  Biso   1.000  C
  C337     1.0000 0.54580  0.80280  0.15500  Biso   1.000  C
  C338     1.0000 0.95420  0.19720  0.65500  Biso   1.000  C
  C339     1.0000 0.04580  0.69720  0.84500  Biso   1.000  C
  C340     1.0000 0.45420  0.30280  0.34500  Biso   1.000  C
  C341     1.0000 0.45420  0.19720  0.84500  Biso   1.000  C
  C342     1.0000 0.04580  0.80280  0.34500  Biso   1.000  C
  C343     1.0000 0.95420  0.30280  0.15500  Biso   1.000  C
  C344     1.0000 0.54580  0.69720  0.65500  Biso   1.000  C
  C345     1.0000 0.53850  0.81990  0.11820  Biso   1.000  C
  C346     1.0000 0.96150  0.18010  0.61820  Biso   1.000  C
  C347     1.0000 0.03850  0.68010  0.88180  Biso   1.000  C
  C348     1.0000 0.46150  0.31990  0.38180  Biso   1.000  C
  C349     1.0000 0.46150  0.18010  0.88180  Biso   1.000  C
  C350     1.0000 0.03850  0.81990  0.38180  Biso   1.000  C
  C351     1.0000 0.96150  0.31990  0.11820  Biso   1.000  C
  C352     1.0000 0.53850  0.68010  0.61820  Biso   1.000  C
  H177     1.0000 0.56880  0.83650  0.10420  Biso   1.000  H
  H178     1.0000 0.93120  0.16350  0.60420  Biso   1.000  H
  H179     1.0000 0.06880  0.66350  0.89580  Biso   1.000  H
  H180     1.0000 0.43120  0.33650  0.39580  Biso   1.000  H
  H181     1.0000 0.43120  0.16350  0.89580  Biso   1.000  H
  H182     1.0000 0.06880  0.83650  0.39580  Biso   1.000  H
  H183     1.0000 0.93120  0.33650  0.10420  Biso   1.000  H
  H184     1.0000 0.56880  0.66350  0.60420  Biso   1.000  H
  C353     1.0000 0.50190  0.77300  0.17560  Biso   1.000  C
  C354     1.0000 0.99810  0.22700  0.67560  Biso   1.000  C
  C355     1.0000 0.00190  0.72700  0.82440  Biso   1.000  C
  C356     1.0000 0.49810  0.27300  0.32440  Biso   1.000  C
  C357     1.0000 0.49810  0.22700  0.82440  Biso   1.000  C
  C358     1.0000 0.00190  0.77300  0.32440  Biso   1.000  C
  C359     1.0000 0.99810  0.27300  0.17560  Biso   1.000  C
  C360     1.0000 0.50190  0.72700  0.67560  Biso   1.000  C
  H185     1.0000 0.50610  0.75710  0.20030  Biso   1.000  H
  H186     1.0000 0.99390  0.24290  0.70030  Biso   1.000  H
  H187     1.0000 0.00610  0.74290  0.79970  Biso   1.000  H
  H188     1.0000 0.49390  0.25710  0.29970  Biso   1.000  H
  H189     1.0000 0.49390  0.24290  0.79970  Biso   1.000  H
  H190     1.0000 0.00610  0.75710  0.29970  Biso   1.000  H
  H191     1.0000 0.99390  0.25710  0.20030  Biso   1.000  H
  H192     1.0000 0.50610  0.74290  0.70030  Biso   1.000  H
  C361     1.0000 0.44950  0.76600  0.15830  Biso   1.000  C
  C362     1.0000 0.05050  0.23400  0.65830  Biso   1.000  C
  C363     1.0000 0.94950  0.73400  0.84170  Biso   1.000  C
  C364     1.0000 0.55050  0.26600  0.34170  Biso   1.000  C
  C365     1.0000 0.55050  0.23400  0.84170  Biso   1.000  C
  C366     1.0000 0.94950  0.76600  0.34170  Biso   1.000  C
  C367     1.0000 0.05050  0.26600  0.15830  Biso   1.000  C
  C368     1.0000 0.44950  0.73400  0.65830  Biso   1.000  C
  H193     1.0000 0.41880  0.74770  0.17150  Biso   1.000  H
  H194     1.0000 0.08120  0.25230  0.67150  Biso   1.000  H
  H195     1.0000 0.91880  0.75230  0.82850  Biso   1.000  H
  H196     1.0000 0.58120  0.24770  0.32850  Biso   1.000  H
  H197     1.0000 0.58120  0.25230  0.82850  Biso   1.000  H
  H198     1.0000 0.91880  0.74770  0.32850  Biso   1.000  H
  H199     1.0000 0.08120  0.24770  0.17150  Biso   1.000  H
  H200     1.0000 0.41880  0.75230  0.67150  Biso   1.000  H
  C369     1.0000 0.44630  0.78700  0.12180  Biso   1.000  C
  C370     1.0000 0.05370  0.21300  0.62180  Biso   1.000  C
  C371     1.0000 0.94630  0.71300  0.87820  Biso   1.000  C
  C372     1.0000 0.55370  0.28700  0.37820  Biso   1.000  C
  C373     1.0000 0.55370  0.21300  0.87820  Biso   1.000  C
  C374     1.0000 0.94630  0.78700  0.37820  Biso   1.000  C
  C375     1.0000 0.05370  0.28700  0.12180  Biso   1.000  C
  C376     1.0000 0.44630  0.71300  0.62180  Biso   1.000  C
  H201     1.0000 0.41250  0.78270  0.11040  Biso   1.000  H
  H202     1.0000 0.08750  0.21730  0.61040  Biso   1.000  H
  H203     1.0000 0.91250  0.71730  0.88960  Biso   1.000  H
  H204     1.0000 0.58750  0.28270  0.38960  Biso   1.000  H
  H205     1.0000 0.58750  0.21730  0.88960  Biso   1.000  H
  H206     1.0000 0.91250  0.78270  0.38960  Biso   1.000  H
  H207     1.0000 0.08750  0.28270  0.11040  Biso   1.000  H
  H208     1.0000 0.41250  0.71730  0.61040  Biso   1.000  H
  C377     1.0000 0.84120  0.83570  0.16810  Biso   1.000  C
  C378     1.0000 0.65880  0.16430  0.66810  Biso   1.000  C
  C379     1.0000 0.34120  0.66430  0.83190  Biso   1.000  C
  C380     1.0000 0.15880  0.33570  0.33190  Biso   1.000  C
  C381     1.0000 0.15880  0.16430  0.83190  Biso   1.000  C
  C382     1.0000 0.34120  0.83570  0.33190  Biso   1.000  C
  C383     1.0000 0.65880  0.33570  0.16810  Biso   1.000  C
  C384     1.0000 0.84120  0.66430  0.66810  Biso   1.000  C
  C385     1.0000 0.87820  0.83550  0.14760  Biso   1.000  C
  C386     1.0000 0.62180  0.16450  0.64760  Biso   1.000  C
  C387     1.0000 0.37820  0.66450  0.85240  Biso   1.000  C
  C388     1.0000 0.12180  0.33550  0.35240  Biso   1.000  C
  C389     1.0000 0.12180  0.16450  0.85240  Biso   1.000  C
  C390     1.0000 0.37820  0.83550  0.35240  Biso   1.000  C
  C391     1.0000 0.62180  0.33550  0.14760  Biso   1.000  C
  C392     1.0000 0.87820  0.66450  0.64760  Biso   1.000  C
  C393     1.0000 0.91830  0.83180  0.11830  Biso   1.000  C
  C394     1.0000 0.58170  0.16820  0.61830  Biso   1.000  C
  C395     1.0000 0.41830  0.66820  0.88170  Biso   1.000  C
  C396     1.0000 0.08170  0.33180  0.38170  Biso   1.000  C
  C397     1.0000 0.08170  0.16820  0.88170  Biso   1.000  C
  C398     1.0000 0.41830  0.83180  0.38170  Biso   1.000  C
  C399     1.0000 0.58170  0.33180  0.11830  Biso   1.000  C
  C400     1.0000 0.91830  0.66820  0.61830  Biso   1.000  C
  C401     1.0000 0.97390  0.82390  0.12560  Biso   1.000  C
  C402     1.0000 0.52610  0.17610  0.62560  Biso   1.000  C
  C403     1.0000 0.47390  0.67610  0.87440  Biso   1.000  C
  C404     1.0000 0.02610  0.32390  0.37440  Biso   1.000  C
  C405     1.0000 0.02610  0.17610  0.87440  Biso   1.000  C
  C406     1.0000 0.47390  0.82390  0.37440  Biso   1.000  C
  C407     1.0000 0.52610  0.32390  0.12560  Biso   1.000  C
  C408     1.0000 0.97390  0.67610  0.62560  Biso   1.000  C
  H209     1.0000 0.98560  0.82450  0.14990  Biso   1.000  H
  H210     1.0000 0.51440  0.17550  0.64990  Biso   1.000  H
  H211     1.0000 0.48560  0.67550  0.85010  Biso   1.000  H
  H212     1.0000 0.01440  0.32450  0.35010  Biso   1.000  H
  H213     1.0000 0.01440  0.17550  0.85010  Biso   1.000  H
  H214     1.0000 0.48560  0.82450  0.35010  Biso   1.000  H
  H215     1.0000 0.51440  0.32450  0.14990  Biso   1.000  H
  H216     1.0000 0.98560  0.67550  0.64990  Biso   1.000  H
  C409     1.0000 0.90090  0.83300  0.08240  Biso   1.000  C
  C410     1.0000 0.59910  0.16700  0.58240  Biso   1.000  C
  C411     1.0000 0.40090  0.66700  0.91760  Biso   1.000  C
  C412     1.0000 0.09910  0.33300  0.41760  Biso   1.000  C
  C413     1.0000 0.09910  0.16700  0.91760  Biso   1.000  C
  C414     1.0000 0.40090  0.83300  0.41760  Biso   1.000  C
  C415     1.0000 0.59910  0.33300  0.08240  Biso   1.000  C
  C416     1.0000 0.90090  0.66700  0.58240  Biso   1.000  C
  H217     1.0000 0.86400  0.83910  0.07710  Biso   1.000  H
  H218     1.0000 0.63600  0.16090  0.57710  Biso   1.000  H
  H219     1.0000 0.36400  0.66090  0.92290  Biso   1.000  H
  H220     1.0000 0.13600  0.33910  0.42290  Biso   1.000  H
  H221     1.0000 0.13600  0.16090  0.92290  Biso   1.000  H
  H222     1.0000 0.36400  0.83910  0.42290  Biso   1.000  H
  H223     1.0000 0.63600  0.33910  0.07710  Biso   1.000  H
  H224     1.0000 0.86400  0.66090  0.57710  Biso   1.000  H
  C417     1.0000 0.93840  0.82520  0.05420  Biso   1.000  C
  C418     1.0000 0.56160  0.17480  0.55420  Biso   1.000  C
  C419     1.0000 0.43840  0.67480  0.94580  Biso   1.000  C
  C420     1.0000 0.06160  0.32520  0.44580  Biso   1.000  C
  C421     1.0000 0.06160  0.17480  0.94580  Biso   1.000  C
  C422     1.0000 0.43840  0.82520  0.44580  Biso   1.000  C
  C423     1.0000 0.56160  0.32520  0.05420  Biso   1.000  C
  C424     1.0000 0.93840  0.67480  0.55420  Biso   1.000  C
  H225     1.0000 0.92750  0.82540  0.02980  Biso   1.000  H
  H226     1.0000 0.57250  0.17460  0.52980  Biso   1.000  H
  H227     1.0000 0.42750  0.67460  0.97020  Biso   1.000  H
  H228     1.0000 0.07250  0.32540  0.47020  Biso   1.000  H
  H229     1.0000 0.07250  0.17460  0.97020  Biso   1.000  H
  H230     1.0000 0.42750  0.82540  0.47020  Biso   1.000  H
  H231     1.0000 0.57250  0.32540  0.02980  Biso   1.000  H
  H232     1.0000 0.92750  0.67460  0.52980  Biso   1.000  H
  C425     1.0000 0.99420  0.81680  0.06420  Biso   1.000  C
  C426     1.0000 0.50580  0.18320  0.56420  Biso   1.000  C
  C427     1.0000 0.49420  0.68320  0.93580  Biso   1.000  C
  C428     1.0000 0.00580  0.31680  0.43580  Biso   1.000  C
  C429     1.0000 0.00580  0.18320  0.93580  Biso   1.000  C
  C430     1.0000 0.49420  0.81680  0.43580  Biso   1.000  C
  C431     1.0000 0.50580  0.31680  0.06420  Biso   1.000  C
  C432     1.0000 0.99420  0.68320  0.56420  Biso   1.000  C
  H233     1.0000 0.02010  0.81200  0.04570  Biso   1.000  H
  H234     1.0000 0.47990  0.18800  0.54570  Biso   1.000  H
  H235     1.0000 0.52010  0.68800  0.95430  Biso   1.000  H
  H236     1.0000 0.97990  0.31200  0.45430  Biso   1.000  H
  H237     1.0000 0.97990  0.18800  0.95430  Biso   1.000  H
  H238     1.0000 0.52010  0.81200  0.45430  Biso   1.000  H
  H239     1.0000 0.47990  0.31200  0.04570  Biso   1.000  H
  H240     1.0000 0.02010  0.68800  0.54570  Biso   1.000  H
  C433     1.0000 0.98540  0.05400  0.25550  Biso   1.000  C
  C434     1.0000 0.51460  0.94600  0.75550  Biso   1.000  C
  C435     1.0000 0.48540  0.44600  0.74450  Biso   1.000  C
  C436     1.0000 0.01460  0.55400  0.24450  Biso   1.000  C
  C437     1.0000 0.01460  0.94600  0.74450  Biso   1.000  C
  C438     1.0000 0.48540  0.05400  0.24450  Biso   1.000  C
  C439     1.0000 0.51460  0.55400  0.25550  Biso   1.000  C
  C440     1.0000 0.98540  0.44600  0.75550  Biso   1.000  C
  C441     1.0000 0.04450  0.06900  0.24930  Biso   1.000  C
  C442     1.0000 0.45550  0.93100  0.74930  Biso   1.000  C
  C443     1.0000 0.54450  0.43100  0.75070  Biso   1.000  C
  C444     1.0000 0.95550  0.56900  0.25070  Biso   1.000  C
  C445     1.0000 0.95550  0.93100  0.75070  Biso   1.000  C
  C446     1.0000 0.54450  0.06900  0.25070  Biso   1.000  C
  C447     1.0000 0.45550  0.56900  0.24930  Biso   1.000  C
  C448     1.0000 0.04450  0.43100  0.74930  Biso   1.000  C
  H241     1.0000 0.06440  0.02240  0.23690  Biso   1.000  H
  H242     1.0000 0.43560  0.97760  0.73690  Biso   1.000  H
  H243     1.0000 0.56440  0.47760  0.76310  Biso   1.000  H
  H244     1.0000 0.93560  0.52240  0.26310  Biso   1.000  H
  H245     1.0000 0.93560  0.97760  0.76310  Biso   1.000  H
  H246     1.0000 0.56440  0.02240  0.26310  Biso   1.000  H
  H247     1.0000 0.43560  0.52240  0.23690  Biso   1.000  H
  H248     1.0000 0.06440  0.47760  0.73690  Biso   1.000  H
  C449     1.0000 0.06910  0.14500  0.26060  Biso   1.000  C
  C450     1.0000 0.43090  0.85500  0.76060  Biso   1.000  C
  C451     1.0000 0.56910  0.35500  0.73940  Biso   1.000  C
  C452     1.0000 0.93090  0.64500  0.23940  Biso   1.000  C
  C453     1.0000 0.93090  0.85500  0.73940  Biso   1.000  C
  C454     1.0000 0.56910  0.14500  0.23940  Biso   1.000  C
  C455     1.0000 0.43090  0.64500  0.26060  Biso   1.000  C
  C456     1.0000 0.06910  0.35500  0.76060  Biso   1.000  C
  H249     1.0000 0.10660  0.15000  0.25760  Biso   1.000  H
  H250     1.0000 0.39340  0.85000  0.75760  Biso   1.000  H
  H251     1.0000 0.60660  0.35000  0.74240  Biso   1.000  H
  H252     1.0000 0.89340  0.65000  0.24240  Biso   1.000  H
  H253     1.0000 0.89340  0.85000  0.74240  Biso   1.000  H
  H254     1.0000 0.60660  0.15000  0.24240  Biso   1.000  H
  H255     1.0000 0.39340  0.65000  0.25760  Biso   1.000  H
  H256     1.0000 0.10660  0.35000  0.75760  Biso   1.000  H
  C457     1.0000 0.04090  0.22100  0.27740  Biso   1.000  C
  C458     1.0000 0.45910  0.77900  0.77740  Biso   1.000  C
  C459     1.0000 0.54090  0.27900  0.72260  Biso   1.000  C
  C460     1.0000 0.95910  0.72100  0.22260  Biso   1.000  C
  C461     1.0000 0.95910  0.77900  0.72260  Biso   1.000  C
  C462     1.0000 0.54090  0.22100  0.22260  Biso   1.000  C
  C463     1.0000 0.45910  0.72100  0.27740  Biso   1.000  C
  C464     1.0000 0.04090  0.27900  0.77740  Biso   1.000  C
  H257     1.0000 0.05870  0.27550  0.28620  Biso   1.000  H
  H258     1.0000 0.44130  0.72450  0.78620  Biso   1.000  H
  H259     1.0000 0.55870  0.22450  0.71380  Biso   1.000  H
  H260     1.0000 0.94130  0.77550  0.21380  Biso   1.000  H
  H261     1.0000 0.94130  0.72450  0.71380  Biso   1.000  H
  H262     1.0000 0.55870  0.27550  0.21380  Biso   1.000  H
  H263     1.0000 0.44130  0.77550  0.28620  Biso   1.000  H
  H264     1.0000 0.05870  0.22450  0.78620  Biso   1.000  H
  C465     1.0000 0.98240  0.20990  0.28030  Biso   1.000  C
  C466     1.0000 0.51760  0.79010  0.78030  Biso   1.000  C
  C467     1.0000 0.48240  0.29010  0.71970  Biso   1.000  C
  C468     1.0000 0.01760  0.70990  0.21970  Biso   1.000  C
  C469     1.0000 0.01760  0.79010  0.71970  Biso   1.000  C
  C470     1.0000 0.48240  0.20990  0.21970  Biso   1.000  C
  C471     1.0000 0.51760  0.70990  0.28030  Biso   1.000  C
  C472     1.0000 0.98240  0.29010  0.78030  Biso   1.000  C
  H265     1.0000 0.96150  0.25960  0.28990  Biso   1.000  H
  H266     1.0000 0.53850  0.74040  0.78990  Biso   1.000  H
  H267     1.0000 0.46150  0.24040  0.71010  Biso   1.000  H
  H268     1.0000 0.03850  0.75960  0.21010  Biso   1.000  H
  H269     1.0000 0.03850  0.74040  0.71010  Biso   1.000  H
  H270     1.0000 0.46150  0.25960  0.21010  Biso   1.000  H
  H271     1.0000 0.53850  0.75960  0.28990  Biso   1.000  H
  H272     1.0000 0.96150  0.24040  0.78990  Biso   1.000  H
  C473     1.0000 0.95740  0.12780  0.26910  Biso   1.000  C
  C474     1.0000 0.54260  0.87220  0.76910  Biso   1.000  C
  C475     1.0000 0.45740  0.37220  0.73090  Biso   1.000  C
  C476     1.0000 0.04260  0.62780  0.23090  Biso   1.000  C
  C477     1.0000 0.04260  0.87220  0.73090  Biso   1.000  C
  C478     1.0000 0.45740  0.12780  0.23090  Biso   1.000  C
  C479     1.0000 0.54260  0.62780  0.26910  Biso   1.000  C
  C480     1.0000 0.95740  0.37220  0.76910  Biso   1.000  C
  H273     1.0000 0.91970  0.12320  0.27100  Biso   1.000  H
  H274     1.0000 0.58030  0.87680  0.77100  Biso   1.000  H
  H275     1.0000 0.41970  0.37680  0.72900  Biso   1.000  H
  H276     1.0000 0.08030  0.62320  0.22900  Biso   1.000  H
  H277     1.0000 0.08030  0.87680  0.72900  Biso   1.000  H
  H278     1.0000 0.41970  0.12320  0.22900  Biso   1.000  H
  H279     1.0000 0.58030  0.62320  0.27100  Biso   1.000  H
  H280     1.0000 0.91970  0.37680  0.77100  Biso   1.000  H
  C481     1.0000 0.95700  0.96200  0.24290  Biso   1.000  C
  C482     1.0000 0.54300  0.03800  0.74290  Biso   1.000  C
  C483     1.0000 0.45700  0.53800  0.75710  Biso   1.000  C
  C484     1.0000 0.04300  0.46200  0.25710  Biso   1.000  C
  C485     1.0000 0.04300  0.03800  0.75710  Biso   1.000  C
  C486     1.0000 0.45700  0.96200  0.25710  Biso   1.000  C
  C487     1.0000 0.54300  0.46200  0.24290  Biso   1.000  C
  C488     1.0000 0.95700  0.53800  0.74290  Biso   1.000  C
  H281     1.0000 0.93610  0.93540  0.26290  Biso   1.000  H
  H282     1.0000 0.56390  0.06460  0.76290  Biso   1.000  H
  H283     1.0000 0.43610  0.56460  0.73710  Biso   1.000  H
  H284     1.0000 0.06390  0.43540  0.23710  Biso   1.000  H
  H285     1.0000 0.06390  0.06460  0.73710  Biso   1.000  H
  H286     1.0000 0.43610  0.93540  0.23710  Biso   1.000  H
  H287     1.0000 0.56390  0.43540  0.26290  Biso   1.000  H
  H288     1.0000 0.93610  0.56460  0.76290  Biso   1.000  H
  H289     1.0000 0.98340  0.91590  0.23490  Biso   1.000  H
  H290     1.0000 0.51660  0.08410  0.73490  Biso   1.000  H
  H291     1.0000 0.48340  0.58410  0.76510  Biso   1.000  H
  H292     1.0000 0.01660  0.41590  0.26510  Biso   1.000  H
  H293     1.0000 0.01660  0.08410  0.76510  Biso   1.000  H
  H294     1.0000 0.48340  0.91590  0.26510  Biso   1.000  H
  H295     1.0000 0.51660  0.41590  0.23490  Biso   1.000  H
  H296     1.0000 0.98340  0.58410  0.73490  Biso   1.000  H
  H297     1.0000 0.93260  0.97640  0.22290  Biso   1.000  H
  H298     1.0000 0.56740  0.02360  0.72290  Biso   1.000  H
  H299     1.0000 0.43260  0.52360  0.77710  Biso   1.000  H
  H300     1.0000 0.06740  0.47640  0.27710  Biso   1.000  H
  H301     1.0000 0.06740  0.02360  0.77710  Biso   1.000  H
  H302     1.0000 0.43260  0.97640  0.27710  Biso   1.000  H
  H303     1.0000 0.56740  0.47640  0.22290  Biso   1.000  H
  H304     1.0000 0.93260  0.52360  0.72290  Biso   1.000  H
