data_image0
_cell_length_a       21.834
_cell_length_b       12.948
_cell_length_c       23.502
_cell_angle_alpha    90
_cell_angle_beta     97.039
_cell_angle_gamma    90

_symmetry_space_group_name_H-M    "P 1"
_symmetry_int_tables_number       1

loop_
  _symmetry_equiv_pos_as_xyz
  'x, y, z'

loop_
  _atom_site_label
  _atom_site_occupancy
  _atom_site_fract_x
  _atom_site_fract_y
  _atom_site_fract_z
  _atom_site_thermal_displace_type
  _atom_site_B_iso_or_equiv
  _atom_site_type_symbol
  Cu1      1.0000 0.29085  0.28279  0.61792  Biso   1.000  Cu
  Cu2      1.0000 0.79085  0.78279  0.11792  Biso   1.000  Cu
  Cu3      1.0000 0.20915  0.28279  0.38208  Biso   1.000  Cu
  Cu4      1.0000 0.70915  0.78279  0.88208  Biso   1.000  Cu
  Cu5      1.0000 0.70915  0.71721  0.38208  Biso   1.000  Cu
  Cu6      1.0000 0.20915  0.21721  0.88208  Biso   1.000  Cu
  Cu7      1.0000 0.79085  0.71721  0.61792  Biso   1.000  Cu
  Cu8      1.0000 0.29085  0.21721  0.11792  Biso   1.000  Cu
  N1       1.0000 0.16281  0.49507  0.54648  Biso   1.000  N
  N2       1.0000 0.66281  0.99507  0.04648  Biso   1.000  N
  N3       1.0000 0.33719  0.49507  0.45352  Biso   1.000  N
  N4       1.0000 0.83719  0.99507  0.95352  Biso   1.000  N
  N5       1.0000 0.83719  0.50493  0.45352  Biso   1.000  N
  N6       1.0000 0.33719  0.00493  0.95352  Biso   1.000  N
  N7       1.0000 0.66281  0.50493  0.54648  Biso   1.000  N
  N8       1.0000 0.16281  0.00493  0.04648  Biso   1.000  N
  N9       1.0000 0.23106  0.39187  0.59648  Biso   1.000  N
  N10      1.0000 0.73106  0.89187  0.09648  Biso   1.000  N
  N11      1.0000 0.26894  0.39187  0.40352  Biso   1.000  N
  N12      1.0000 0.76894  0.89187  0.90352  Biso   1.000  N
  N13      1.0000 0.76894  0.60813  0.40352  Biso   1.000  N
  N14      1.0000 0.26894  0.10813  0.90352  Biso   1.000  N
  N15      1.0000 0.73106  0.60813  0.59648  Biso   1.000  N
  N16      1.0000 0.23106  0.10813  0.09648  Biso   1.000  N
  N17      1.0000 0.18214  0.15744  0.41895  Biso   1.000  N
  N18      1.0000 0.68214  0.65744  0.91895  Biso   1.000  N
  N19      1.0000 0.31786  0.15744  0.58105  Biso   1.000  N
  N20      1.0000 0.81786  0.65744  0.08105  Biso   1.000  N
  N21      1.0000 0.81786  0.84256  0.58105  Biso   1.000  N
  N22      1.0000 0.31786  0.34256  0.08105  Biso   1.000  N
  N23      1.0000 0.68214  0.84256  0.41895  Biso   1.000  N
  N24      1.0000 0.18214  0.34256  0.91895  Biso   1.000  N
  N25      1.0000 0.15085  0.04506  0.48138  Biso   1.000  N
  N26      1.0000 0.65085  0.54506  0.98138  Biso   1.000  N
  N27      1.0000 0.34915  0.04506  0.51862  Biso   1.000  N
  N28      1.0000 0.84915  0.54506  0.01862  Biso   1.000  N
  N29      1.0000 0.84915  0.95494  0.51862  Biso   1.000  N
  N30      1.0000 0.34915  0.45494  0.01862  Biso   1.000  N
  N31      1.0000 0.65085  0.95494  0.48138  Biso   1.000  N
  N32      1.0000 0.15085  0.45494  0.98138  Biso   1.000  N
  N33      1.0000 0.39076  0.25593  0.78175  Biso   1.000  N
  N34      1.0000 0.89076  0.75593  0.28175  Biso   1.000  N
  N35      1.0000 0.10924  0.25593  0.21825  Biso   1.000  N
  N36      1.0000 0.60924  0.75593  0.71825  Biso   1.000  N
  N37      1.0000 0.60924  0.74407  0.21825  Biso   1.000  N
  N38      1.0000 0.10924  0.24407  0.71825  Biso   1.000  N
  N39      1.0000 0.89076  0.74407  0.78175  Biso   1.000  N
  N40      1.0000 0.39076  0.24407  0.28175  Biso   1.000  N
  N41      1.0000 0.34544  0.29116  0.69369  Biso   1.000  N
  N42      1.0000 0.84544  0.79116  0.19369  Biso   1.000  N
  N43      1.0000 0.15456  0.29116  0.30631  Biso   1.000  N
  N44      1.0000 0.65456  0.79116  0.80631  Biso   1.000  N
  N45      1.0000 0.65456  0.70884  0.30631  Biso   1.000  N
  N46      1.0000 0.15456  0.20884  0.80631  Biso   1.000  N
  N47      1.0000 0.84544  0.70884  0.69369  Biso   1.000  N
  N48      1.0000 0.34544  0.20884  0.19369  Biso   1.000  N
  C1       1.0000 0.17362  0.32091  0.50766  Biso   1.000  C
  C2       1.0000 0.67362  0.82091  0.00766  Biso   1.000  C
  C3       1.0000 0.32638  0.32091  0.49234  Biso   1.000  C
  C4       1.0000 0.82638  0.82091  0.99234  Biso   1.000  C
  C5       1.0000 0.82638  0.67909  0.49234  Biso   1.000  C
  C6       1.0000 0.32638  0.17909  0.99234  Biso   1.000  C
  C7       1.0000 0.67362  0.67909  0.50766  Biso   1.000  C
  C8       1.0000 0.17362  0.17909  0.00766  Biso   1.000  C
  H1       1.0000 0.15950  0.34220  0.47060  Biso   1.000  H
  H2       1.0000 0.65950  0.84220  0.97060  Biso   1.000  H
  H3       1.0000 0.34050  0.34220  0.52940  Biso   1.000  H
  H4       1.0000 0.84050  0.84220  0.02940  Biso   1.000  H
  H5       1.0000 0.84050  0.65780  0.52940  Biso   1.000  H
  H6       1.0000 0.34050  0.15780  0.02940  Biso   1.000  H
  H7       1.0000 0.65950  0.65780  0.47060  Biso   1.000  H
  H8       1.0000 0.15950  0.15780  0.97060  Biso   1.000  H
  C9       1.0000 0.17790  0.22007  0.51753  Biso   1.000  C
  C10      1.0000 0.67790  0.72007  0.01753  Biso   1.000  C
  C11      1.0000 0.32210  0.22007  0.48247  Biso   1.000  C
  C12      1.0000 0.82210  0.72007  0.98247  Biso   1.000  C
  C13      1.0000 0.82210  0.77993  0.48247  Biso   1.000  C
  C14      1.0000 0.32210  0.27993  0.98247  Biso   1.000  C
  C15      1.0000 0.67790  0.77993  0.51753  Biso   1.000  C
  C16      1.0000 0.17790  0.27993  0.01753  Biso   1.000  C
  H9       1.0000 0.18670  0.19780  0.55530  Biso   1.000  H
  H10      1.0000 0.68670  0.69780  0.05530  Biso   1.000  H
  H11      1.0000 0.31330  0.19780  0.44470  Biso   1.000  H
  H12      1.0000 0.81330  0.69780  0.94470  Biso   1.000  H
  H13      1.0000 0.81330  0.80220  0.44470  Biso   1.000  H
  H14      1.0000 0.31330  0.30220  0.94470  Biso   1.000  H
  H15      1.0000 0.68670  0.80220  0.55530  Biso   1.000  H
  H16      1.0000 0.18670  0.30220  0.05530  Biso   1.000  H
  C17      1.0000 0.27702  0.24514  0.76595  Biso   1.000  C
  C18      1.0000 0.77702  0.74514  0.26595  Biso   1.000  C
  C19      1.0000 0.22298  0.24514  0.23405  Biso   1.000  C
  C20      1.0000 0.72298  0.74514  0.73405  Biso   1.000  C
  C21      1.0000 0.72298  0.75486  0.23405  Biso   1.000  C
  C22      1.0000 0.22298  0.25486  0.73405  Biso   1.000  C
  C23      1.0000 0.77702  0.75486  0.76595  Biso   1.000  C
  C24      1.0000 0.27702  0.25486  0.26595  Biso   1.000  C
  H17      1.0000 0.27680  0.22430  0.80380  Biso   1.000  H
  H18      1.0000 0.77680  0.72430  0.30380  Biso   1.000  H
  H19      1.0000 0.22320  0.22430  0.19620  Biso   1.000  H
  H20      1.0000 0.72320  0.72430  0.69620  Biso   1.000  H
  H21      1.0000 0.72320  0.77570  0.19620  Biso   1.000  H
  H22      1.0000 0.22320  0.27570  0.69620  Biso   1.000  H
  H23      1.0000 0.77680  0.77570  0.80380  Biso   1.000  H
  H24      1.0000 0.27680  0.27570  0.30380  Biso   1.000  H
  C25      1.0000 0.18837  0.55167  0.59280  Biso   1.000  C
  C26      1.0000 0.68837  0.05167  0.09280  Biso   1.000  C
  C27      1.0000 0.31163  0.55167  0.40720  Biso   1.000  C
  C28      1.0000 0.81163  0.05167  0.90720  Biso   1.000  C
  C29      1.0000 0.81163  0.44833  0.40720  Biso   1.000  C
  C30      1.0000 0.31163  0.94833  0.90720  Biso   1.000  C
  C31      1.0000 0.68837  0.44833  0.59280  Biso   1.000  C
  C32      1.0000 0.18837  0.94833  0.09280  Biso   1.000  C
  C33      1.0000 0.18933  0.40004  0.55032  Biso   1.000  C
  C34      1.0000 0.68933  0.90004  0.05032  Biso   1.000  C
  C35      1.0000 0.31067  0.40004  0.44968  Biso   1.000  C
  C36      1.0000 0.81067  0.90004  0.94968  Biso   1.000  C
  C37      1.0000 0.81067  0.59996  0.44968  Biso   1.000  C
  C38      1.0000 0.31067  0.09996  0.94968  Biso   1.000  C
  C39      1.0000 0.68933  0.59996  0.55032  Biso   1.000  C
  C40      1.0000 0.18933  0.09996  0.05032  Biso   1.000  C
  C41      1.0000 0.23097  0.48698  0.62415  Biso   1.000  C
  C42      1.0000 0.73097  0.98698  0.12415  Biso   1.000  C
  C43      1.0000 0.26903  0.48698  0.37585  Biso   1.000  C
  C44      1.0000 0.76903  0.98698  0.87585  Biso   1.000  C
  C45      1.0000 0.76903  0.51302  0.37585  Biso   1.000  C
  C46      1.0000 0.26903  0.01302  0.87585  Biso   1.000  C
  C47      1.0000 0.73097  0.51302  0.62415  Biso   1.000  C
  C48      1.0000 0.23097  0.01302  0.12415  Biso   1.000  C
  C49      1.0000 0.26569  0.52153  0.67409  Biso   1.000  C
  C50      1.0000 0.76569  0.02153  0.17409  Biso   1.000  C
  C51      1.0000 0.23431  0.52153  0.32591  Biso   1.000  C
  C52      1.0000 0.73431  0.02153  0.82591  Biso   1.000  C
  C53      1.0000 0.73431  0.47847  0.32591  Biso   1.000  C
  C54      1.0000 0.23431  0.97847  0.82591  Biso   1.000  C
  C55      1.0000 0.76569  0.47847  0.67409  Biso   1.000  C
  C56      1.0000 0.26569  0.97847  0.17409  Biso   1.000  C
  H25      1.0000 0.29430  0.47910  0.69530  Biso   1.000  H
  H26      1.0000 0.79430  0.97910  0.19530  Biso   1.000  H
  H27      1.0000 0.20570  0.47910  0.30470  Biso   1.000  H
  H28      1.0000 0.70570  0.97910  0.80470  Biso   1.000  H
  H29      1.0000 0.70570  0.52090  0.30470  Biso   1.000  H
  H30      1.0000 0.20570  0.02090  0.80470  Biso   1.000  H
  H31      1.0000 0.79430  0.52090  0.69530  Biso   1.000  H
  H32      1.0000 0.29430  0.02090  0.19530  Biso   1.000  H
  C57      1.0000 0.25561  0.62187  0.69073  Biso   1.000  C
  C58      1.0000 0.75561  0.12187  0.19073  Biso   1.000  C
  C59      1.0000 0.24439  0.62187  0.30927  Biso   1.000  C
  C60      1.0000 0.74439  0.12187  0.80927  Biso   1.000  C
  C61      1.0000 0.74439  0.37813  0.30927  Biso   1.000  C
  C62      1.0000 0.24439  0.87813  0.80927  Biso   1.000  C
  C63      1.0000 0.75561  0.37813  0.69073  Biso   1.000  C
  C64      1.0000 0.25561  0.87813  0.19073  Biso   1.000  C
  H33      1.0000 0.27840  0.64780  0.72360  Biso   1.000  H
  H34      1.0000 0.77840  0.14780  0.22360  Biso   1.000  H
  H35      1.0000 0.22160  0.64780  0.27640  Biso   1.000  H
  H36      1.0000 0.72160  0.14780  0.77640  Biso   1.000  H
  H37      1.0000 0.72160  0.35220  0.27640  Biso   1.000  H
  H38      1.0000 0.22160  0.85220  0.77640  Biso   1.000  H
  H39      1.0000 0.77840  0.35220  0.72360  Biso   1.000  H
  H40      1.0000 0.27840  0.85220  0.22360  Biso   1.000  H
  C65      1.0000 0.21214  0.68520  0.65945  Biso   1.000  C
  C66      1.0000 0.71214  0.18520  0.15945  Biso   1.000  C
  C67      1.0000 0.28786  0.68520  0.34055  Biso   1.000  C
  C68      1.0000 0.78786  0.18520  0.84055  Biso   1.000  C
  C69      1.0000 0.78786  0.31480  0.34055  Biso   1.000  C
  C70      1.0000 0.28786  0.81480  0.84055  Biso   1.000  C
  C71      1.0000 0.71214  0.31480  0.65945  Biso   1.000  C
  C72      1.0000 0.21214  0.81480  0.15945  Biso   1.000  C
  H41      1.0000 0.20640  0.75190  0.67250  Biso   1.000  H
  H42      1.0000 0.70640  0.25190  0.17250  Biso   1.000  H
  H43      1.0000 0.29360  0.75190  0.32750  Biso   1.000  H
  H44      1.0000 0.79360  0.25190  0.82750  Biso   1.000  H
  H45      1.0000 0.79360  0.24810  0.32750  Biso   1.000  H
  H46      1.0000 0.29360  0.74810  0.82750  Biso   1.000  H
  H47      1.0000 0.70640  0.24810  0.67250  Biso   1.000  H
  H48      1.0000 0.20640  0.74810  0.17250  Biso   1.000  H
  C73      1.0000 0.17763  0.65250  0.61011  Biso   1.000  C
  C74      1.0000 0.67763  0.15250  0.11011  Biso   1.000  C
  C75      1.0000 0.32237  0.65250  0.38989  Biso   1.000  C
  C76      1.0000 0.82237  0.15250  0.88989  Biso   1.000  C
  C77      1.0000 0.82237  0.34750  0.38989  Biso   1.000  C
  C78      1.0000 0.32237  0.84750  0.88989  Biso   1.000  C
  C79      1.0000 0.67763  0.34750  0.61011  Biso   1.000  C
  C80      1.0000 0.17763  0.84750  0.11011  Biso   1.000  C
  H49      1.0000 0.14870  0.69500  0.58930  Biso   1.000  H
  H50      1.0000 0.64870  0.19500  0.08930  Biso   1.000  H
  H51      1.0000 0.35130  0.69500  0.41070  Biso   1.000  H
  H52      1.0000 0.85130  0.19500  0.91070  Biso   1.000  H
  H53      1.0000 0.85130  0.30500  0.41070  Biso   1.000  H
  H54      1.0000 0.35130  0.80500  0.91070  Biso   1.000  H
  H55      1.0000 0.64870  0.30500  0.58930  Biso   1.000  H
  H56      1.0000 0.14870  0.80500  0.08930  Biso   1.000  H
  C81      1.0000 0.11490  0.53181  0.50168  Biso   1.000  C
  C82      1.0000 0.61490  0.03181  0.00168  Biso   1.000  C
  C83      1.0000 0.38510  0.53181  0.49832  Biso   1.000  C
  C84      1.0000 0.88510  0.03181  0.99832  Biso   1.000  C
  C85      1.0000 0.88510  0.46819  0.49832  Biso   1.000  C
  C86      1.0000 0.38510  0.96819  0.99832  Biso   1.000  C
  C87      1.0000 0.61490  0.46819  0.50168  Biso   1.000  C
  C88      1.0000 0.11490  0.96819  0.00168  Biso   1.000  C
  H57      1.0000 0.08830  0.58030  0.51840  Biso   1.000  H
  H58      1.0000 0.58830  0.08030  0.01840  Biso   1.000  H
  H59      1.0000 0.41170  0.58030  0.48160  Biso   1.000  H
  H60      1.0000 0.91170  0.08030  0.98160  Biso   1.000  H
  H61      1.0000 0.91170  0.41970  0.48160  Biso   1.000  H
  H62      1.0000 0.41170  0.91970  0.98160  Biso   1.000  H
  H63      1.0000 0.58830  0.41970  0.51840  Biso   1.000  H
  H64      1.0000 0.08830  0.91970  0.01840  Biso   1.000  H
  H65      1.0000 0.08980  0.47370  0.48690  Biso   1.000  H
  H66      1.0000 0.58980  0.97370  0.98690  Biso   1.000  H
  H67      1.0000 0.41020  0.47370  0.51310  Biso   1.000  H
  H68      1.0000 0.91020  0.97370  0.01310  Biso   1.000  H
  H69      1.0000 0.91020  0.52630  0.51310  Biso   1.000  H
  H70      1.0000 0.41020  0.02630  0.01310  Biso   1.000  H
  H71      1.0000 0.58980  0.52630  0.48690  Biso   1.000  H
  H72      1.0000 0.08980  0.02630  0.98690  Biso   1.000  H
  C89      1.0000 0.14148  0.58320  0.45331  Biso   1.000  C
  C90      1.0000 0.64148  0.08320  0.95331  Biso   1.000  C
  C91      1.0000 0.35852  0.58320  0.54669  Biso   1.000  C
  C92      1.0000 0.85852  0.08320  0.04669  Biso   1.000  C
  C93      1.0000 0.85852  0.41680  0.54669  Biso   1.000  C
  C94      1.0000 0.35852  0.91680  0.04669  Biso   1.000  C
  C95      1.0000 0.64148  0.41680  0.45331  Biso   1.000  C
  C96      1.0000 0.14148  0.91680  0.95331  Biso   1.000  C
  H73      1.0000 0.16890  0.63740  0.46810  Biso   1.000  H
  H74      1.0000 0.66890  0.13740  0.96810  Biso   1.000  H
  H75      1.0000 0.33110  0.63740  0.53190  Biso   1.000  H
  H76      1.0000 0.83110  0.13740  0.03190  Biso   1.000  H
  H77      1.0000 0.83110  0.36260  0.53190  Biso   1.000  H
  H78      1.0000 0.33110  0.86260  0.03190  Biso   1.000  H
  H79      1.0000 0.66890  0.36260  0.46810  Biso   1.000  H
  H80      1.0000 0.16890  0.86260  0.96810  Biso   1.000  H
  H81      1.0000 0.10870  0.61180  0.42700  Biso   1.000  H
  H82      1.0000 0.60870  0.11180  0.92700  Biso   1.000  H
  H83      1.0000 0.39130  0.61180  0.57300  Biso   1.000  H
  H84      1.0000 0.89130  0.11180  0.07300  Biso   1.000  H
  H85      1.0000 0.89130  0.38820  0.57300  Biso   1.000  H
  H86      1.0000 0.39130  0.88820  0.07300  Biso   1.000  H
  H87      1.0000 0.60870  0.38820  0.42700  Biso   1.000  H
  H88      1.0000 0.10870  0.88820  0.92700  Biso   1.000  H
  H89      1.0000 0.16390  0.53340  0.43370  Biso   1.000  H
  H90      1.0000 0.66390  0.03340  0.93370  Biso   1.000  H
  H91      1.0000 0.33610  0.53340  0.56630  Biso   1.000  H
  H92      1.0000 0.83610  0.03340  0.06630  Biso   1.000  H
  H93      1.0000 0.83610  0.46660  0.56630  Biso   1.000  H
  H94      1.0000 0.33610  0.96660  0.06630  Biso   1.000  H
  H95      1.0000 0.66390  0.46660  0.43370  Biso   1.000  H
  H96      1.0000 0.16390  0.96660  0.93370  Biso   1.000  H
  C97      1.0000 0.15102  0.99254  0.43050  Biso   1.000  C
  C98      1.0000 0.65102  0.49254  0.93050  Biso   1.000  C
  C99      1.0000 0.34898  0.99254  0.56950  Biso   1.000  C
  C100     1.0000 0.84898  0.49254  0.06950  Biso   1.000  C
  C101     1.0000 0.84898  0.00746  0.56950  Biso   1.000  C
  C102     1.0000 0.34898  0.50746  0.06950  Biso   1.000  C
  C103     1.0000 0.65102  0.00746  0.43050  Biso   1.000  C
  C104     1.0000 0.15102  0.50746  0.93050  Biso   1.000  C
  C105     1.0000 0.16961  0.14295  0.47263  Biso   1.000  C
  C106     1.0000 0.66961  0.64295  0.97263  Biso   1.000  C
  C107     1.0000 0.33039  0.14295  0.52737  Biso   1.000  C
  C108     1.0000 0.83039  0.64295  0.02737  Biso   1.000  C
  C109     1.0000 0.83039  0.85705  0.52737  Biso   1.000  C
  C110     1.0000 0.33039  0.35705  0.02737  Biso   1.000  C
  C111     1.0000 0.66961  0.85705  0.47263  Biso   1.000  C
  C112     1.0000 0.16961  0.35705  0.97263  Biso   1.000  C
  C113     1.0000 0.17065  0.06296  0.39174  Biso   1.000  C
  C114     1.0000 0.67065  0.56296  0.89174  Biso   1.000  C
  C115     1.0000 0.32935  0.06296  0.60826  Biso   1.000  C
  C116     1.0000 0.82935  0.56296  0.10826  Biso   1.000  C
  C117     1.0000 0.82935  0.93704  0.60826  Biso   1.000  C
  C118     1.0000 0.32935  0.43704  0.10826  Biso   1.000  C
  C119     1.0000 0.67065  0.93704  0.39174  Biso   1.000  C
  C120     1.0000 0.17065  0.43704  0.89174  Biso   1.000  C
  C121     1.0000 0.17902  0.03166  0.33650  Biso   1.000  C
  C122     1.0000 0.67902  0.53166  0.83650  Biso   1.000  C
  C123     1.0000 0.32098  0.03166  0.66350  Biso   1.000  C
  C124     1.0000 0.82098  0.53166  0.16350  Biso   1.000  C
  C125     1.0000 0.82098  0.96834  0.66350  Biso   1.000  C
  C126     1.0000 0.32098  0.46834  0.16350  Biso   1.000  C
  C127     1.0000 0.67902  0.96834  0.33650  Biso   1.000  C
  C128     1.0000 0.17902  0.46834  0.83650  Biso   1.000  C
  H97      1.0000 0.19250  0.07760  0.31030  Biso   1.000  H
  H98      1.0000 0.69250  0.57760  0.81030  Biso   1.000  H
  H99      1.0000 0.30750  0.07760  0.68970  Biso   1.000  H
  H100     1.0000 0.80750  0.57760  0.18970  Biso   1.000  H
  H101     1.0000 0.80750  0.92240  0.68970  Biso   1.000  H
  H102     1.0000 0.30750  0.42240  0.18970  Biso   1.000  H
  H103     1.0000 0.69250  0.92240  0.31030  Biso   1.000  H
  H104     1.0000 0.19250  0.42240  0.81030  Biso   1.000  H
  C129     1.0000 0.16656  0.93033  0.32229  Biso   1.000  C
  C130     1.0000 0.66656  0.43033  0.82229  Biso   1.000  C
  C131     1.0000 0.33344  0.93033  0.67771  Biso   1.000  C
  C132     1.0000 0.83344  0.43033  0.17771  Biso   1.000  C
  C133     1.0000 0.83344  0.06967  0.67771  Biso   1.000  C
  C134     1.0000 0.33344  0.56967  0.17771  Biso   1.000  C
  C135     1.0000 0.66656  0.06967  0.32229  Biso   1.000  C
  C136     1.0000 0.16656  0.56967  0.82229  Biso   1.000  C
  H105     1.0000 0.17190  0.90740  0.28570  Biso   1.000  H
  H106     1.0000 0.67190  0.40740  0.78570  Biso   1.000  H
  H107     1.0000 0.32810  0.90740  0.71430  Biso   1.000  H
  H108     1.0000 0.82810  0.40740  0.21430  Biso   1.000  H
  H109     1.0000 0.82810  0.09260  0.71430  Biso   1.000  H
  H110     1.0000 0.32810  0.59260  0.21430  Biso   1.000  H
  H111     1.0000 0.67190  0.09260  0.28570  Biso   1.000  H
  H112     1.0000 0.17190  0.59260  0.78570  Biso   1.000  H
  C137     1.0000 0.14611  0.86116  0.36108  Biso   1.000  C
  C138     1.0000 0.64611  0.36116  0.86108  Biso   1.000  C
  C139     1.0000 0.35389  0.86116  0.63892  Biso   1.000  C
  C140     1.0000 0.85389  0.36116  0.13892  Biso   1.000  C
  C141     1.0000 0.85389  0.13884  0.63892  Biso   1.000  C
  C142     1.0000 0.35389  0.63884  0.13892  Biso   1.000  C
  C143     1.0000 0.64611  0.13884  0.36108  Biso   1.000  C
  C144     1.0000 0.14611  0.63884  0.86108  Biso   1.000  C
  H113     1.0000 0.13800  0.79330  0.34970  Biso   1.000  H
  H114     1.0000 0.63800  0.29330  0.84970  Biso   1.000  H
  H115     1.0000 0.36200  0.79330  0.65030  Biso   1.000  H
  H116     1.0000 0.86200  0.29330  0.15030  Biso   1.000  H
  H117     1.0000 0.86200  0.20670  0.65030  Biso   1.000  H
  H118     1.0000 0.36200  0.70670  0.15030  Biso   1.000  H
  H119     1.0000 0.63800  0.20670  0.34970  Biso   1.000  H
  H120     1.0000 0.13800  0.70670  0.84970  Biso   1.000  H
  C145     1.0000 0.13755  0.89017  0.41581  Biso   1.000  C
  C146     1.0000 0.63755  0.39017  0.91581  Biso   1.000  C
  C147     1.0000 0.36245  0.89017  0.58419  Biso   1.000  C
  C148     1.0000 0.86245  0.39017  0.08419  Biso   1.000  C
  C149     1.0000 0.86245  0.10983  0.58419  Biso   1.000  C
  C150     1.0000 0.36245  0.60983  0.08419  Biso   1.000  C
  C151     1.0000 0.63755  0.10983  0.41581  Biso   1.000  C
  C152     1.0000 0.13755  0.60983  0.91581  Biso   1.000  C
  H121     1.0000 0.12350  0.84400  0.44160  Biso   1.000  H
  H122     1.0000 0.62350  0.34400  0.94160  Biso   1.000  H
  H123     1.0000 0.37650  0.84400  0.55840  Biso   1.000  H
  H124     1.0000 0.87650  0.34400  0.05840  Biso   1.000  H
  H125     1.0000 0.87650  0.15600  0.55840  Biso   1.000  H
  H126     1.0000 0.37650  0.65600  0.05840  Biso   1.000  H
  H127     1.0000 0.62350  0.15600  0.44160  Biso   1.000  H
  H128     1.0000 0.12350  0.65600  0.94160  Biso   1.000  H
  C153     1.0000 0.13061  0.00225  0.53360  Biso   1.000  C
  C154     1.0000 0.63061  0.50225  0.03360  Biso   1.000  C
  C155     1.0000 0.36939  0.00225  0.46640  Biso   1.000  C
  C156     1.0000 0.86939  0.50225  0.96640  Biso   1.000  C
  C157     1.0000 0.86939  0.99775  0.46640  Biso   1.000  C
  C158     1.0000 0.36939  0.49775  0.96640  Biso   1.000  C
  C159     1.0000 0.63061  0.99775  0.53360  Biso   1.000  C
  C160     1.0000 0.13061  0.49775  0.03360  Biso   1.000  C
  H129     1.0000 0.09400  0.96040  0.52350  Biso   1.000  H
  H130     1.0000 0.59400  0.46040  0.02350  Biso   1.000  H
  H131     1.0000 0.40600  0.96040  0.47650  Biso   1.000  H
  H132     1.0000 0.90600  0.46040  0.97650  Biso   1.000  H
  H133     1.0000 0.90600  0.03960  0.47650  Biso   1.000  H
  H134     1.0000 0.40600  0.53960  0.97650  Biso   1.000  H
  H135     1.0000 0.59400  0.03960  0.52350  Biso   1.000  H
  H136     1.0000 0.09400  0.53960  0.02350  Biso   1.000  H
  H137     1.0000 0.11970  0.05830  0.55780  Biso   1.000  H
  H138     1.0000 0.61970  0.55830  0.05780  Biso   1.000  H
  H139     1.0000 0.38030  0.05830  0.44220  Biso   1.000  H
  H140     1.0000 0.88030  0.55830  0.94220  Biso   1.000  H
  H141     1.0000 0.88030  0.94170  0.44220  Biso   1.000  H
  H142     1.0000 0.38030  0.44170  0.94220  Biso   1.000  H
  H143     1.0000 0.61970  0.94170  0.55780  Biso   1.000  H
  H144     1.0000 0.11970  0.44170  0.05780  Biso   1.000  H
  C161     1.0000 0.18003  0.93710  0.56642  Biso   1.000  C
  C162     1.0000 0.68003  0.43710  0.06642  Biso   1.000  C
  C163     1.0000 0.31997  0.93710  0.43358  Biso   1.000  C
  C164     1.0000 0.81997  0.43710  0.93358  Biso   1.000  C
  C165     1.0000 0.81997  0.06290  0.43358  Biso   1.000  C
  C166     1.0000 0.31997  0.56290  0.93358  Biso   1.000  C
  C167     1.0000 0.68003  0.06290  0.56642  Biso   1.000  C
  C168     1.0000 0.18003  0.56290  0.06642  Biso   1.000  C
  H145     1.0000 0.19150  0.88240  0.54230  Biso   1.000  H
  H146     1.0000 0.69150  0.38240  0.04230  Biso   1.000  H
  H147     1.0000 0.30850  0.88240  0.45770  Biso   1.000  H
  H148     1.0000 0.80850  0.38240  0.95770  Biso   1.000  H
  H149     1.0000 0.80850  0.11760  0.45770  Biso   1.000  H
  H150     1.0000 0.30850  0.61760  0.95770  Biso   1.000  H
  H151     1.0000 0.69150  0.11760  0.54230  Biso   1.000  H
  H152     1.0000 0.19150  0.61760  0.04230  Biso   1.000  H
  H153     1.0000 0.16470  0.90830  0.59950  Biso   1.000  H
  H154     1.0000 0.66470  0.40830  0.09950  Biso   1.000  H
  H155     1.0000 0.33530  0.90830  0.40050  Biso   1.000  H
  H156     1.0000 0.83530  0.40830  0.90050  Biso   1.000  H
  H157     1.0000 0.83530  0.09170  0.40050  Biso   1.000  H
  H158     1.0000 0.33530  0.59170  0.90050  Biso   1.000  H
  H159     1.0000 0.66470  0.09170  0.59950  Biso   1.000  H
  H160     1.0000 0.16470  0.59170  0.09950  Biso   1.000  H
  H161     1.0000 0.21550  0.97920  0.57840  Biso   1.000  H
  H162     1.0000 0.71550  0.47920  0.07840  Biso   1.000  H
  H163     1.0000 0.28450  0.97920  0.42160  Biso   1.000  H
  H164     1.0000 0.78450  0.47920  0.92160  Biso   1.000  H
  H165     1.0000 0.78450  0.02080  0.42160  Biso   1.000  H
  H166     1.0000 0.28450  0.52080  0.92160  Biso   1.000  H
  H167     1.0000 0.71550  0.02080  0.57840  Biso   1.000  H
  H168     1.0000 0.21550  0.52080  0.07840  Biso   1.000  H
  C169     1.0000 0.43703  0.27983  0.74982  Biso   1.000  C
  C170     1.0000 0.93703  0.77983  0.24982  Biso   1.000  C
  C171     1.0000 0.06297  0.27983  0.25018  Biso   1.000  C
  C172     1.0000 0.56297  0.77983  0.75018  Biso   1.000  C
  C173     1.0000 0.56297  0.72017  0.25018  Biso   1.000  C
  C174     1.0000 0.06297  0.22017  0.75018  Biso   1.000  C
  C175     1.0000 0.93703  0.72017  0.74982  Biso   1.000  C
  C176     1.0000 0.43703  0.22017  0.24982  Biso   1.000  C
  C177     1.0000 0.33633  0.26430  0.74665  Biso   1.000  C
  C178     1.0000 0.83633  0.76430  0.24665  Biso   1.000  C
  C179     1.0000 0.16367  0.26430  0.25335  Biso   1.000  C
  C180     1.0000 0.66367  0.76430  0.75335  Biso   1.000  C
  C181     1.0000 0.66367  0.73570  0.25335  Biso   1.000  C
  C182     1.0000 0.16367  0.23570  0.75335  Biso   1.000  C
  C183     1.0000 0.83633  0.73570  0.74665  Biso   1.000  C
  C184     1.0000 0.33633  0.23570  0.24665  Biso   1.000  C
  C185     1.0000 0.40860  0.30155  0.69479  Biso   1.000  C
  C186     1.0000 0.90860  0.80155  0.19479  Biso   1.000  C
  C187     1.0000 0.09140  0.30155  0.30521  Biso   1.000  C
  C188     1.0000 0.59140  0.80155  0.80521  Biso   1.000  C
  C189     1.0000 0.59140  0.69845  0.30521  Biso   1.000  C
  C190     1.0000 0.09140  0.19845  0.80521  Biso   1.000  C
  C191     1.0000 0.90860  0.69845  0.69479  Biso   1.000  C
  C192     1.0000 0.40860  0.19845  0.19479  Biso   1.000  C
  C193     1.0000 0.44357  0.32840  0.65143  Biso   1.000  C
  C194     1.0000 0.94357  0.82840  0.15143  Biso   1.000  C
  C195     1.0000 0.05643  0.32840  0.34857  Biso   1.000  C
  C196     1.0000 0.55643  0.82840  0.84857  Biso   1.000  C
  C197     1.0000 0.55643  0.67160  0.34857  Biso   1.000  C
  C198     1.0000 0.05643  0.17160  0.84857  Biso   1.000  C
  C199     1.0000 0.94357  0.67160  0.65143  Biso   1.000  C
  C200     1.0000 0.44357  0.17160  0.15143  Biso   1.000  C
  H169     1.0000 0.42510  0.34320  0.61460  Biso   1.000  H
  H170     1.0000 0.92510  0.84320  0.11460  Biso   1.000  H
  H171     1.0000 0.07490  0.34320  0.38540  Biso   1.000  H
  H172     1.0000 0.57490  0.84320  0.88540  Biso   1.000  H
  H173     1.0000 0.57490  0.65680  0.38540  Biso   1.000  H
  H174     1.0000 0.07490  0.15680  0.88540  Biso   1.000  H
  H175     1.0000 0.92510  0.65680  0.61460  Biso   1.000  H
  H176     1.0000 0.42510  0.15680  0.11460  Biso   1.000  H
  C201     1.0000 0.50635  0.33230  0.66515  Biso   1.000  C
  C202     1.0000 0.00635  0.83230  0.16515  Biso   1.000  C
  C203     1.0000 0.99365  0.33230  0.33485  Biso   1.000  C
  C204     1.0000 0.49365  0.83230  0.83485  Biso   1.000  C
  C205     1.0000 0.49365  0.66770  0.33485  Biso   1.000  C
  C206     1.0000 0.99365  0.16770  0.83485  Biso   1.000  C
  C207     1.0000 0.00635  0.66770  0.66515  Biso   1.000  C
  C208     1.0000 0.50635  0.16770  0.16515  Biso   1.000  C
  H177     1.0000 0.53080  0.34960  0.63680  Biso   1.000  H
  H178     1.0000 0.03080  0.84960  0.13680  Biso   1.000  H
  H179     1.0000 0.96920  0.34960  0.36320  Biso   1.000  H
  H180     1.0000 0.46920  0.84960  0.86320  Biso   1.000  H
  H181     1.0000 0.46920  0.65040  0.36320  Biso   1.000  H
  H182     1.0000 0.96920  0.15040  0.86320  Biso   1.000  H
  H183     1.0000 0.03080  0.65040  0.63680  Biso   1.000  H
  H184     1.0000 0.53080  0.15040  0.13680  Biso   1.000  H
  C209     1.0000 0.53447  0.31120  0.72012  Biso   1.000  C
  C210     1.0000 0.03447  0.81120  0.22012  Biso   1.000  C
  C211     1.0000 0.96553  0.31120  0.27988  Biso   1.000  C
  C212     1.0000 0.46553  0.81120  0.77988  Biso   1.000  C
  C213     1.0000 0.46553  0.68880  0.27988  Biso   1.000  C
  C214     1.0000 0.96553  0.18880  0.77988  Biso   1.000  C
  C215     1.0000 0.03447  0.68880  0.72012  Biso   1.000  C
  C216     1.0000 0.53447  0.18880  0.22012  Biso   1.000  C
  H185     1.0000 0.57720  0.31550  0.72770  Biso   1.000  H
  H186     1.0000 0.07720  0.81550  0.22770  Biso   1.000  H
  H187     1.0000 0.92280  0.31550  0.27230  Biso   1.000  H
  H188     1.0000 0.42280  0.81550  0.77230  Biso   1.000  H
  H189     1.0000 0.42280  0.68450  0.27230  Biso   1.000  H
  H190     1.0000 0.92280  0.18450  0.77230  Biso   1.000  H
  H191     1.0000 0.07720  0.68450  0.72770  Biso   1.000  H
  H192     1.0000 0.57720  0.18450  0.22770  Biso   1.000  H
  C217     1.0000 0.50084  0.28410  0.76379  Biso   1.000  C
  C218     1.0000 0.00084  0.78410  0.26379  Biso   1.000  C
  C219     1.0000 0.99916  0.28410  0.23621  Biso   1.000  C
  C220     1.0000 0.49916  0.78410  0.73621  Biso   1.000  C
  C221     1.0000 0.49916  0.71590  0.23621  Biso   1.000  C
  C222     1.0000 0.99916  0.21590  0.73621  Biso   1.000  C
  C223     1.0000 0.00084  0.71590  0.76379  Biso   1.000  C
  C224     1.0000 0.50084  0.21590  0.26379  Biso   1.000  C
  H193     1.0000 0.51970  0.26940  0.80050  Biso   1.000  H
  H194     1.0000 0.01970  0.76940  0.30050  Biso   1.000  H
  H195     1.0000 0.98030  0.26940  0.19950  Biso   1.000  H
  H196     1.0000 0.48030  0.76940  0.69950  Biso   1.000  H
  H197     1.0000 0.48030  0.73060  0.19950  Biso   1.000  H
  H198     1.0000 0.98030  0.23060  0.69950  Biso   1.000  H
  H199     1.0000 0.01970  0.73060  0.80050  Biso   1.000  H
  H200     1.0000 0.51970  0.23060  0.30050  Biso   1.000  H
  C225     1.0000 0.40102  0.21910  0.84102  Biso   1.000  C
  C226     1.0000 0.90102  0.71910  0.34102  Biso   1.000  C
  C227     1.0000 0.09898  0.21910  0.15898  Biso   1.000  C
  C228     1.0000 0.59898  0.71910  0.65898  Biso   1.000  C
  C229     1.0000 0.59898  0.78090  0.15898  Biso   1.000  C
  C230     1.0000 0.09898  0.28090  0.65898  Biso   1.000  C
  C231     1.0000 0.90102  0.78090  0.84102  Biso   1.000  C
  C232     1.0000 0.40102  0.28090  0.34102  Biso   1.000  C
  H201     1.0000 0.36350  0.22780  0.85870  Biso   1.000  H
  H202     1.0000 0.86350  0.72780  0.35870  Biso   1.000  H
  H203     1.0000 0.13650  0.22780  0.14130  Biso   1.000  H
  H204     1.0000 0.63650  0.72780  0.64130  Biso   1.000  H
  H205     1.0000 0.63650  0.77220  0.14130  Biso   1.000  H
  H206     1.0000 0.13650  0.27220  0.64130  Biso   1.000  H
  H207     1.0000 0.86350  0.77220  0.85870  Biso   1.000  H
  H208     1.0000 0.36350  0.27220  0.35870  Biso   1.000  H
  H209     1.0000 0.43310  0.26030  0.86240  Biso   1.000  H
  H210     1.0000 0.93310  0.76030  0.36240  Biso   1.000  H
  H211     1.0000 0.06690  0.26030  0.13760  Biso   1.000  H
  H212     1.0000 0.56690  0.76030  0.63760  Biso   1.000  H
  H213     1.0000 0.56690  0.73970  0.13760  Biso   1.000  H
  H214     1.0000 0.06690  0.23970  0.63760  Biso   1.000  H
  H215     1.0000 0.93310  0.73970  0.86240  Biso   1.000  H
  H216     1.0000 0.43310  0.23970  0.36240  Biso   1.000  H
  C233     1.0000 0.41966  0.10760  0.84414  Biso   1.000  C
  C234     1.0000 0.91966  0.60760  0.34414  Biso   1.000  C
  C235     1.0000 0.08034  0.10760  0.15586  Biso   1.000  C
  C236     1.0000 0.58034  0.60760  0.65586  Biso   1.000  C
  C237     1.0000 0.58034  0.89240  0.15586  Biso   1.000  C
  C238     1.0000 0.08034  0.39240  0.65586  Biso   1.000  C
  C239     1.0000 0.91966  0.89240  0.84414  Biso   1.000  C
  C240     1.0000 0.41966  0.39240  0.34414  Biso   1.000  C
  H217     1.0000 0.38670  0.06600  0.82540  Biso   1.000  H
  H218     1.0000 0.88670  0.56600  0.32540  Biso   1.000  H
  H219     1.0000 0.11330  0.06600  0.17460  Biso   1.000  H
  H220     1.0000 0.61330  0.56600  0.67460  Biso   1.000  H
  H221     1.0000 0.61330  0.93400  0.17460  Biso   1.000  H
  H222     1.0000 0.11330  0.43400  0.67460  Biso   1.000  H
  H223     1.0000 0.88670  0.93400  0.82540  Biso   1.000  H
  H224     1.0000 0.38670  0.43400  0.32540  Biso   1.000  H
  H225     1.0000 0.42820  0.08700  0.88360  Biso   1.000  H
  H226     1.0000 0.92820  0.58700  0.38360  Biso   1.000  H
  H227     1.0000 0.07180  0.08700  0.11640  Biso   1.000  H
  H228     1.0000 0.57180  0.58700  0.61640  Biso   1.000  H
  H229     1.0000 0.57180  0.91300  0.11640  Biso   1.000  H
  H230     1.0000 0.07180  0.41300  0.61640  Biso   1.000  H
  H231     1.0000 0.92820  0.91300  0.88360  Biso   1.000  H
  H232     1.0000 0.42820  0.41300  0.38360  Biso   1.000  H
  H233     1.0000 0.45600  0.09820  0.82540  Biso   1.000  H
  H234     1.0000 0.95600  0.59820  0.32540  Biso   1.000  H
  H235     1.0000 0.04400  0.09820  0.17460  Biso   1.000  H
  H236     1.0000 0.54400  0.59820  0.67460  Biso   1.000  H
  H237     1.0000 0.54400  0.90180  0.17460  Biso   1.000  H
  H238     1.0000 0.04400  0.40180  0.67460  Biso   1.000  H
  H239     1.0000 0.95600  0.90180  0.82540  Biso   1.000  H
  H240     1.0000 0.45600  0.40180  0.32540  Biso   1.000  H
  N49      1.0000 0.38410  0.52180  0.79690  Biso   1.000  N
  N50      1.0000 0.88410  0.02180  0.29690  Biso   1.000  N
  N51      1.0000 0.11590  0.52180  0.20310  Biso   1.000  N
  N52      1.0000 0.61590  0.02180  0.70310  Biso   1.000  N
  N53      1.0000 0.61590  0.47820  0.20310  Biso   1.000  N
  N54      1.0000 0.11590  0.97820  0.70310  Biso   1.000  N
  N55      1.0000 0.88410  0.47820  0.79690  Biso   1.000  N
  N56      1.0000 0.38410  0.97820  0.29690  Biso   1.000  N
  C241     1.0000 0.43250  0.52960  0.81810  Biso   1.000  C
  C242     1.0000 0.93250  0.02960  0.31810  Biso   1.000  C
  C243     1.0000 0.06750  0.52960  0.18190  Biso   1.000  C
  C244     1.0000 0.56750  0.02960  0.68190  Biso   1.000  C
  C245     1.0000 0.56750  0.47040  0.18190  Biso   1.000  C
  C246     1.0000 0.06750  0.97040  0.68190  Biso   1.000  C
  C247     1.0000 0.93250  0.47040  0.81810  Biso   1.000  C
  C248     1.0000 0.43250  0.97040  0.31810  Biso   1.000  C
  C249     1.0000 0.49330  0.53800  0.84620  Biso   1.000  C
  C250     1.0000 0.99330  0.03800  0.34620  Biso   1.000  C
  C251     1.0000 0.00670  0.53800  0.15380  Biso   1.000  C
  C252     1.0000 0.50670  0.03800  0.65380  Biso   1.000  C
  C253     1.0000 0.50670  0.46200  0.15380  Biso   1.000  C
  C254     1.0000 0.00670  0.96200  0.65380  Biso   1.000  C
  C255     1.0000 0.99330  0.46200  0.84620  Biso   1.000  C
  C256     1.0000 0.49330  0.96200  0.34620  Biso   1.000  C
  H241     1.0000 0.50670  0.47200  0.86160  Biso   1.000  H
  H242     1.0000 0.00670  0.97200  0.36160  Biso   1.000  H
  H243     1.0000 0.99330  0.47200  0.13840  Biso   1.000  H
  H244     1.0000 0.49330  0.97200  0.63840  Biso   1.000  H
  H245     1.0000 0.49330  0.52800  0.13840  Biso   1.000  H
  H246     1.0000 0.99330  0.02800  0.63840  Biso   1.000  H
  H247     1.0000 0.00670  0.52800  0.86160  Biso   1.000  H
  H248     1.0000 0.50670  0.02800  0.36160  Biso   1.000  H
  H249     1.0000 0.49430  0.58750  0.87670  Biso   1.000  H
  H250     1.0000 0.99430  0.08750  0.37670  Biso   1.000  H
  H251     1.0000 0.00570  0.58750  0.12330  Biso   1.000  H
  H252     1.0000 0.50570  0.08750  0.62330  Biso   1.000  H
  H253     1.0000 0.50570  0.41250  0.12330  Biso   1.000  H
  H254     1.0000 0.00570  0.91250  0.62330  Biso   1.000  H
  H255     1.0000 0.99430  0.41250  0.87670  Biso   1.000  H
  H256     1.0000 0.49430  0.91250  0.37670  Biso   1.000  H
  H257     1.0000 0.52030  0.56030  0.81930  Biso   1.000  H
  H258     1.0000 0.02030  0.06030  0.31930  Biso   1.000  H
  H259     1.0000 0.97970  0.56030  0.18070  Biso   1.000  H
  H260     1.0000 0.47970  0.06030  0.68070  Biso   1.000  H
  H261     1.0000 0.47970  0.43970  0.18070  Biso   1.000  H
  H262     1.0000 0.97970  0.93970  0.68070  Biso   1.000  H
  H263     1.0000 0.02030  0.43970  0.81930  Biso   1.000  H
  H264     1.0000 0.52030  0.93970  0.31930  Biso   1.000  H
  Cl1      1.0000 0.50228  0.23206  0.49950  Biso   1.000  Cl
  Cl2      1.0000 0.00228  0.73206  0.99950  Biso   1.000  Cl
  Cl3      1.0000 0.99772  0.23206  0.50050  Biso   1.000  Cl
  Cl4      1.0000 0.49772  0.73206  0.00050  Biso   1.000  Cl
  Cl5      1.0000 0.49772  0.76794  0.50050  Biso   1.000  Cl
  Cl6      1.0000 0.99772  0.26794  0.00050  Biso   1.000  Cl
  Cl7      1.0000 0.00228  0.76794  0.49950  Biso   1.000  Cl
  Cl8      1.0000 0.50228  0.26794  0.99950  Biso   1.000  Cl
  O1       1.0000 0.56385  0.22805  0.52523  Biso   1.000  O
  O2       1.0000 0.06385  0.72805  0.02523  Biso   1.000  O
  O3       1.0000 0.93615  0.22805  0.47477  Biso   1.000  O
  O4       1.0000 0.43615  0.72805  0.97477  Biso   1.000  O
  O5       1.0000 0.43615  0.77195  0.47477  Biso   1.000  O
  O6       1.0000 0.93615  0.27195  0.97477  Biso   1.000  O
  O7       1.0000 0.06385  0.77195  0.52523  Biso   1.000  O
  O8       1.0000 0.56385  0.27195  0.02523  Biso   1.000  O
  O9       1.0000 0.46360  0.19390  0.53910  Biso   1.000  O
  O10      1.0000 0.96360  0.69390  0.03910  Biso   1.000  O
  O11      1.0000 0.03640  0.19390  0.46090  Biso   1.000  O
  O12      1.0000 0.53640  0.69390  0.96090  Biso   1.000  O
  O13      1.0000 0.53640  0.80610  0.46090  Biso   1.000  O
  O14      1.0000 0.03640  0.30610  0.96090  Biso   1.000  O
  O15      1.0000 0.96360  0.80610  0.53910  Biso   1.000  O
  O16      1.0000 0.46360  0.30610  0.03910  Biso   1.000  O
  O17      1.0000 0.49560  0.16810  0.45060  Biso   1.000  O
  O18      1.0000 0.99560  0.66810  0.95060  Biso   1.000  O
  O19      1.0000 0.00440  0.16810  0.54940  Biso   1.000  O
  O20      1.0000 0.50440  0.66810  0.04940  Biso   1.000  O
  O21      1.0000 0.50440  0.83190  0.54940  Biso   1.000  O
  O22      1.0000 0.00440  0.33190  0.04940  Biso   1.000  O
  O23      1.0000 0.99560  0.83190  0.45060  Biso   1.000  O
  O24      1.0000 0.49560  0.33190  0.95060  Biso   1.000  O
  O25      1.0000 0.48520  0.33370  0.48420  Biso   1.000  O
  O26      1.0000 0.98520  0.83370  0.98420  Biso   1.000  O
  O27      1.0000 0.01480  0.33370  0.51580  Biso   1.000  O
  O28      1.0000 0.51480  0.83370  0.01580  Biso   1.000  O
  O29      1.0000 0.51480  0.66630  0.51580  Biso   1.000  O
  O30      1.0000 0.01480  0.16630  0.01580  Biso   1.000  O
  O31      1.0000 0.98520  0.66630  0.48420  Biso   1.000  O
  O32      1.0000 0.48520  0.16630  0.98420  Biso   1.000  O
  O33      1.0000 0.46730  0.16290  0.52950  Biso   1.000  O
  O34      1.0000 0.96730  0.66290  0.02950  Biso   1.000  O
  O35      1.0000 0.03270  0.16290  0.47050  Biso   1.000  O
  O36      1.0000 0.53270  0.66290  0.97050  Biso   1.000  O
  O37      1.0000 0.53270  0.83710  0.47050  Biso   1.000  O
  O38      1.0000 0.03270  0.33710  0.97050  Biso   1.000  O
  O39      1.0000 0.96730  0.83710  0.52950  Biso   1.000  O
  O40      1.0000 0.46730  0.33710  0.02950  Biso   1.000  O
  O41      1.0000 0.52130  0.28310  0.43640  Biso   1.000  O
  O42      1.0000 0.02130  0.78310  0.93640  Biso   1.000  O
  O43      1.0000 0.97870  0.28310  0.56360  Biso   1.000  O
  O44      1.0000 0.47870  0.78310  0.06360  Biso   1.000  O
  O45      1.0000 0.47870  0.71690  0.56360  Biso   1.000  O
  O46      1.0000 0.97870  0.21690  0.06360  Biso   1.000  O
  O47      1.0000 0.02130  0.71690  0.43640  Biso   1.000  O
  O48      1.0000 0.52130  0.21690  0.93640  Biso   1.000  O
  O49      1.0000 0.49870  0.20280  0.44200  Biso   1.000  O
  O50      1.0000 0.99870  0.70280  0.94200  Biso   1.000  O
  O51      1.0000 0.00130  0.20280  0.55800  Biso   1.000  O
  O52      1.0000 0.50130  0.70280  0.05800  Biso   1.000  O
  O53      1.0000 0.50130  0.79720  0.55800  Biso   1.000  O
  O54      1.0000 0.00130  0.29720  0.05800  Biso   1.000  O
  O55      1.0000 0.99870  0.79720  0.44200  Biso   1.000  O
  O56      1.0000 0.49870  0.29720  0.94200  Biso   1.000  O
  O57      1.0000 0.47600  0.14960  0.48000  Biso   1.000  O
  O58      1.0000 0.97600  0.64960  0.98000  Biso   1.000  O
  O59      1.0000 0.02400  0.14960  0.52000  Biso   1.000  O
  O60      1.0000 0.52400  0.64960  0.02000  Biso   1.000  O
  O61      1.0000 0.52400  0.85040  0.52000  Biso   1.000  O
  O62      1.0000 0.02400  0.35040  0.02000  Biso   1.000  O
  O63      1.0000 0.97600  0.85040  0.48000  Biso   1.000  O
  O64      1.0000 0.47600  0.35040  0.98000  Biso   1.000  O
  O65      1.0000 0.47850  0.33240  0.50440  Biso   1.000  O
  O66      1.0000 0.97850  0.83240  0.00440  Biso   1.000  O
  O67      1.0000 0.02150  0.33240  0.49560  Biso   1.000  O
  O68      1.0000 0.52150  0.83240  0.99560  Biso   1.000  O
  O69      1.0000 0.52150  0.66760  0.49560  Biso   1.000  O
  O70      1.0000 0.02150  0.16760  0.99560  Biso   1.000  O
  O71      1.0000 0.97850  0.66760  0.50440  Biso   1.000  O
  O72      1.0000 0.47850  0.16760  0.00440  Biso   1.000  O
  O73      1.0000 0.47110  0.31470  0.51540  Biso   1.000  O
  O74      1.0000 0.97110  0.81470  0.01540  Biso   1.000  O
  O75      1.0000 0.02890  0.31470  0.48460  Biso   1.000  O
  O76      1.0000 0.52890  0.81470  0.98460  Biso   1.000  O
  O77      1.0000 0.52890  0.68530  0.48460  Biso   1.000  O
  O78      1.0000 0.02890  0.18530  0.98460  Biso   1.000  O
  O79      1.0000 0.97110  0.68530  0.51540  Biso   1.000  O
  O80      1.0000 0.47110  0.18530  0.01540  Biso   1.000  O
