data_image0
_cell_length_a       12.0896
_cell_length_b       12.0896
_cell_length_c       81.755
_cell_angle_alpha    90
_cell_angle_beta     90
_cell_angle_gamma    120

_symmetry_space_group_name_H-M    "P 1"
_symmetry_int_tables_number       1

loop_
  _symmetry_equiv_pos_as_xyz
  'x, y, z'

loop_
  _atom_site_label
  _atom_site_occupancy
  _atom_site_fract_x
  _atom_site_fract_y
  _atom_site_fract_z
  _atom_site_thermal_displace_type
  _atom_site_B_iso_or_equiv
  _atom_site_type_symbol
  W1       1.0000 0.00000  0.00000  0.14517  Biso   1.000  W
  W2       1.0000 0.66667  0.33333  0.47850  Biso   1.000  W
  W3       1.0000 0.33333  0.66667  0.81184  Biso   1.000  W
  W4       1.0000 0.00000  0.00000  0.85483  Biso   1.000  W
  W5       1.0000 0.66667  0.33333  0.18816  Biso   1.000  W
  W6       1.0000 0.33333  0.66667  0.52150  Biso   1.000  W
  N1       1.0000 0.03350  0.13320  0.18014  Biso   1.000  N
  N2       1.0000 0.86680  0.90030  0.18014  Biso   1.000  N
  N3       1.0000 0.09970  0.96650  0.18014  Biso   1.000  N
  N4       1.0000 0.70017  0.46653  0.51347  Biso   1.000  N
  N5       1.0000 0.53347  0.23363  0.51347  Biso   1.000  N
  N6       1.0000 0.76637  0.29983  0.51347  Biso   1.000  N
  N7       1.0000 0.36683  0.79987  0.84681  Biso   1.000  N
  N8       1.0000 0.20013  0.56697  0.84681  Biso   1.000  N
  N9       1.0000 0.43303  0.63317  0.84681  Biso   1.000  N
  N10      1.0000 0.96650  0.86680  0.81986  Biso   1.000  N
  N11      1.0000 0.13320  0.09970  0.81986  Biso   1.000  N
  N12      1.0000 0.90030  0.03350  0.81986  Biso   1.000  N
  N13      1.0000 0.63317  0.20013  0.15319  Biso   1.000  N
  N14      1.0000 0.79987  0.43303  0.15319  Biso   1.000  N
  N15      1.0000 0.56697  0.36683  0.15319  Biso   1.000  N
  N16      1.0000 0.29983  0.53347  0.48653  Biso   1.000  N
  N17      1.0000 0.46653  0.76637  0.48653  Biso   1.000  N
  N18      1.0000 0.23363  0.70017  0.48653  Biso   1.000  N
  N19      1.0000 0.03520  0.15690  0.16336  Biso   1.000  N
  N20      1.0000 0.84310  0.87830  0.16336  Biso   1.000  N
  N21      1.0000 0.12170  0.96480  0.16336  Biso   1.000  N
  N22      1.0000 0.70187  0.49023  0.49669  Biso   1.000  N
  N23      1.0000 0.50977  0.21163  0.49669  Biso   1.000  N
  N24      1.0000 0.78837  0.29813  0.49669  Biso   1.000  N
  N25      1.0000 0.36853  0.82357  0.83003  Biso   1.000  N
  N26      1.0000 0.17643  0.54497  0.83003  Biso   1.000  N
  N27      1.0000 0.45503  0.63147  0.83003  Biso   1.000  N
  N28      1.0000 0.96480  0.84310  0.83664  Biso   1.000  N
  N29      1.0000 0.15690  0.12170  0.83664  Biso   1.000  N
  N30      1.0000 0.87830  0.03520  0.83664  Biso   1.000  N
  N31      1.0000 0.63147  0.17643  0.16997  Biso   1.000  N
  N32      1.0000 0.82357  0.45503  0.16997  Biso   1.000  N
  N33      1.0000 0.54497  0.36853  0.16997  Biso   1.000  N
  N34      1.0000 0.29813  0.50977  0.50331  Biso   1.000  N
  N35      1.0000 0.49023  0.78837  0.50331  Biso   1.000  N
  N36      1.0000 0.21163  0.70187  0.50331  Biso   1.000  N
  C1       1.0000 0.07500  0.24800  0.20640  Biso   1.000  C
  C2       1.0000 0.75200  0.82700  0.20640  Biso   1.000  C
  C3       1.0000 0.17300  0.92500  0.20640  Biso   1.000  C
  C4       1.0000 0.74167  0.58133  0.53973  Biso   1.000  C
  C5       1.0000 0.41867  0.16033  0.53973  Biso   1.000  C
  C6       1.0000 0.83967  0.25833  0.53973  Biso   1.000  C
  C7       1.0000 0.40833  0.91467  0.87307  Biso   1.000  C
  C8       1.0000 0.08533  0.49367  0.87307  Biso   1.000  C
  C9       1.0000 0.50633  0.59167  0.87307  Biso   1.000  C
  C10      1.0000 0.92500  0.75200  0.79360  Biso   1.000  C
  C11      1.0000 0.24800  0.17300  0.79360  Biso   1.000  C
  C12      1.0000 0.82700  0.07500  0.79360  Biso   1.000  C
  C13      1.0000 0.59167  0.08533  0.12693  Biso   1.000  C
  C14      1.0000 0.91467  0.50633  0.12693  Biso   1.000  C
  C15      1.0000 0.49367  0.40833  0.12693  Biso   1.000  C
  C16      1.0000 0.25833  0.41867  0.46027  Biso   1.000  C
  C17      1.0000 0.58133  0.83967  0.46027  Biso   1.000  C
  C18      1.0000 0.16033  0.74167  0.46027  Biso   1.000  C
  H1       1.0000 0.08590  0.32950  0.21000  Biso   1.000  H
  H2       1.0000 0.67050  0.75640  0.21000  Biso   1.000  H
  H3       1.0000 0.24360  0.91410  0.21000  Biso   1.000  H
  H4       1.0000 0.75257  0.66283  0.54333  Biso   1.000  H
  H5       1.0000 0.33717  0.08973  0.54333  Biso   1.000  H
  H6       1.0000 0.91027  0.24743  0.54333  Biso   1.000  H
  H7       1.0000 0.41923  0.99617  0.87667  Biso   1.000  H
  H8       1.0000 0.00383  0.42307  0.87667  Biso   1.000  H
  H9       1.0000 0.57693  0.58077  0.87667  Biso   1.000  H
  H10      1.0000 0.91410  0.67050  0.79000  Biso   1.000  H
  H11      1.0000 0.32950  0.24360  0.79000  Biso   1.000  H
  H12      1.0000 0.75640  0.08590  0.79000  Biso   1.000  H
  H13      1.0000 0.58077  0.00383  0.12333  Biso   1.000  H
  H14      1.0000 0.99617  0.57693  0.12333  Biso   1.000  H
  H15      1.0000 0.42307  0.41923  0.12333  Biso   1.000  H
  H16      1.0000 0.24743  0.33717  0.45667  Biso   1.000  H
  H17      1.0000 0.66283  0.91027  0.45667  Biso   1.000  H
  H18      1.0000 0.08973  0.75257  0.45667  Biso   1.000  H
  H19      1.0000 0.14940  0.24230  0.20950  Biso   1.000  H
  H20      1.0000 0.75770  0.90710  0.20950  Biso   1.000  H
  H21      1.0000 0.09290  0.85060  0.20950  Biso   1.000  H
  H22      1.0000 0.81607  0.57563  0.54283  Biso   1.000  H
  H23      1.0000 0.42437  0.24043  0.54283  Biso   1.000  H
  H24      1.0000 0.75957  0.18393  0.54283  Biso   1.000  H
  H25      1.0000 0.48273  0.90897  0.87617  Biso   1.000  H
  H26      1.0000 0.09103  0.57377  0.87617  Biso   1.000  H
  H27      1.0000 0.42623  0.51727  0.87617  Biso   1.000  H
  H28      1.0000 0.85060  0.75770  0.79050  Biso   1.000  H
  H29      1.0000 0.24230  0.09290  0.79050  Biso   1.000  H
  H30      1.0000 0.90710  0.14940  0.79050  Biso   1.000  H
  H31      1.0000 0.51727  0.09103  0.12383  Biso   1.000  H
  H32      1.0000 0.90897  0.42623  0.12383  Biso   1.000  H
  H33      1.0000 0.57377  0.48273  0.12383  Biso   1.000  H
  H34      1.0000 0.18393  0.42437  0.45717  Biso   1.000  H
  H35      1.0000 0.57563  0.75957  0.45717  Biso   1.000  H
  H36      1.0000 0.24043  0.81607  0.45717  Biso   1.000  H
  H37      1.0000 0.99950  0.17930  0.21160  Biso   1.000  H
  H38      1.0000 0.82070  0.82020  0.21160  Biso   1.000  H
  H39      1.0000 0.17980  0.00050  0.21160  Biso   1.000  H
  H40      1.0000 0.66617  0.51263  0.54493  Biso   1.000  H
  H41      1.0000 0.48737  0.15353  0.54493  Biso   1.000  H
  H42      1.0000 0.84647  0.33383  0.54493  Biso   1.000  H
  H43      1.0000 0.33283  0.84597  0.87827  Biso   1.000  H
  H44      1.0000 0.15403  0.48687  0.87827  Biso   1.000  H
  H45      1.0000 0.51313  0.66717  0.87827  Biso   1.000  H
  H46      1.0000 0.00050  0.82070  0.78840  Biso   1.000  H
  H47      1.0000 0.17930  0.17980  0.78840  Biso   1.000  H
  H48      1.0000 0.82020  0.99950  0.78840  Biso   1.000  H
  H49      1.0000 0.66717  0.15403  0.12173  Biso   1.000  H
  H50      1.0000 0.84597  0.51313  0.12173  Biso   1.000  H
  H51      1.0000 0.48687  0.33283  0.12173  Biso   1.000  H
  H52      1.0000 0.33383  0.48737  0.45507  Biso   1.000  H
  H53      1.0000 0.51263  0.84647  0.45507  Biso   1.000  H
  H54      1.0000 0.15353  0.66617  0.45507  Biso   1.000  H
  C19      1.0000 0.06000  0.23700  0.18840  Biso   1.000  C
  C20      1.0000 0.76300  0.82300  0.18840  Biso   1.000  C
  C21      1.0000 0.17700  0.94000  0.18840  Biso   1.000  C
  C22      1.0000 0.72667  0.57033  0.52173  Biso   1.000  C
  C23      1.0000 0.42967  0.15633  0.52173  Biso   1.000  C
  C24      1.0000 0.84367  0.27333  0.52173  Biso   1.000  C
  C25      1.0000 0.39333  0.90367  0.85507  Biso   1.000  C
  C26      1.0000 0.09633  0.48967  0.85507  Biso   1.000  C
  C27      1.0000 0.51033  0.60667  0.85507  Biso   1.000  C
  C28      1.0000 0.94000  0.76300  0.81160  Biso   1.000  C
  C29      1.0000 0.23700  0.17700  0.81160  Biso   1.000  C
  C30      1.0000 0.82300  0.06000  0.81160  Biso   1.000  C
  C31      1.0000 0.60667  0.09633  0.14493  Biso   1.000  C
  C32      1.0000 0.90367  0.51033  0.14493  Biso   1.000  C
  C33      1.0000 0.48967  0.39333  0.14493  Biso   1.000  C
  C34      1.0000 0.27333  0.42967  0.47827  Biso   1.000  C
  C35      1.0000 0.57033  0.84367  0.47827  Biso   1.000  C
  C36      1.0000 0.15633  0.72667  0.47827  Biso   1.000  C
  C37      1.0000 0.07800  0.32800  0.17720  Biso   1.000  C
  C38      1.0000 0.67200  0.75000  0.17720  Biso   1.000  C
  C39      1.0000 0.25000  0.92200  0.17720  Biso   1.000  C
  C40      1.0000 0.74467  0.66133  0.51053  Biso   1.000  C
  C41      1.0000 0.33867  0.08333  0.51053  Biso   1.000  C
  C42      1.0000 0.91667  0.25533  0.51053  Biso   1.000  C
  C43      1.0000 0.41133  0.99467  0.84387  Biso   1.000  C
  C44      1.0000 0.00533  0.41667  0.84387  Biso   1.000  C
  C45      1.0000 0.58333  0.58867  0.84387  Biso   1.000  C
  C46      1.0000 0.92200  0.67200  0.82280  Biso   1.000  C
  C47      1.0000 0.32800  0.25000  0.82280  Biso   1.000  C
  C48      1.0000 0.75000  0.07800  0.82280  Biso   1.000  C
  C49      1.0000 0.58867  0.00533  0.15613  Biso   1.000  C
  C50      1.0000 0.99467  0.58333  0.15613  Biso   1.000  C
  C51      1.0000 0.41667  0.41133  0.15613  Biso   1.000  C
  C52      1.0000 0.25533  0.33867  0.48947  Biso   1.000  C
  C53      1.0000 0.66133  0.91667  0.48947  Biso   1.000  C
  C54      1.0000 0.08333  0.74467  0.48947  Biso   1.000  C
  H55      1.0000 0.09850  0.41190  0.17950  Biso   1.000  H
  H56      1.0000 0.58810  0.68660  0.17950  Biso   1.000  H
  H57      1.0000 0.31340  0.90150  0.17950  Biso   1.000  H
  H58      1.0000 0.76517  0.74523  0.51283  Biso   1.000  H
  H59      1.0000 0.25477  0.01993  0.51283  Biso   1.000  H
  H60      1.0000 0.98007  0.23483  0.51283  Biso   1.000  H
  H61      1.0000 0.43183  0.07857  0.84617  Biso   1.000  H
  H62      1.0000 0.92143  0.35327  0.84617  Biso   1.000  H
  H63      1.0000 0.64673  0.56817  0.84617  Biso   1.000  H
  H64      1.0000 0.90150  0.58810  0.82050  Biso   1.000  H
  H65      1.0000 0.41190  0.31340  0.82050  Biso   1.000  H
  H66      1.0000 0.68660  0.09850  0.82050  Biso   1.000  H
  H67      1.0000 0.56817  0.92143  0.15383  Biso   1.000  H
  H68      1.0000 0.07857  0.64673  0.15383  Biso   1.000  H
  H69      1.0000 0.35327  0.43183  0.15383  Biso   1.000  H
  H70      1.0000 0.23483  0.25477  0.48717  Biso   1.000  H
  H71      1.0000 0.74523  0.98007  0.48717  Biso   1.000  H
  H72      1.0000 0.01993  0.76517  0.48717  Biso   1.000  H
  C55      1.0000 0.06300  0.27500  0.16180  Biso   1.000  C
  C56      1.0000 0.72500  0.78800  0.16180  Biso   1.000  C
  C57      1.0000 0.21200  0.93700  0.16180  Biso   1.000  C
  C58      1.0000 0.72967  0.60833  0.49513  Biso   1.000  C
  C59      1.0000 0.39167  0.12133  0.49513  Biso   1.000  C
  C60      1.0000 0.87867  0.27033  0.49513  Biso   1.000  C
  C61      1.0000 0.39633  0.94167  0.82847  Biso   1.000  C
  C62      1.0000 0.05833  0.45467  0.82847  Biso   1.000  C
  C63      1.0000 0.54533  0.60367  0.82847  Biso   1.000  C
  C64      1.0000 0.93700  0.72500  0.83820  Biso   1.000  C
  C65      1.0000 0.27500  0.21200  0.83820  Biso   1.000  C
  C66      1.0000 0.78800  0.06300  0.83820  Biso   1.000  C
  C67      1.0000 0.60367  0.05833  0.17153  Biso   1.000  C
  C68      1.0000 0.94167  0.54533  0.17153  Biso   1.000  C
  C69      1.0000 0.45467  0.39633  0.17153  Biso   1.000  C
  C70      1.0000 0.27033  0.39167  0.50487  Biso   1.000  C
  C71      1.0000 0.60833  0.87867  0.50487  Biso   1.000  C
  C72      1.0000 0.12133  0.72967  0.50487  Biso   1.000  C
  C73      1.0000 0.06900  0.34200  0.14630  Biso   1.000  C
  C74      1.0000 0.65800  0.72700  0.14630  Biso   1.000  C
  C75      1.0000 0.27300  0.93100  0.14630  Biso   1.000  C
  C76      1.0000 0.73567  0.67533  0.47963  Biso   1.000  C
  C77      1.0000 0.32467  0.06033  0.47963  Biso   1.000  C
  C78      1.0000 0.93967  0.26433  0.47963  Biso   1.000  C
  C79      1.0000 0.40233  0.00867  0.81297  Biso   1.000  C
  C80      1.0000 0.99133  0.39367  0.81297  Biso   1.000  C
  C81      1.0000 0.60633  0.59767  0.81297  Biso   1.000  C
  C82      1.0000 0.93100  0.65800  0.85370  Biso   1.000  C
  C83      1.0000 0.34200  0.27300  0.85370  Biso   1.000  C
  C84      1.0000 0.72700  0.06900  0.85370  Biso   1.000  C
  C85      1.0000 0.59767  0.99133  0.18703  Biso   1.000  C
  C86      1.0000 0.00867  0.60633  0.18703  Biso   1.000  C
  C87      1.0000 0.39367  0.40233  0.18703  Biso   1.000  C
  C88      1.0000 0.26433  0.32467  0.52037  Biso   1.000  C
  C89      1.0000 0.67533  0.93967  0.52037  Biso   1.000  C
  C90      1.0000 0.06033  0.73567  0.52037  Biso   1.000  C
  H73      1.0000 0.13640  0.34540  0.13950  Biso   1.000  H
  H74      1.0000 0.65460  0.79100  0.13950  Biso   1.000  H
  H75      1.0000 0.20900  0.86360  0.13950  Biso   1.000  H
  H76      1.0000 0.80307  0.67873  0.47283  Biso   1.000  H
  H77      1.0000 0.32127  0.12433  0.47283  Biso   1.000  H
  H78      1.0000 0.87567  0.19693  0.47283  Biso   1.000  H
  H79      1.0000 0.46973  0.01207  0.80617  Biso   1.000  H
  H80      1.0000 0.98793  0.45767  0.80617  Biso   1.000  H
  H81      1.0000 0.54233  0.53027  0.80617  Biso   1.000  H
  H82      1.0000 0.86360  0.65460  0.86050  Biso   1.000  H
  H83      1.0000 0.34540  0.20900  0.86050  Biso   1.000  H
  H84      1.0000 0.79100  0.13640  0.86050  Biso   1.000  H
  H85      1.0000 0.53027  0.98793  0.19383  Biso   1.000  H
  H86      1.0000 0.01207  0.54233  0.19383  Biso   1.000  H
  H87      1.0000 0.45767  0.46973  0.19383  Biso   1.000  H
  H88      1.0000 0.19693  0.32127  0.52717  Biso   1.000  H
  H89      1.0000 0.67873  0.87567  0.52717  Biso   1.000  H
  H90      1.0000 0.12433  0.80307  0.52717  Biso   1.000  H
  H91      1.0000 0.08730  0.42790  0.14870  Biso   1.000  H
  H92      1.0000 0.57210  0.65940  0.14870  Biso   1.000  H
  H93      1.0000 0.34060  0.91270  0.14870  Biso   1.000  H
  H94      1.0000 0.75397  0.76123  0.48203  Biso   1.000  H
  H95      1.0000 0.23877  0.99273  0.48203  Biso   1.000  H
  H96      1.0000 0.00727  0.24603  0.48203  Biso   1.000  H
  H97      1.0000 0.42063  0.09457  0.81537  Biso   1.000  H
  H98      1.0000 0.90543  0.32607  0.81537  Biso   1.000  H
  H99      1.0000 0.67393  0.57937  0.81537  Biso   1.000  H
  H100     1.0000 0.91270  0.57210  0.85130  Biso   1.000  H
  H101     1.0000 0.42790  0.34060  0.85130  Biso   1.000  H
  H102     1.0000 0.65940  0.08730  0.85130  Biso   1.000  H
  H103     1.0000 0.57937  0.90543  0.18463  Biso   1.000  H
  H104     1.0000 0.09457  0.67393  0.18463  Biso   1.000  H
  H105     1.0000 0.32607  0.42063  0.18463  Biso   1.000  H
  H106     1.0000 0.24603  0.23877  0.51797  Biso   1.000  H
  H107     1.0000 0.76123  0.00727  0.51797  Biso   1.000  H
  H108     1.0000 0.99273  0.75397  0.51797  Biso   1.000  H
  H109     1.0000 0.98810  0.29580  0.14070  Biso   1.000  H
  H110     1.0000 0.70420  0.69230  0.14070  Biso   1.000  H
  H111     1.0000 0.30770  0.01190  0.14070  Biso   1.000  H
  H112     1.0000 0.65477  0.62913  0.47403  Biso   1.000  H
  H113     1.0000 0.37087  0.02563  0.47403  Biso   1.000  H
  H114     1.0000 0.97437  0.34523  0.47403  Biso   1.000  H
  H115     1.0000 0.32143  0.96247  0.80737  Biso   1.000  H
  H116     1.0000 0.03753  0.35897  0.80737  Biso   1.000  H
  H117     1.0000 0.64103  0.67857  0.80737  Biso   1.000  H
  H118     1.0000 0.01190  0.70420  0.85930  Biso   1.000  H
  H119     1.0000 0.29580  0.30770  0.85930  Biso   1.000  H
  H120     1.0000 0.69230  0.98810  0.85930  Biso   1.000  H
  H121     1.0000 0.67857  0.03753  0.19263  Biso   1.000  H
  H122     1.0000 0.96247  0.64103  0.19263  Biso   1.000  H
  H123     1.0000 0.35897  0.32143  0.19263  Biso   1.000  H
  H124     1.0000 0.34523  0.37087  0.52597  Biso   1.000  H
  H125     1.0000 0.62913  0.97437  0.52597  Biso   1.000  H
  H126     1.0000 0.02563  0.65477  0.52597  Biso   1.000  H
  B1       1.0000 0.00000  0.00000  0.18770  Biso   1.000  B
  B2       1.0000 0.66667  0.33333  0.52103  Biso   1.000  B
  B3       1.0000 0.33333  0.66667  0.85437  Biso   1.000  B
  B4       1.0000 0.00000  0.00000  0.81230  Biso   1.000  B
  B5       1.0000 0.66667  0.33333  0.14563  Biso   1.000  B
  B6       1.0000 0.33333  0.66667  0.47897  Biso   1.000  B
  H127     1.0000 0.00000  0.00000  0.20180  Biso   1.000  H
  H128     1.0000 0.66667  0.33333  0.53513  Biso   1.000  H
  H129     1.0000 0.33333  0.66667  0.86847  Biso   1.000  H
  H130     1.0000 0.00000  0.00000  0.79820  Biso   1.000  H
  H131     1.0000 0.66667  0.33333  0.13153  Biso   1.000  H
  H132     1.0000 0.33333  0.66667  0.46487  Biso   1.000  H
  S1       1.0000 0.95730  0.80950  0.13338  Biso   1.000  S
  S2       1.0000 0.19050  0.14780  0.13338  Biso   1.000  S
  S3       1.0000 0.85220  0.04270  0.13338  Biso   1.000  S
  S4       1.0000 0.62397  0.14283  0.46671  Biso   1.000  S
  S5       1.0000 0.85717  0.48113  0.46671  Biso   1.000  S
  S6       1.0000 0.51887  0.37603  0.46671  Biso   1.000  S
  S7       1.0000 0.29063  0.47617  0.80005  Biso   1.000  S
  S8       1.0000 0.52383  0.81447  0.80005  Biso   1.000  S
  S9       1.0000 0.18553  0.70937  0.80005  Biso   1.000  S
  S10      1.0000 0.04270  0.19050  0.86662  Biso   1.000  S
  S11      1.0000 0.80950  0.85220  0.86662  Biso   1.000  S
  S12      1.0000 0.14780  0.95730  0.86662  Biso   1.000  S
  S13      1.0000 0.70937  0.52383  0.19995  Biso   1.000  S
  S14      1.0000 0.47617  0.18553  0.19995  Biso   1.000  S
  S15      1.0000 0.81447  0.29063  0.19995  Biso   1.000  S
  S16      1.0000 0.37603  0.85717  0.53329  Biso   1.000  S
  S17      1.0000 0.14283  0.51887  0.53329  Biso   1.000  S
  S18      1.0000 0.48113  0.62397  0.53329  Biso   1.000  S
  Cu1      1.0000 0.11740  0.96610  0.12032  Biso   1.000  Cu
  Cu2      1.0000 0.03390  0.15130  0.12032  Biso   1.000  Cu
  Cu3      1.0000 0.84870  0.88260  0.12032  Biso   1.000  Cu
  Cu4      1.0000 0.78407  0.29943  0.45365  Biso   1.000  Cu
  Cu5      1.0000 0.70057  0.48463  0.45365  Biso   1.000  Cu
  Cu6      1.0000 0.51537  0.21593  0.45365  Biso   1.000  Cu
  Cu7      1.0000 0.45073  0.63277  0.78699  Biso   1.000  Cu
  Cu8      1.0000 0.36723  0.81797  0.78699  Biso   1.000  Cu
  Cu9      1.0000 0.18203  0.54927  0.78699  Biso   1.000  Cu
  Cu10     1.0000 0.88260  0.03390  0.87968  Biso   1.000  Cu
  Cu11     1.0000 0.96610  0.84870  0.87968  Biso   1.000  Cu
  Cu12     1.0000 0.15130  0.11740  0.87968  Biso   1.000  Cu
  Cu13     1.0000 0.54927  0.36723  0.21301  Biso   1.000  Cu
  Cu14     1.0000 0.63277  0.18203  0.21301  Biso   1.000  Cu
  Cu15     1.0000 0.81797  0.45073  0.21301  Biso   1.000  Cu
  Cu16     1.0000 0.21593  0.70057  0.54635  Biso   1.000  Cu
  Cu17     1.0000 0.29943  0.51537  0.54635  Biso   1.000  Cu
  Cu18     1.0000 0.48463  0.78407  0.54635  Biso   1.000  Cu
  Cu19     1.0000 0.30620  0.78750  0.06605  Biso   1.000  Cu
  Cu20     1.0000 0.21250  0.51870  0.06605  Biso   1.000  Cu
  Cu21     1.0000 0.48130  0.69380  0.06605  Biso   1.000  Cu
  Cu22     1.0000 0.97287  0.12083  0.39938  Biso   1.000  Cu
  Cu23     1.0000 0.87917  0.85203  0.39938  Biso   1.000  Cu
  Cu24     1.0000 0.14797  0.02713  0.39938  Biso   1.000  Cu
  Cu25     1.0000 0.63953  0.45417  0.73272  Biso   1.000  Cu
  Cu26     1.0000 0.54583  0.18537  0.73272  Biso   1.000  Cu
  Cu27     1.0000 0.81463  0.36047  0.73272  Biso   1.000  Cu
  Cu28     1.0000 0.69380  0.21250  0.93395  Biso   1.000  Cu
  Cu29     1.0000 0.78750  0.48130  0.93395  Biso   1.000  Cu
  Cu30     1.0000 0.51870  0.30620  0.93395  Biso   1.000  Cu
  Cu31     1.0000 0.36047  0.54583  0.26728  Biso   1.000  Cu
  Cu32     1.0000 0.45417  0.81463  0.26728  Biso   1.000  Cu
  Cu33     1.0000 0.18537  0.63953  0.26728  Biso   1.000  Cu
  Cu34     1.0000 0.02713  0.87917  0.60062  Biso   1.000  Cu
  Cu35     1.0000 0.12083  0.14797  0.60062  Biso   1.000  Cu
  Cu36     1.0000 0.85203  0.97287  0.60062  Biso   1.000  Cu
  N37      1.0000 0.20940  0.95020  0.10216  Biso   1.000  N
  N38      1.0000 0.04980  0.25920  0.10216  Biso   1.000  N
  N39      1.0000 0.74080  0.79060  0.10216  Biso   1.000  N
  N40      1.0000 0.87607  0.28353  0.43549  Biso   1.000  N
  N41      1.0000 0.71647  0.59253  0.43549  Biso   1.000  N
  N42      1.0000 0.40747  0.12393  0.43549  Biso   1.000  N
  N43      1.0000 0.54273  0.61687  0.76883  Biso   1.000  N
  N44      1.0000 0.38313  0.92587  0.76883  Biso   1.000  N
  N45      1.0000 0.07413  0.45727  0.76883  Biso   1.000  N
  N46      1.0000 0.79060  0.04980  0.89784  Biso   1.000  N
  N47      1.0000 0.95020  0.74080  0.89784  Biso   1.000  N
  N48      1.0000 0.25920  0.20940  0.89784  Biso   1.000  N
  N49      1.0000 0.45727  0.38313  0.23117  Biso   1.000  N
  N50      1.0000 0.61687  0.07413  0.23117  Biso   1.000  N
  N51      1.0000 0.92587  0.54273  0.23117  Biso   1.000  N
  N52      1.0000 0.12393  0.71647  0.56451  Biso   1.000  N
  N53      1.0000 0.28353  0.40747  0.56451  Biso   1.000  N
  N54      1.0000 0.59253  0.87607  0.56451  Biso   1.000  N
  N55      1.0000 0.33250  0.03590  0.10010  Biso   1.000  N
  N56      1.0000 0.96410  0.29660  0.10010  Biso   1.000  N
  N57      1.0000 0.70340  0.66750  0.10010  Biso   1.000  N
  N58      1.0000 0.99917  0.36923  0.43343  Biso   1.000  N
  N59      1.0000 0.63077  0.62993  0.43343  Biso   1.000  N
  N60      1.0000 0.37007  0.00083  0.43343  Biso   1.000  N
  N61      1.0000 0.66583  0.70257  0.76677  Biso   1.000  N
  N62      1.0000 0.29743  0.96327  0.76677  Biso   1.000  N
  N63      1.0000 0.03673  0.33417  0.76677  Biso   1.000  N
  N64      1.0000 0.66750  0.96410  0.89990  Biso   1.000  N
  N65      1.0000 0.03590  0.70340  0.89990  Biso   1.000  N
  N66      1.0000 0.29660  0.33250  0.89990  Biso   1.000  N
  N67      1.0000 0.33417  0.29743  0.23323  Biso   1.000  N
  N68      1.0000 0.70257  0.03673  0.23323  Biso   1.000  N
  N69      1.0000 0.96327  0.66583  0.23323  Biso   1.000  N
  N70      1.0000 0.00083  0.63077  0.56657  Biso   1.000  N
  N71      1.0000 0.36923  0.37007  0.56657  Biso   1.000  N
  N72      1.0000 0.62993  0.99917  0.56657  Biso   1.000  N
  N73      1.0000 0.37480  0.99800  0.08800  Biso   1.000  N
  N74      1.0000 0.00200  0.37680  0.08800  Biso   1.000  N
  N75      1.0000 0.62320  0.62520  0.08800  Biso   1.000  N
  N76      1.0000 0.04147  0.33133  0.42133  Biso   1.000  N
  N77      1.0000 0.66867  0.71013  0.42133  Biso   1.000  N
  N78      1.0000 0.28987  0.95853  0.42133  Biso   1.000  N
  N79      1.0000 0.70813  0.66467  0.75467  Biso   1.000  N
  N80      1.0000 0.33533  0.04347  0.75467  Biso   1.000  N
  N81      1.0000 0.95653  0.29187  0.75467  Biso   1.000  N
  N82      1.0000 0.62520  0.00200  0.91200  Biso   1.000  N
  N83      1.0000 0.99800  0.62320  0.91200  Biso   1.000  N
  N84      1.0000 0.37680  0.37480  0.91200  Biso   1.000  N
  N85      1.0000 0.29187  0.33533  0.24533  Biso   1.000  N
  N86      1.0000 0.66467  0.95653  0.24533  Biso   1.000  N
  N87      1.0000 0.04347  0.70813  0.24533  Biso   1.000  N
  N88      1.0000 0.95853  0.66867  0.57867  Biso   1.000  N
  N89      1.0000 0.33133  0.28987  0.57867  Biso   1.000  N
  N90      1.0000 0.71013  0.04147  0.57867  Biso   1.000  N
  N91      1.0000 0.27910  0.88930  0.08205  Biso   1.000  N
  N92      1.0000 0.11070  0.38980  0.08205  Biso   1.000  N
  N93      1.0000 0.61020  0.72090  0.08205  Biso   1.000  N
  N94      1.0000 0.94577  0.22263  0.41538  Biso   1.000  N
  N95      1.0000 0.77737  0.72313  0.41538  Biso   1.000  N
  N96      1.0000 0.27687  0.05423  0.41538  Biso   1.000  N
  N97      1.0000 0.61243  0.55597  0.74872  Biso   1.000  N
  N98      1.0000 0.44403  0.05647  0.74872  Biso   1.000  N
  N99      1.0000 0.94353  0.38757  0.74872  Biso   1.000  N
  N100     1.0000 0.72090  0.11070  0.91795  Biso   1.000  N
  N101     1.0000 0.88930  0.61020  0.91795  Biso   1.000  N
  N102     1.0000 0.38980  0.27910  0.91795  Biso   1.000  N
  N103     1.0000 0.38757  0.44403  0.25128  Biso   1.000  N
  N104     1.0000 0.55597  0.94353  0.25128  Biso   1.000  N
  N105     1.0000 0.05647  0.61243  0.25128  Biso   1.000  N
  N106     1.0000 0.05423  0.77737  0.58462  Biso   1.000  N
  N107     1.0000 0.22263  0.27687  0.58462  Biso   1.000  N
  N108     1.0000 0.72313  0.94577  0.58462  Biso   1.000  N
  C91      1.0000 0.17410  0.85430  0.09100  Biso   1.000  C
  C92      1.0000 0.14570  0.31980  0.09100  Biso   1.000  C
  C93      1.0000 0.68020  0.82590  0.09100  Biso   1.000  C
  C94      1.0000 0.84077  0.18763  0.42433  Biso   1.000  C
  C95      1.0000 0.81237  0.65313  0.42433  Biso   1.000  C
  C96      1.0000 0.34687  0.15923  0.42433  Biso   1.000  C
  C97      1.0000 0.50743  0.52097  0.75767  Biso   1.000  C
  C98      1.0000 0.47903  0.98647  0.75767  Biso   1.000  C
  C99      1.0000 0.01353  0.49257  0.75767  Biso   1.000  C
  C100     1.0000 0.82590  0.14570  0.90900  Biso   1.000  C
  C101     1.0000 0.85430  0.68020  0.90900  Biso   1.000  C
  C102     1.0000 0.31980  0.17410  0.90900  Biso   1.000  C
  C103     1.0000 0.49257  0.47903  0.24233  Biso   1.000  C
  C104     1.0000 0.52097  0.01353  0.24233  Biso   1.000  C
  C105     1.0000 0.98647  0.50743  0.24233  Biso   1.000  C
  C106     1.0000 0.15923  0.81237  0.57567  Biso   1.000  C
  C107     1.0000 0.18763  0.34687  0.57567  Biso   1.000  C
  C108     1.0000 0.65313  0.84077  0.57567  Biso   1.000  C
  C109     1.0000 0.04600  0.74700  0.08800  Biso   1.000  C
  C110     1.0000 0.25300  0.29900  0.08800  Biso   1.000  C
  C111     1.0000 0.70100  0.95400  0.08800  Biso   1.000  C
  C112     1.0000 0.71267  0.08033  0.42133  Biso   1.000  C
  C113     1.0000 0.91967  0.63233  0.42133  Biso   1.000  C
  C114     1.0000 0.36767  0.28733  0.42133  Biso   1.000  C
  C115     1.0000 0.37933  0.41367  0.75467  Biso   1.000  C
  C116     1.0000 0.58633  0.96567  0.75467  Biso   1.000  C
  C117     1.0000 0.03433  0.62067  0.75467  Biso   1.000  C
  C118     1.0000 0.95400  0.25300  0.91200  Biso   1.000  C
  C119     1.0000 0.74700  0.70100  0.91200  Biso   1.000  C
  C120     1.0000 0.29900  0.04600  0.91200  Biso   1.000  C
  C121     1.0000 0.62067  0.58633  0.24533  Biso   1.000  C
  C122     1.0000 0.41367  0.03433  0.24533  Biso   1.000  C
  C123     1.0000 0.96567  0.37933  0.24533  Biso   1.000  C
  C124     1.0000 0.28733  0.91967  0.57867  Biso   1.000  C
  C125     1.0000 0.08033  0.36767  0.57867  Biso   1.000  C
  C126     1.0000 0.63233  0.71267  0.57867  Biso   1.000  C
  H133     1.0000 0.99920  0.72210  0.09830  Biso   1.000  H
  H134     1.0000 0.27790  0.27710  0.09830  Biso   1.000  H
  H135     1.0000 0.72290  0.00080  0.09830  Biso   1.000  H
  H136     1.0000 0.66587  0.05543  0.43163  Biso   1.000  H
  H137     1.0000 0.94457  0.61043  0.43163  Biso   1.000  H
  H138     1.0000 0.38957  0.33413  0.43163  Biso   1.000  H
  H139     1.0000 0.33253  0.38877  0.76497  Biso   1.000  H
  H140     1.0000 0.61123  0.94377  0.76497  Biso   1.000  H
  H141     1.0000 0.05623  0.66747  0.76497  Biso   1.000  H
  H142     1.0000 0.00080  0.27790  0.90170  Biso   1.000  H
  H143     1.0000 0.72210  0.72290  0.90170  Biso   1.000  H
  H144     1.0000 0.27710  0.99920  0.90170  Biso   1.000  H
  H145     1.0000 0.66747  0.61123  0.23503  Biso   1.000  H
  H146     1.0000 0.38877  0.05623  0.23503  Biso   1.000  H
  H147     1.0000 0.94377  0.33253  0.23503  Biso   1.000  H
  H148     1.0000 0.33413  0.94457  0.56837  Biso   1.000  H
  H149     1.0000 0.05543  0.38957  0.56837  Biso   1.000  H
  H150     1.0000 0.61043  0.66587  0.56837  Biso   1.000  H
  H151     1.0000 0.05390  0.67450  0.08410  Biso   1.000  H
  H152     1.0000 0.32550  0.37940  0.08410  Biso   1.000  H
  H153     1.0000 0.62060  0.94610  0.08410  Biso   1.000  H
  H154     1.0000 0.72057  0.00783  0.41743  Biso   1.000  H
  H155     1.0000 0.99217  0.71273  0.41743  Biso   1.000  H
  H156     1.0000 0.28727  0.27943  0.41743  Biso   1.000  H
  H157     1.0000 0.38723  0.34117  0.75077  Biso   1.000  H
  H158     1.0000 0.65883  0.04607  0.75077  Biso   1.000  H
  H159     1.0000 0.95393  0.61277  0.75077  Biso   1.000  H
  H160     1.0000 0.94610  0.32550  0.91590  Biso   1.000  H
  H161     1.0000 0.67450  0.62060  0.91590  Biso   1.000  H
  H162     1.0000 0.37940  0.05390  0.91590  Biso   1.000  H
  H163     1.0000 0.61277  0.65883  0.24923  Biso   1.000  H
  H164     1.0000 0.34117  0.95393  0.24923  Biso   1.000  H
  H165     1.0000 0.04607  0.38723  0.24923  Biso   1.000  H
  H166     1.0000 0.27943  0.99217  0.58257  Biso   1.000  H
  H167     1.0000 0.00783  0.28727  0.58257  Biso   1.000  H
  H168     1.0000 0.71273  0.72057  0.58257  Biso   1.000  H
  C127     1.0000 0.97000  0.77400  0.07570  Biso   1.000  C
  C128     1.0000 0.22600  0.19600  0.07570  Biso   1.000  C
  C129     1.0000 0.80400  0.03000  0.07570  Biso   1.000  C
  C130     1.0000 0.63667  0.10733  0.40903  Biso   1.000  C
  C131     1.0000 0.89267  0.52933  0.40903  Biso   1.000  C
  C132     1.0000 0.47067  0.36333  0.40903  Biso   1.000  C
  C133     1.0000 0.30333  0.44067  0.74237  Biso   1.000  C
  C134     1.0000 0.55933  0.86267  0.74237  Biso   1.000  C
  C135     1.0000 0.13733  0.69667  0.74237  Biso   1.000  C
  C136     1.0000 0.03000  0.22600  0.92430  Biso   1.000  C
  C137     1.0000 0.77400  0.80400  0.92430  Biso   1.000  C
  C138     1.0000 0.19600  0.97000  0.92430  Biso   1.000  C
  C139     1.0000 0.69667  0.55933  0.25763  Biso   1.000  C
  C140     1.0000 0.44067  0.13733  0.25763  Biso   1.000  C
  C141     1.0000 0.86267  0.30333  0.25763  Biso   1.000  C
  C142     1.0000 0.36333  0.89267  0.59097  Biso   1.000  C
  C143     1.0000 0.10733  0.47067  0.59097  Biso   1.000  C
  C144     1.0000 0.52933  0.63667  0.59097  Biso   1.000  C
  H169     1.0000 0.02790  0.83760  0.06790  Biso   1.000  H
  H170     1.0000 0.16240  0.19030  0.06790  Biso   1.000  H
  H171     1.0000 0.80970  0.97210  0.06790  Biso   1.000  H
  H172     1.0000 0.69457  0.17093  0.40123  Biso   1.000  H
  H173     1.0000 0.82907  0.52363  0.40123  Biso   1.000  H
  H174     1.0000 0.47637  0.30543  0.40123  Biso   1.000  H
  H175     1.0000 0.36123  0.50427  0.73457  Biso   1.000  H
  H176     1.0000 0.49573  0.85697  0.73457  Biso   1.000  H
  H177     1.0000 0.14303  0.63877  0.73457  Biso   1.000  H
  H178     1.0000 0.97210  0.16240  0.93210  Biso   1.000  H
  H179     1.0000 0.83760  0.80970  0.93210  Biso   1.000  H
  H180     1.0000 0.19030  0.02790  0.93210  Biso   1.000  H
  H181     1.0000 0.63877  0.49573  0.26543  Biso   1.000  H
  H182     1.0000 0.50427  0.14303  0.26543  Biso   1.000  H
  H183     1.0000 0.85697  0.36123  0.26543  Biso   1.000  H
  H184     1.0000 0.30543  0.82907  0.59877  Biso   1.000  H
  H185     1.0000 0.17093  0.47637  0.59877  Biso   1.000  H
  H186     1.0000 0.52363  0.69457  0.59877  Biso   1.000  H
  H187     1.0000 0.92120  0.80610  0.08130  Biso   1.000  H
  H188     1.0000 0.19390  0.11510  0.08130  Biso   1.000  H
  H189     1.0000 0.88490  0.07880  0.08130  Biso   1.000  H
  H190     1.0000 0.58787  0.13943  0.41463  Biso   1.000  H
  H191     1.0000 0.86057  0.44843  0.41463  Biso   1.000  H
  H192     1.0000 0.55157  0.41213  0.41463  Biso   1.000  H
  H193     1.0000 0.25453  0.47277  0.74797  Biso   1.000  H
  H194     1.0000 0.52723  0.78177  0.74797  Biso   1.000  H
  H195     1.0000 0.21823  0.74547  0.74797  Biso   1.000  H
  H196     1.0000 0.07880  0.19390  0.91870  Biso   1.000  H
  H197     1.0000 0.80610  0.88490  0.91870  Biso   1.000  H
  H198     1.0000 0.11510  0.92120  0.91870  Biso   1.000  H
  H199     1.0000 0.74547  0.52723  0.25203  Biso   1.000  H
  H200     1.0000 0.47277  0.21823  0.25203  Biso   1.000  H
  H201     1.0000 0.78177  0.25453  0.25203  Biso   1.000  H
  H202     1.0000 0.41213  0.86057  0.58537  Biso   1.000  H
  H203     1.0000 0.13943  0.55157  0.58537  Biso   1.000  H
  H204     1.0000 0.44843  0.58787  0.58537  Biso   1.000  H
  H205     1.0000 0.91280  0.69610  0.06990  Biso   1.000  H
  H206     1.0000 0.30390  0.21670  0.06990  Biso   1.000  H
  H207     1.0000 0.78330  0.08720  0.06990  Biso   1.000  H
  H208     1.0000 0.57947  0.02943  0.40323  Biso   1.000  H
  H209     1.0000 0.97057  0.55003  0.40323  Biso   1.000  H
  H210     1.0000 0.44997  0.42053  0.40323  Biso   1.000  H
  H211     1.0000 0.24613  0.36277  0.73657  Biso   1.000  H
  H212     1.0000 0.63723  0.88337  0.73657  Biso   1.000  H
  H213     1.0000 0.11663  0.75387  0.73657  Biso   1.000  H
  H214     1.0000 0.08720  0.30390  0.93010  Biso   1.000  H
  H215     1.0000 0.69610  0.78330  0.93010  Biso   1.000  H
  H216     1.0000 0.21670  0.91280  0.93010  Biso   1.000  H
  H217     1.0000 0.75387  0.63723  0.26343  Biso   1.000  H
  H218     1.0000 0.36277  0.11663  0.26343  Biso   1.000  H
  H219     1.0000 0.88337  0.24613  0.26343  Biso   1.000  H
  H220     1.0000 0.42053  0.97057  0.59677  Biso   1.000  H
  H221     1.0000 0.02943  0.44997  0.59677  Biso   1.000  H
  H222     1.0000 0.55003  0.57947  0.59677  Biso   1.000  H
  W7       1.0000 0.33330  0.66670  0.04072  Biso   1.000  W
  W8       1.0000 0.99997  0.00003  0.37405  Biso   1.000  W
  W9       1.0000 0.66663  0.33337  0.70739  Biso   1.000  W
  W10      1.0000 0.66670  0.33330  0.95928  Biso   1.000  W
  W11      1.0000 0.33337  0.66663  0.29261  Biso   1.000  W
  W12      1.0000 0.00003  0.99997  0.62595  Biso   1.000  W
  N109     1.0000 0.48230  0.68870  0.02244  Biso   1.000  N
  N110     1.0000 0.31130  0.79360  0.02244  Biso   1.000  N
  N111     1.0000 0.20640  0.51770  0.02244  Biso   1.000  N
  N112     1.0000 0.14897  0.02203  0.35577  Biso   1.000  N
  N113     1.0000 0.97797  0.12693  0.35577  Biso   1.000  N
  N114     1.0000 0.87307  0.85103  0.35577  Biso   1.000  N
  N115     1.0000 0.81563  0.35537  0.68911  Biso   1.000  N
  N116     1.0000 0.64463  0.46027  0.68911  Biso   1.000  N
  N117     1.0000 0.53973  0.18437  0.68911  Biso   1.000  N
  N118     1.0000 0.51770  0.31130  0.97756  Biso   1.000  N
  N119     1.0000 0.68870  0.20640  0.97756  Biso   1.000  N
  N120     1.0000 0.79360  0.48230  0.97756  Biso   1.000  N
  N121     1.0000 0.18437  0.64463  0.31089  Biso   1.000  N
  N122     1.0000 0.35537  0.53973  0.31089  Biso   1.000  N
  N123     1.0000 0.46027  0.81563  0.31089  Biso   1.000  N
  N124     1.0000 0.85103  0.97797  0.64423  Biso   1.000  N
  N125     1.0000 0.02203  0.87307  0.64423  Biso   1.000  N
  N126     1.0000 0.12693  0.14897  0.64423  Biso   1.000  N
  N127     1.0000 0.45670  0.67920  0.00554  Biso   1.000  N
  N128     1.0000 0.32080  0.77750  0.00554  Biso   1.000  N
  N129     1.0000 0.22250  0.54330  0.00554  Biso   1.000  N
  N130     1.0000 0.12337  0.01253  0.33887  Biso   1.000  N
  N131     1.0000 0.98747  0.11083  0.33887  Biso   1.000  N
  N132     1.0000 0.88917  0.87663  0.33887  Biso   1.000  N
  N133     1.0000 0.79003  0.34587  0.67221  Biso   1.000  N
  N134     1.0000 0.65413  0.44417  0.67221  Biso   1.000  N
  N135     1.0000 0.55583  0.20997  0.67221  Biso   1.000  N
  N136     1.0000 0.54330  0.32080  0.99446  Biso   1.000  N
  N137     1.0000 0.67920  0.22250  0.99446  Biso   1.000  N
  N138     1.0000 0.77750  0.45670  0.99446  Biso   1.000  N
  N139     1.0000 0.20997  0.65413  0.32779  Biso   1.000  N
  N140     1.0000 0.34587  0.55583  0.32779  Biso   1.000  N
  N141     1.0000 0.44417  0.79003  0.32779  Biso   1.000  N
  N142     1.0000 0.87663  0.98747  0.66113  Biso   1.000  N
  N143     1.0000 0.01253  0.88917  0.66113  Biso   1.000  N
  N144     1.0000 0.11083  0.12337  0.66113  Biso   1.000  N
  C145     1.0000 0.66900  0.71700  0.03930  Biso   1.000  C
  C146     1.0000 0.28300  0.95200  0.03930  Biso   1.000  C
  C147     1.0000 0.04800  0.33100  0.03930  Biso   1.000  C
  C148     1.0000 0.33567  0.05033  0.37263  Biso   1.000  C
  C149     1.0000 0.94967  0.28533  0.37263  Biso   1.000  C
  C150     1.0000 0.71467  0.66433  0.37263  Biso   1.000  C
  C151     1.0000 0.00233  0.38367  0.70597  Biso   1.000  C
  C152     1.0000 0.61633  0.61867  0.70597  Biso   1.000  C
  C153     1.0000 0.38133  0.99767  0.70597  Biso   1.000  C
  C154     1.0000 0.33100  0.28300  0.96070  Biso   1.000  C
  C155     1.0000 0.71700  0.04800  0.96070  Biso   1.000  C
  C156     1.0000 0.95200  0.66900  0.96070  Biso   1.000  C
  C157     1.0000 0.99767  0.61633  0.29403  Biso   1.000  C
  C158     1.0000 0.38367  0.38133  0.29403  Biso   1.000  C
  C159     1.0000 0.61867  0.00233  0.29403  Biso   1.000  C
  C160     1.0000 0.66433  0.94967  0.62737  Biso   1.000  C
  C161     1.0000 0.05033  0.71467  0.62737  Biso   1.000  C
  C162     1.0000 0.28533  0.33567  0.62737  Biso   1.000  C
  H223     1.0000 0.69050  0.79900  0.04410  Biso   1.000  H
  H224     1.0000 0.20100  0.89150  0.04410  Biso   1.000  H
  H225     1.0000 0.10850  0.30950  0.04410  Biso   1.000  H
  H226     1.0000 0.35717  0.13233  0.37743  Biso   1.000  H
  H227     1.0000 0.86767  0.22483  0.37743  Biso   1.000  H
  H228     1.0000 0.77517  0.64283  0.37743  Biso   1.000  H
  H229     1.0000 0.02383  0.46567  0.71077  Biso   1.000  H
  H230     1.0000 0.53433  0.55817  0.71077  Biso   1.000  H
  H231     1.0000 0.44183  0.97617  0.71077  Biso   1.000  H
  H232     1.0000 0.30950  0.20100  0.95590  Biso   1.000  H
  H233     1.0000 0.79900  0.10850  0.95590  Biso   1.000  H
  H234     1.0000 0.89150  0.69050  0.95590  Biso   1.000  H
  H235     1.0000 0.97617  0.53433  0.28923  Biso   1.000  H
  H236     1.0000 0.46567  0.44183  0.28923  Biso   1.000  H
  H237     1.0000 0.55817  0.02383  0.28923  Biso   1.000  H
  H238     1.0000 0.64283  0.86767  0.62257  Biso   1.000  H
  H239     1.0000 0.13233  0.77517  0.62257  Biso   1.000  H
  H240     1.0000 0.22483  0.35717  0.62257  Biso   1.000  H
  H241     1.0000 0.74710  0.71460  0.03730  Biso   1.000  H
  H242     1.0000 0.28540  0.03250  0.03730  Biso   1.000  H
  H243     1.0000 0.96750  0.25290  0.03730  Biso   1.000  H
  H244     1.0000 0.41377  0.04793  0.37063  Biso   1.000  H
  H245     1.0000 0.95207  0.36583  0.37063  Biso   1.000  H
  H246     1.0000 0.63417  0.58623  0.37063  Biso   1.000  H
  H247     1.0000 0.08043  0.38127  0.70397  Biso   1.000  H
  H248     1.0000 0.61873  0.69917  0.70397  Biso   1.000  H
  H249     1.0000 0.30083  0.91957  0.70397  Biso   1.000  H
  H250     1.0000 0.25290  0.28540  0.96270  Biso   1.000  H
  H251     1.0000 0.71460  0.96750  0.96270  Biso   1.000  H
  H252     1.0000 0.03250  0.74710  0.96270  Biso   1.000  H
  H253     1.0000 0.91957  0.61873  0.29603  Biso   1.000  H
  H254     1.0000 0.38127  0.30083  0.29603  Biso   1.000  H
  H255     1.0000 0.69917  0.08043  0.29603  Biso   1.000  H
  H256     1.0000 0.58623  0.95207  0.62937  Biso   1.000  H
  H257     1.0000 0.04793  0.63417  0.62937  Biso   1.000  H
  H258     1.0000 0.36583  0.41377  0.62937  Biso   1.000  H
  H259     1.0000 0.61450  0.64910  0.04670  Biso   1.000  H
  H260     1.0000 0.35090  0.96540  0.04670  Biso   1.000  H
  H261     1.0000 0.03460  0.38550  0.04670  Biso   1.000  H
  H262     1.0000 0.28117  0.98243  0.38003  Biso   1.000  H
  H263     1.0000 0.01757  0.29873  0.38003  Biso   1.000  H
  H264     1.0000 0.70127  0.71883  0.38003  Biso   1.000  H
  H265     1.0000 0.94783  0.31577  0.71337  Biso   1.000  H
  H266     1.0000 0.68423  0.63207  0.71337  Biso   1.000  H
  H267     1.0000 0.36793  0.05217  0.71337  Biso   1.000  H
  H268     1.0000 0.38550  0.35090  0.95330  Biso   1.000  H
  H269     1.0000 0.64910  0.03460  0.95330  Biso   1.000  H
  H270     1.0000 0.96540  0.61450  0.95330  Biso   1.000  H
  H271     1.0000 0.05217  0.68423  0.28663  Biso   1.000  H
  H272     1.0000 0.31577  0.36793  0.28663  Biso   1.000  H
  H273     1.0000 0.63207  0.94783  0.28663  Biso   1.000  H
  H274     1.0000 0.71883  0.01757  0.61997  Biso   1.000  H
  H275     1.0000 0.98243  0.70127  0.61997  Biso   1.000  H
  H276     1.0000 0.29873  0.28117  0.61997  Biso   1.000  H
  C163     1.0000 0.60200  0.70100  0.02350  Biso   1.000  C
  C164     1.0000 0.29900  0.90100  0.02350  Biso   1.000  C
  C165     1.0000 0.09900  0.39800  0.02350  Biso   1.000  C
  C166     1.0000 0.26867  0.03433  0.35683  Biso   1.000  C
  C167     1.0000 0.96567  0.23433  0.35683  Biso   1.000  C
  C168     1.0000 0.76567  0.73133  0.35683  Biso   1.000  C
  C169     1.0000 0.93533  0.36767  0.69017  Biso   1.000  C
  C170     1.0000 0.63233  0.56767  0.69017  Biso   1.000  C
  C171     1.0000 0.43233  0.06467  0.69017  Biso   1.000  C
  C172     1.0000 0.39800  0.29900  0.97650  Biso   1.000  C
  C173     1.0000 0.70100  0.09900  0.97650  Biso   1.000  C
  C174     1.0000 0.90100  0.60200  0.97650  Biso   1.000  C
  C175     1.0000 0.06467  0.63233  0.30983  Biso   1.000  C
  C176     1.0000 0.36767  0.43233  0.30983  Biso   1.000  C
  C177     1.0000 0.56767  0.93533  0.30983  Biso   1.000  C
  C178     1.0000 0.73133  0.96567  0.64317  Biso   1.000  C
  C179     1.0000 0.03433  0.76567  0.64317  Biso   1.000  C
  C180     1.0000 0.23433  0.26867  0.64317  Biso   1.000  C
  C181     1.0000 0.64500  0.69800  0.00780  Biso   1.000  C
  C182     1.0000 0.30200  0.94700  0.00780  Biso   1.000  C
  C183     1.0000 0.05300  0.35500  0.00780  Biso   1.000  C
  C184     1.0000 0.31167  0.03133  0.34113  Biso   1.000  C
  C185     1.0000 0.96867  0.28033  0.34113  Biso   1.000  C
  C186     1.0000 0.71967  0.68833  0.34113  Biso   1.000  C
  C187     1.0000 0.97833  0.36467  0.67447  Biso   1.000  C
  C188     1.0000 0.63533  0.61367  0.67447  Biso   1.000  C
  C189     1.0000 0.38633  0.02167  0.67447  Biso   1.000  C
  C190     1.0000 0.35500  0.30200  0.99220  Biso   1.000  C
  C191     1.0000 0.69800  0.05300  0.99220  Biso   1.000  C
  C192     1.0000 0.94700  0.64500  0.99220  Biso   1.000  C
  C193     1.0000 0.02167  0.63533  0.32553  Biso   1.000  C
  C194     1.0000 0.36467  0.38633  0.32553  Biso   1.000  C
  C195     1.0000 0.61367  0.97833  0.32553  Biso   1.000  C
  C196     1.0000 0.68833  0.96867  0.65887  Biso   1.000  C
  C197     1.0000 0.03133  0.71967  0.65887  Biso   1.000  C
  C198     1.0000 0.28033  0.31167  0.65887  Biso   1.000  C
  H277     1.0000 0.72470  0.70790  0.00520  Biso   1.000  H
  H278     1.0000 0.29210  0.01680  0.00520  Biso   1.000  H
  H279     1.0000 0.98320  0.27530  0.00520  Biso   1.000  H
  H280     1.0000 0.39137  0.04123  0.33853  Biso   1.000  H
  H281     1.0000 0.95877  0.35013  0.33853  Biso   1.000  H
  H282     1.0000 0.64987  0.60863  0.33853  Biso   1.000  H
  H283     1.0000 0.05803  0.37457  0.67187  Biso   1.000  H
  H284     1.0000 0.62543  0.68347  0.67187  Biso   1.000  H
  H285     1.0000 0.31653  0.94197  0.67187  Biso   1.000  H
  H286     1.0000 0.27530  0.29210  0.99480  Biso   1.000  H
  H287     1.0000 0.70790  0.98320  0.99480  Biso   1.000  H
  H288     1.0000 0.01680  0.72470  0.99480  Biso   1.000  H
  H289     1.0000 0.94197  0.62543  0.32813  Biso   1.000  H
  H290     1.0000 0.37457  0.31653  0.32813  Biso   1.000  H
  H291     1.0000 0.68347  0.05803  0.32813  Biso   1.000  H
  H292     1.0000 0.60863  0.95877  0.66147  Biso   1.000  H
  H293     1.0000 0.04123  0.64987  0.66147  Biso   1.000  H
  H294     1.0000 0.35013  0.39137  0.66147  Biso   1.000  H
  C199     1.0000 0.55400  0.68000  0.99700  Biso   1.000  C
  C200     1.0000 0.32000  0.87400  0.99700  Biso   1.000  C
  C201     1.0000 0.12600  0.44600  0.99700  Biso   1.000  C
  C202     1.0000 0.22067  0.01333  0.33033  Biso   1.000  C
  C203     1.0000 0.98667  0.20733  0.33033  Biso   1.000  C
  C204     1.0000 0.79267  0.77933  0.33033  Biso   1.000  C
  C205     1.0000 0.88733  0.34667  0.66367  Biso   1.000  C
  C206     1.0000 0.65333  0.54067  0.66367  Biso   1.000  C
  C207     1.0000 0.45933  0.11267  0.66367  Biso   1.000  C
  C208     1.0000 0.44600  0.32000  0.00300  Biso   1.000  C
  C209     1.0000 0.68000  0.12600  0.00300  Biso   1.000  C
  C210     1.0000 0.87400  0.55400  0.00300  Biso   1.000  C
  C211     1.0000 0.11267  0.65333  0.33633  Biso   1.000  C
  C212     1.0000 0.34667  0.45933  0.33633  Biso   1.000  C
  C213     1.0000 0.54067  0.88733  0.33633  Biso   1.000  C
  C214     1.0000 0.77933  0.98667  0.66967  Biso   1.000  C
  C215     1.0000 0.01333  0.79267  0.66967  Biso   1.000  C
  C216     1.0000 0.20733  0.22067  0.66967  Biso   1.000  C
  C217     1.0000 0.55100  0.66400  0.97900  Biso   1.000  C
  C218     1.0000 0.33600  0.88700  0.97900  Biso   1.000  C
  C219     1.0000 0.11300  0.44900  0.97900  Biso   1.000  C
  C220     1.0000 0.21767  0.99733  0.31233  Biso   1.000  C
  C221     1.0000 0.00267  0.22033  0.31233  Biso   1.000  C
  C222     1.0000 0.77967  0.78233  0.31233  Biso   1.000  C
  C223     1.0000 0.88433  0.33067  0.64567  Biso   1.000  C
  C224     1.0000 0.66933  0.55367  0.64567  Biso   1.000  C
  C225     1.0000 0.44633  0.11567  0.64567  Biso   1.000  C
  C226     1.0000 0.44900  0.33600  0.02100  Biso   1.000  C
  C227     1.0000 0.66400  0.11300  0.02100  Biso   1.000  C
  C228     1.0000 0.88700  0.55100  0.02100  Biso   1.000  C
  C229     1.0000 0.11567  0.66933  0.35433  Biso   1.000  C
  C230     1.0000 0.33067  0.44633  0.35433  Biso   1.000  C
  C231     1.0000 0.55367  0.88433  0.35433  Biso   1.000  C
  C232     1.0000 0.78233  0.00267  0.68767  Biso   1.000  C
  C233     1.0000 0.99733  0.77967  0.68767  Biso   1.000  C
  C234     1.0000 0.22033  0.21767  0.68767  Biso   1.000  C
  H295     1.0000 0.49260  0.57540  0.97620  Biso   1.000  H
  H296     1.0000 0.42460  0.91720  0.97620  Biso   1.000  H
  H297     1.0000 0.08280  0.50740  0.97620  Biso   1.000  H
  H298     1.0000 0.15927  0.90873  0.30953  Biso   1.000  H
  H299     1.0000 0.09127  0.25053  0.30953  Biso   1.000  H
  H300     1.0000 0.74947  0.84073  0.30953  Biso   1.000  H
  H301     1.0000 0.82593  0.24207  0.64287  Biso   1.000  H
  H302     1.0000 0.75793  0.58387  0.64287  Biso   1.000  H
  H303     1.0000 0.41613  0.17407  0.64287  Biso   1.000  H
  H304     1.0000 0.50740  0.42460  0.02380  Biso   1.000  H
  H305     1.0000 0.57540  0.08280  0.02380  Biso   1.000  H
  H306     1.0000 0.91720  0.49260  0.02380  Biso   1.000  H
  H307     1.0000 0.17407  0.75793  0.35713  Biso   1.000  H
  H308     1.0000 0.24207  0.41613  0.35713  Biso   1.000  H
  H309     1.0000 0.58387  0.82593  0.35713  Biso   1.000  H
  H310     1.0000 0.84073  0.09127  0.69047  Biso   1.000  H
  H311     1.0000 0.90873  0.74947  0.69047  Biso   1.000  H
  H312     1.0000 0.25053  0.15927  0.69047  Biso   1.000  H
  H313     1.0000 0.63630  0.68770  0.97510  Biso   1.000  H
  H314     1.0000 0.31230  0.94860  0.97510  Biso   1.000  H
  H315     1.0000 0.05140  0.36370  0.97510  Biso   1.000  H
  H316     1.0000 0.30297  0.02103  0.30843  Biso   1.000  H
  H317     1.0000 0.97897  0.28193  0.30843  Biso   1.000  H
  H318     1.0000 0.71807  0.69703  0.30843  Biso   1.000  H
  H319     1.0000 0.96963  0.35437  0.64177  Biso   1.000  H
  H320     1.0000 0.64563  0.61527  0.64177  Biso   1.000  H
  H321     1.0000 0.38473  0.03037  0.64177  Biso   1.000  H
  H322     1.0000 0.36370  0.31230  0.02490  Biso   1.000  H
  H323     1.0000 0.68770  0.05140  0.02490  Biso   1.000  H
  H324     1.0000 0.94860  0.63630  0.02490  Biso   1.000  H
  H325     1.0000 0.03037  0.64563  0.35823  Biso   1.000  H
  H326     1.0000 0.35437  0.38473  0.35823  Biso   1.000  H
  H327     1.0000 0.61527  0.96963  0.35823  Biso   1.000  H
  H328     1.0000 0.69703  0.97897  0.69157  Biso   1.000  H
  H329     1.0000 0.02103  0.71807  0.69157  Biso   1.000  H
  H330     1.0000 0.28193  0.30297  0.69157  Biso   1.000  H
  H331     1.0000 0.52340  0.71800  0.97390  Biso   1.000  H
  H332     1.0000 0.28200  0.80540  0.97390  Biso   1.000  H
  H333     1.0000 0.19460  0.47660  0.97390  Biso   1.000  H
  H334     1.0000 0.19007  0.05133  0.30723  Biso   1.000  H
  H335     1.0000 0.94867  0.13873  0.30723  Biso   1.000  H
  H336     1.0000 0.86127  0.80993  0.30723  Biso   1.000  H
  H337     1.0000 0.85673  0.38467  0.64057  Biso   1.000  H
  H338     1.0000 0.61533  0.47207  0.64057  Biso   1.000  H
  H339     1.0000 0.52793  0.14327  0.64057  Biso   1.000  H
  H340     1.0000 0.47660  0.28200  0.02610  Biso   1.000  H
  H341     1.0000 0.71800  0.19460  0.02610  Biso   1.000  H
  H342     1.0000 0.80540  0.52340  0.02610  Biso   1.000  H
  H343     1.0000 0.14327  0.61533  0.35943  Biso   1.000  H
  H344     1.0000 0.38467  0.52793  0.35943  Biso   1.000  H
  H345     1.0000 0.47207  0.85673  0.35943  Biso   1.000  H
  H346     1.0000 0.80993  0.94867  0.69277  Biso   1.000  H
  H347     1.0000 0.05133  0.86127  0.69277  Biso   1.000  H
  H348     1.0000 0.13873  0.19007  0.69277  Biso   1.000  H
  B7       1.0000 0.33330  0.66670  0.99920  Biso   1.000  B
  B8       1.0000 0.99997  0.00003  0.33253  Biso   1.000  B
  B9       1.0000 0.66663  0.33337  0.66587  Biso   1.000  B
  B10      1.0000 0.66670  0.33330  0.00080  Biso   1.000  B
  B11      1.0000 0.33337  0.66663  0.33413  Biso   1.000  B
  B12      1.0000 0.00003  0.99997  0.66747  Biso   1.000  B
  H349     1.0000 0.33330  0.66670  0.98520  Biso   1.000  H
  H350     1.0000 0.99997  0.00003  0.31853  Biso   1.000  H
  H351     1.0000 0.66663  0.33337  0.65187  Biso   1.000  H
  H352     1.0000 0.66670  0.33330  0.01480  Biso   1.000  H
  H353     1.0000 0.33337  0.66663  0.34813  Biso   1.000  H
  H354     1.0000 0.00003  0.99997  0.68147  Biso   1.000  H
  S19      1.0000 0.48760  0.85440  0.05224  Biso   1.000  S
  S20      1.0000 0.14560  0.63320  0.05224  Biso   1.000  S
  S21      1.0000 0.36680  0.51240  0.05224  Biso   1.000  S
  S22      1.0000 0.15427  0.18773  0.38557  Biso   1.000  S
  S23      1.0000 0.81227  0.96653  0.38557  Biso   1.000  S
  S24      1.0000 0.03347  0.84573  0.38557  Biso   1.000  S
  S25      1.0000 0.82093  0.52107  0.71891  Biso   1.000  S
  S26      1.0000 0.47893  0.29987  0.71891  Biso   1.000  S
  S27      1.0000 0.70013  0.17907  0.71891  Biso   1.000  S
  S28      1.0000 0.51240  0.14560  0.94776  Biso   1.000  S
  S29      1.0000 0.85440  0.36680  0.94776  Biso   1.000  S
  S30      1.0000 0.63320  0.48760  0.94776  Biso   1.000  S
  S31      1.0000 0.17907  0.47893  0.28109  Biso   1.000  S
  S32      1.0000 0.52107  0.70013  0.28109  Biso   1.000  S
  S33      1.0000 0.29987  0.82093  0.28109  Biso   1.000  S
  S34      1.0000 0.84573  0.81227  0.61443  Biso   1.000  S
  S35      1.0000 0.18773  0.03347  0.61443  Biso   1.000  S
  S36      1.0000 0.96653  0.15427  0.61443  Biso   1.000  S
  N145     1.0000 0.33330  0.66670  0.08880  Biso   1.000  N
  N146     1.0000 0.99997  0.00003  0.42213  Biso   1.000  N
  N147     1.0000 0.66663  0.33337  0.75547  Biso   1.000  N
  N148     1.0000 0.66670  0.33330  0.91120  Biso   1.000  N
  N149     1.0000 0.33337  0.66663  0.24453  Biso   1.000  N
  N150     1.0000 0.00003  0.99997  0.57787  Biso   1.000  N
  N151     1.0000 0.33330  0.66670  0.10310  Biso   1.000  N
  N152     1.0000 0.99997  0.00003  0.43643  Biso   1.000  N
  N153     1.0000 0.66663  0.33337  0.76977  Biso   1.000  N
  N154     1.0000 0.66670  0.33330  0.89690  Biso   1.000  N
  N155     1.0000 0.33337  0.66663  0.23023  Biso   1.000  N
  N156     1.0000 0.00003  0.99997  0.56357  Biso   1.000  N
  N157     1.0000 0.33330  0.66670  0.12150  Biso   1.000  N
  N158     1.0000 0.99997  0.00003  0.45483  Biso   1.000  N
  N159     1.0000 0.66663  0.33337  0.78817  Biso   1.000  N
  N160     1.0000 0.66670  0.33330  0.87850  Biso   1.000  N
  N161     1.0000 0.33337  0.66663  0.21183  Biso   1.000  N
  N162     1.0000 0.00003  0.99997  0.54517  Biso   1.000  N
