data_image0
_cell_length_a       14.591
_cell_length_b       14.19
_cell_length_c       21.788
_cell_angle_alpha    90
_cell_angle_beta     98.372
_cell_angle_gamma    90

_symmetry_space_group_name_H-M    "P 1"
_symmetry_int_tables_number       1

loop_
  _symmetry_equiv_pos_as_xyz
  'x, y, z'

loop_
  _atom_site_label
  _atom_site_occupancy
  _atom_site_fract_x
  _atom_site_fract_y
  _atom_site_fract_z
  _atom_site_thermal_displace_type
  _atom_site_B_iso_or_equiv
  _atom_site_type_symbol
  C1       1.0000 0.35390  0.75120  0.40736  Biso   1.000  C
  C2       1.0000 0.14610  0.25120  0.09264  Biso   1.000  C
  C3       1.0000 0.64610  0.24880  0.59264  Biso   1.000  C
  C4       1.0000 0.85390  0.74880  0.90736  Biso   1.000  C
  H1       1.0000 0.32130  0.68930  0.40050  Biso   1.000  H
  H2       1.0000 0.17870  0.18930  0.09950  Biso   1.000  H
  H3       1.0000 0.67870  0.31070  0.59950  Biso   1.000  H
  H4       1.0000 0.82130  0.81070  0.90050  Biso   1.000  H
  C5       1.0000 0.38730  0.75670  0.47705  Biso   1.000  C
  C6       1.0000 0.11270  0.25670  0.02295  Biso   1.000  C
  C7       1.0000 0.61270  0.24330  0.52295  Biso   1.000  C
  C8       1.0000 0.88730  0.74330  0.97705  Biso   1.000  C
  H5       1.0000 0.43360  0.70650  0.48900  Biso   1.000  H
  H6       1.0000 0.06640  0.20650  0.01100  Biso   1.000  H
  H7       1.0000 0.56640  0.29350  0.51100  Biso   1.000  H
  H8       1.0000 0.93360  0.79350  0.98900  Biso   1.000  H
  H9       1.0000 0.41790  0.81820  0.48700  Biso   1.000  H
  H10      1.0000 0.08210  0.31820  0.01300  Biso   1.000  H
  H11      1.0000 0.58210  0.18180  0.51300  Biso   1.000  H
  H12      1.0000 0.91790  0.68180  0.98700  Biso   1.000  H
  C9       1.0000 0.30750  0.74540  0.51420  Biso   1.000  C
  C10      1.0000 0.19250  0.24540  0.98580  Biso   1.000  C
  C11      1.0000 0.69250  0.25460  0.48580  Biso   1.000  C
  C12      1.0000 0.80750  0.75460  0.01420  Biso   1.000  C
  H13      1.0000 0.28150  0.68110  0.50780  Biso   1.000  H
  H14      1.0000 0.21850  0.18110  0.99220  Biso   1.000  H
  H15      1.0000 0.71850  0.31890  0.49220  Biso   1.000  H
  H16      1.0000 0.78150  0.81890  0.00780  Biso   1.000  H
  H17      1.0000 0.33100  0.75290  0.55880  Biso   1.000  H
  H18      1.0000 0.16900  0.25290  0.94120  Biso   1.000  H
  H19      1.0000 0.66900  0.24710  0.44120  Biso   1.000  H
  H20      1.0000 0.83100  0.74710  0.05880  Biso   1.000  H
  C13      1.0000 0.23160  0.81690  0.49530  Biso   1.000  C
  C14      1.0000 0.26840  0.31690  0.00470  Biso   1.000  C
  C15      1.0000 0.76840  0.18310  0.50470  Biso   1.000  C
  C16      1.0000 0.73160  0.68310  0.99530  Biso   1.000  C
  H21      1.0000 0.17890  0.80420  0.51800  Biso   1.000  H
  H22      1.0000 0.32110  0.30420  0.98200  Biso   1.000  H
  H23      1.0000 0.82110  0.19580  0.48200  Biso   1.000  H
  H24      1.0000 0.67890  0.69580  0.01800  Biso   1.000  H
  H25      1.0000 0.25520  0.88100  0.50660  Biso   1.000  H
  H26      1.0000 0.24480  0.38100  0.99340  Biso   1.000  H
  H27      1.0000 0.74480  0.11900  0.49340  Biso   1.000  H
  H28      1.0000 0.75520  0.61900  0.00660  Biso   1.000  H
  C17      1.0000 0.19900  0.81260  0.42640  Biso   1.000  C
  C18      1.0000 0.30100  0.31260  0.07360  Biso   1.000  C
  C19      1.0000 0.80100  0.18740  0.57360  Biso   1.000  C
  C20      1.0000 0.69900  0.68740  0.92640  Biso   1.000  C
  H29      1.0000 0.15210  0.86240  0.41480  Biso   1.000  H
  H30      1.0000 0.34790  0.36240  0.08520  Biso   1.000  H
  H31      1.0000 0.84790  0.13760  0.58520  Biso   1.000  H
  H32      1.0000 0.65210  0.63760  0.91480  Biso   1.000  H
  H33      1.0000 0.16920  0.75090  0.41580  Biso   1.000  H
  H34      1.0000 0.33080  0.25090  0.08420  Biso   1.000  H
  H35      1.0000 0.83080  0.24910  0.58420  Biso   1.000  H
  H36      1.0000 0.66920  0.74910  0.91580  Biso   1.000  H
  C21      1.0000 0.27950  0.82610  0.38928  Biso   1.000  C
  C22      1.0000 0.22050  0.32610  0.11072  Biso   1.000  C
  C23      1.0000 0.72050  0.17390  0.61072  Biso   1.000  C
  C24      1.0000 0.77950  0.67390  0.88928  Biso   1.000  C
  H37      1.0000 0.25640  0.82130  0.34440  Biso   1.000  H
  H38      1.0000 0.24360  0.32130  0.15560  Biso   1.000  H
  H39      1.0000 0.74360  0.17870  0.65560  Biso   1.000  H
  H40      1.0000 0.75640  0.67870  0.84440  Biso   1.000  H
  H41      1.0000 0.30670  0.88950  0.39750  Biso   1.000  H
  H42      1.0000 0.19330  0.38950  0.10250  Biso   1.000  H
  H43      1.0000 0.69330  0.11050  0.60250  Biso   1.000  H
  H44      1.0000 0.80670  0.61050  0.89750  Biso   1.000  H
  C25      1.0000 0.47760  0.62330  0.35347  Biso   1.000  C
  C26      1.0000 0.02240  0.12330  0.14653  Biso   1.000  C
  C27      1.0000 0.52240  0.37670  0.64653  Biso   1.000  C
  C28      1.0000 0.97760  0.87670  0.85347  Biso   1.000  C
  H45      1.0000 0.53430  0.62090  0.33270  Biso   1.000  H
  H46      1.0000 0.96570  0.12090  0.16730  Biso   1.000  H
  H47      1.0000 0.46570  0.37910  0.66730  Biso   1.000  H
  H48      1.0000 0.03430  0.87910  0.83270  Biso   1.000  H
  C29      1.0000 0.50380  0.57390  0.41563  Biso   1.000  C
  C30      1.0000 0.99620  0.07390  0.08437  Biso   1.000  C
  C31      1.0000 0.49620  0.42610  0.58437  Biso   1.000  C
  C32      1.0000 0.00380  0.92610  0.91563  Biso   1.000  C
  H49      1.0000 0.55350  0.61000  0.44110  Biso   1.000  H
  H50      1.0000 0.94650  0.11000  0.05890  Biso   1.000  H
  H51      1.0000 0.44650  0.39000  0.55890  Biso   1.000  H
  H52      1.0000 0.05350  0.89000  0.94110  Biso   1.000  H
  H53      1.0000 0.44940  0.57270  0.43800  Biso   1.000  H
  H54      1.0000 0.05060  0.07270  0.06200  Biso   1.000  H
  H55      1.0000 0.55060  0.42730  0.56200  Biso   1.000  H
  H56      1.0000 0.94940  0.92730  0.93800  Biso   1.000  H
  C33      1.0000 0.53690  0.47350  0.40768  Biso   1.000  C
  C34      1.0000 0.96310  0.97350  0.09232  Biso   1.000  C
  C35      1.0000 0.46310  0.52650  0.59232  Biso   1.000  C
  C36      1.0000 0.03690  0.02650  0.90768  Biso   1.000  C
  H57      1.0000 0.59460  0.47500  0.38870  Biso   1.000  H
  H58      1.0000 0.90540  0.97500  0.11130  Biso   1.000  H
  H59      1.0000 0.40540  0.52500  0.61130  Biso   1.000  H
  H60      1.0000 0.09460  0.02500  0.88870  Biso   1.000  H
  H61      1.0000 0.55120  0.44330  0.44890  Biso   1.000  H
  H62      1.0000 0.94880  0.94330  0.05110  Biso   1.000  H
  H63      1.0000 0.44880  0.55670  0.55110  Biso   1.000  H
  H64      1.0000 0.05120  0.05670  0.94890  Biso   1.000  H
  C37      1.0000 0.46470  0.41560  0.36720  Biso   1.000  C
  C38      1.0000 0.03530  0.91560  0.13280  Biso   1.000  C
  C39      1.0000 0.53530  0.58440  0.63280  Biso   1.000  C
  C40      1.0000 0.96470  0.08440  0.86720  Biso   1.000  C
  H65      1.0000 0.40960  0.40770  0.38840  Biso   1.000  H
  H66      1.0000 0.09040  0.90770  0.11160  Biso   1.000  H
  H67      1.0000 0.59040  0.59230  0.61160  Biso   1.000  H
  H68      1.0000 0.90960  0.09230  0.88840  Biso   1.000  H
  H69      1.0000 0.49010  0.35230  0.36070  Biso   1.000  H
  H70      1.0000 0.00990  0.85230  0.13930  Biso   1.000  H
  H71      1.0000 0.50990  0.64770  0.63930  Biso   1.000  H
  H72      1.0000 0.99010  0.14770  0.86070  Biso   1.000  H
  C41      1.0000 0.43580  0.46280  0.30450  Biso   1.000  C
  C42      1.0000 0.06420  0.96280  0.19550  Biso   1.000  C
  C43      1.0000 0.56420  0.53720  0.69550  Biso   1.000  C
  C44      1.0000 0.93580  0.03720  0.80450  Biso   1.000  C
  H73      1.0000 0.38460  0.42650  0.28060  Biso   1.000  H
  H74      1.0000 0.11540  0.92650  0.21940  Biso   1.000  H
  H75      1.0000 0.61540  0.57350  0.71940  Biso   1.000  H
  H76      1.0000 0.88460  0.07350  0.78060  Biso   1.000  H
  H77      1.0000 0.48870  0.46250  0.28070  Biso   1.000  H
  H78      1.0000 0.01130  0.96250  0.21930  Biso   1.000  H
  H79      1.0000 0.51130  0.53750  0.71930  Biso   1.000  H
  H80      1.0000 0.98870  0.03750  0.78070  Biso   1.000  H
  C45      1.0000 0.40400  0.56510  0.31219  Biso   1.000  C
  C46      1.0000 0.09600  0.06510  0.18781  Biso   1.000  C
  C47      1.0000 0.59600  0.43490  0.68781  Biso   1.000  C
  C48      1.0000 0.90400  0.93490  0.81219  Biso   1.000  C
  H81      1.0000 0.39070  0.59520  0.27080  Biso   1.000  H
  H82      1.0000 0.10930  0.09520  0.22920  Biso   1.000  H
  H83      1.0000 0.60930  0.40480  0.72920  Biso   1.000  H
  H84      1.0000 0.89070  0.90480  0.77080  Biso   1.000  H
  H85      1.0000 0.34600  0.56480  0.33080  Biso   1.000  H
  H86      1.0000 0.15400  0.06480  0.16920  Biso   1.000  H
  H87      1.0000 0.65400  0.43520  0.66920  Biso   1.000  H
  H88      1.0000 0.84600  0.93520  0.83080  Biso   1.000  H
  C49      1.0000 0.54740  0.80670  0.40244  Biso   1.000  C
  C50      1.0000 0.95260  0.30670  0.09756  Biso   1.000  C
  C51      1.0000 0.45260  0.19330  0.59756  Biso   1.000  C
  C52      1.0000 0.04740  0.69330  0.90244  Biso   1.000  C
  H89      1.0000 0.55230  0.78150  0.44560  Biso   1.000  H
  H90      1.0000 0.94770  0.28150  0.05440  Biso   1.000  H
  H91      1.0000 0.44770  0.21850  0.55440  Biso   1.000  H
  H92      1.0000 0.05230  0.71850  0.94560  Biso   1.000  H
  C53      1.0000 0.53210  0.91380  0.40538  Biso   1.000  C
  C54      1.0000 0.96790  0.41380  0.09462  Biso   1.000  C
  C55      1.0000 0.46790  0.08620  0.59462  Biso   1.000  C
  C56      1.0000 0.03210  0.58620  0.90538  Biso   1.000  C
  H93      1.0000 0.52390  0.94000  0.36280  Biso   1.000  H
  H94      1.0000 0.97610  0.44000  0.13720  Biso   1.000  H
  H95      1.0000 0.47610  0.06000  0.63720  Biso   1.000  H
  H96      1.0000 0.02390  0.56000  0.86280  Biso   1.000  H
  H97      1.0000 0.47470  0.92640  0.42330  Biso   1.000  H
  H98      1.0000 0.02530  0.42640  0.07670  Biso   1.000  H
  H99      1.0000 0.52530  0.07360  0.57670  Biso   1.000  H
  H100     1.0000 0.97470  0.57360  0.92330  Biso   1.000  H
  C57      1.0000 0.61350  0.96300  0.44467  Biso   1.000  C
  C58      1.0000 0.88650  0.46300  0.05533  Biso   1.000  C
  C59      1.0000 0.38650  0.03700  0.55533  Biso   1.000  C
  C60      1.0000 0.11350  0.53700  0.94467  Biso   1.000  C
  H101     1.0000 0.60270  0.03190  0.44380  Biso   1.000  H
  H102     1.0000 0.89730  0.53190  0.05620  Biso   1.000  H
  H103     1.0000 0.39730  0.96810  0.55620  Biso   1.000  H
  H104     1.0000 0.10270  0.46810  0.94380  Biso   1.000  H
  H105     1.0000 0.61770  0.94170  0.48820  Biso   1.000  H
  H106     1.0000 0.88230  0.44170  0.01180  Biso   1.000  H
  H107     1.0000 0.38230  0.05830  0.51180  Biso   1.000  H
  H108     1.0000 0.11770  0.55830  0.98820  Biso   1.000  H
  C61      1.0000 0.70410  0.94210  0.42110  Biso   1.000  C
  C62      1.0000 0.79590  0.44210  0.07890  Biso   1.000  C
  C63      1.0000 0.29590  0.05790  0.57890  Biso   1.000  C
  C64      1.0000 0.20410  0.55790  0.92110  Biso   1.000  C
  H109     1.0000 0.75580  0.97100  0.44930  Biso   1.000  H
  H110     1.0000 0.74420  0.47100  0.05070  Biso   1.000  H
  H111     1.0000 0.24420  0.02900  0.55070  Biso   1.000  H
  H112     1.0000 0.25580  0.52900  0.94930  Biso   1.000  H
  H113     1.0000 0.70300  0.97040  0.37950  Biso   1.000  H
  H114     1.0000 0.79700  0.47040  0.12050  Biso   1.000  H
  H115     1.0000 0.29700  0.02960  0.62050  Biso   1.000  H
  H116     1.0000 0.20300  0.52960  0.87950  Biso   1.000  H
  C65      1.0000 0.72020  0.83600  0.41730  Biso   1.000  C
  C66      1.0000 0.77980  0.33600  0.08270  Biso   1.000  C
  C67      1.0000 0.27980  0.16400  0.58270  Biso   1.000  C
  C68      1.0000 0.22020  0.66400  0.91730  Biso   1.000  C
  H117     1.0000 0.72950  0.80920  0.45970  Biso   1.000  H
  H118     1.0000 0.77050  0.30920  0.04030  Biso   1.000  H
  H119     1.0000 0.27050  0.19080  0.54030  Biso   1.000  H
  H120     1.0000 0.22950  0.69080  0.95970  Biso   1.000  H
  H121     1.0000 0.77730  0.82450  0.39880  Biso   1.000  H
  H122     1.0000 0.72270  0.32450  0.10120  Biso   1.000  H
  H123     1.0000 0.22270  0.17550  0.60120  Biso   1.000  H
  H124     1.0000 0.27730  0.67550  0.89880  Biso   1.000  H
  C69      1.0000 0.63890  0.78590  0.37842  Biso   1.000  C
  C70      1.0000 0.86110  0.28590  0.12158  Biso   1.000  C
  C71      1.0000 0.36110  0.21410  0.62158  Biso   1.000  C
  C72      1.0000 0.13890  0.71410  0.87842  Biso   1.000  C
  H125     1.0000 0.65010  0.71710  0.37960  Biso   1.000  H
  H126     1.0000 0.84990  0.21710  0.12040  Biso   1.000  H
  H127     1.0000 0.34990  0.28290  0.62040  Biso   1.000  H
  H128     1.0000 0.15010  0.78290  0.87960  Biso   1.000  H
  H129     1.0000 0.63440  0.80690  0.33470  Biso   1.000  H
  H130     1.0000 0.86560  0.30690  0.16530  Biso   1.000  H
  H131     1.0000 0.36560  0.19310  0.66530  Biso   1.000  H
  H132     1.0000 0.13440  0.69310  0.83470  Biso   1.000  H
  C73      1.0000 0.58810  0.85190  0.18532  Biso   1.000  C
  C74      1.0000 0.91190  0.35190  0.31468  Biso   1.000  C
  C75      1.0000 0.41190  0.14810  0.81468  Biso   1.000  C
  C76      1.0000 0.08810  0.64810  0.68532  Biso   1.000  C
  H133     1.0000 0.62520  0.80340  0.21140  Biso   1.000  H
  H134     1.0000 0.87480  0.30340  0.28860  Biso   1.000  H
  H135     1.0000 0.37480  0.19660  0.78860  Biso   1.000  H
  H136     1.0000 0.12520  0.69660  0.71140  Biso   1.000  H
  C77      1.0000 0.59640  0.94230  0.22421  Biso   1.000  C
  C78      1.0000 0.90360  0.44230  0.27579  Biso   1.000  C
  C79      1.0000 0.40360  0.05770  0.77579  Biso   1.000  C
  C80      1.0000 0.09640  0.55770  0.72421  Biso   1.000  C
  H137     1.0000 0.56730  0.93240  0.26200  Biso   1.000  H
  H138     1.0000 0.93270  0.43240  0.23800  Biso   1.000  H
  H139     1.0000 0.43270  0.06760  0.73800  Biso   1.000  H
  H140     1.0000 0.06730  0.56760  0.76200  Biso   1.000  H
  H141     1.0000 0.56290  0.99400  0.20000  Biso   1.000  H
  H142     1.0000 0.93710  0.49400  0.30000  Biso   1.000  H
  H143     1.0000 0.43710  0.00600  0.80000  Biso   1.000  H
  H144     1.0000 0.06290  0.50600  0.70000  Biso   1.000  H
  C81      1.0000 0.69820  0.97000  0.24276  Biso   1.000  C
  C82      1.0000 0.80180  0.47000  0.25724  Biso   1.000  C
  C83      1.0000 0.30180  0.03000  0.75724  Biso   1.000  C
  C84      1.0000 0.19820  0.53000  0.74276  Biso   1.000  C
  H145     1.0000 0.70200  0.02900  0.26730  Biso   1.000  H
  H146     1.0000 0.79800  0.52900  0.23270  Biso   1.000  H
  H147     1.0000 0.29800  0.97100  0.73270  Biso   1.000  H
  H148     1.0000 0.20200  0.47100  0.76730  Biso   1.000  H
  H149     1.0000 0.73100  0.91990  0.26890  Biso   1.000  H
  H150     1.0000 0.76900  0.41990  0.23110  Biso   1.000  H
  H151     1.0000 0.26900  0.08010  0.73110  Biso   1.000  H
  H152     1.0000 0.23100  0.58010  0.76890  Biso   1.000  H
  C85      1.0000 0.74470  0.98450  0.18490  Biso   1.000  C
  C86      1.0000 0.75530  0.48450  0.31510  Biso   1.000  C
  C87      1.0000 0.25530  0.01550  0.81510  Biso   1.000  C
  C88      1.0000 0.24470  0.51550  0.68490  Biso   1.000  C
  H153     1.0000 0.71450  0.03740  0.16010  Biso   1.000  H
  H154     1.0000 0.78550  0.53740  0.33990  Biso   1.000  H
  H155     1.0000 0.28550  0.96260  0.83990  Biso   1.000  H
  H156     1.0000 0.21450  0.46260  0.66010  Biso   1.000  H
  H157     1.0000 0.81080  0.00090  0.19740  Biso   1.000  H
  H158     1.0000 0.68920  0.50090  0.30260  Biso   1.000  H
  H159     1.0000 0.18920  0.99910  0.80260  Biso   1.000  H
  H160     1.0000 0.31080  0.49910  0.69740  Biso   1.000  H
  C89      1.0000 0.73750  0.89610  0.14620  Biso   1.000  C
  C90      1.0000 0.76250  0.39610  0.35380  Biso   1.000  C
  C91      1.0000 0.26250  0.10390  0.85380  Biso   1.000  C
  C92      1.0000 0.23750  0.60390  0.64620  Biso   1.000  C
  H161     1.0000 0.77300  0.84500  0.16970  Biso   1.000  H
  H162     1.0000 0.72700  0.34500  0.33030  Biso   1.000  H
  H163     1.0000 0.22700  0.15500  0.83030  Biso   1.000  H
  H164     1.0000 0.27300  0.65500  0.66970  Biso   1.000  H
  H165     1.0000 0.76510  0.90750  0.10790  Biso   1.000  H
  H166     1.0000 0.73490  0.40750  0.39210  Biso   1.000  H
  H167     1.0000 0.23490  0.09250  0.89210  Biso   1.000  H
  H168     1.0000 0.26510  0.59250  0.60790  Biso   1.000  H
  C93      1.0000 0.63650  0.86500  0.12850  Biso   1.000  C
  C94      1.0000 0.86350  0.36500  0.37150  Biso   1.000  C
  C95      1.0000 0.36350  0.13500  0.87150  Biso   1.000  C
  C96      1.0000 0.13650  0.63500  0.62850  Biso   1.000  C
  H169     1.0000 0.60280  0.91290  0.10090  Biso   1.000  H
  H170     1.0000 0.89720  0.41290  0.39910  Biso   1.000  H
  H171     1.0000 0.39720  0.08710  0.89910  Biso   1.000  H
  H172     1.0000 0.10280  0.58710  0.60090  Biso   1.000  H
  H173     1.0000 0.63480  0.80490  0.10530  Biso   1.000  H
  H174     1.0000 0.86520  0.30490  0.39470  Biso   1.000  H
  H175     1.0000 0.36520  0.19510  0.89470  Biso   1.000  H
  H176     1.0000 0.13480  0.69510  0.60530  Biso   1.000  H
  C97      1.0000 0.41330  0.87930  0.10540  Biso   1.000  C
  C98      1.0000 0.08670  0.37930  0.39460  Biso   1.000  C
  C99      1.0000 0.58670  0.12070  0.89460  Biso   1.000  C
  C100     1.0000 0.91330  0.62070  0.60540  Biso   1.000  C
  H177     1.0000 0.44140  0.94330  0.11300  Biso   1.000  H
  H178     1.0000 0.05860  0.44330  0.38700  Biso   1.000  H
  H179     1.0000 0.55860  0.05670  0.88700  Biso   1.000  H
  H180     1.0000 0.94140  0.55670  0.61300  Biso   1.000  H
  C101     1.0000 0.30860  0.89370  0.10730  Biso   1.000  C
  C102     1.0000 0.19140  0.39370  0.39270  Biso   1.000  C
  C103     1.0000 0.69140  0.10630  0.89270  Biso   1.000  C
  C104     1.0000 0.80860  0.60630  0.60730  Biso   1.000  C
  H181     1.0000 0.29970  0.91660  0.14890  Biso   1.000  H
  H182     1.0000 0.20030  0.41660  0.35110  Biso   1.000  H
  H183     1.0000 0.70030  0.08340  0.85110  Biso   1.000  H
  H184     1.0000 0.79970  0.58340  0.64890  Biso   1.000  H
  H185     1.0000 0.27630  0.83250  0.10020  Biso   1.000  H
  H186     1.0000 0.22370  0.33250  0.39980  Biso   1.000  H
  H187     1.0000 0.72370  0.16750  0.89980  Biso   1.000  H
  H188     1.0000 0.77630  0.66750  0.60020  Biso   1.000  H
  C105     1.0000 0.26520  0.96530  0.05770  Biso   1.000  C
  C106     1.0000 0.23480  0.46530  0.44230  Biso   1.000  C
  C107     1.0000 0.73480  0.03470  0.94230  Biso   1.000  C
  C108     1.0000 0.76520  0.53470  0.55770  Biso   1.000  C
  H189     1.0000 0.19750  0.96900  0.05810  Biso   1.000  H
  H190     1.0000 0.30250  0.46900  0.44190  Biso   1.000  H
  H191     1.0000 0.80250  0.03100  0.94190  Biso   1.000  H
  H192     1.0000 0.69750  0.53100  0.55810  Biso   1.000  H
  H193     1.0000 0.29190  0.02860  0.06750  Biso   1.000  H
  H194     1.0000 0.20810  0.52860  0.43250  Biso   1.000  H
  H195     1.0000 0.70810  0.97140  0.93250  Biso   1.000  H
  H196     1.0000 0.79190  0.47140  0.56750  Biso   1.000  H
  C109     1.0000 0.28390  0.93530  0.99420  Biso   1.000  C
  C110     1.0000 0.21610  0.43530  0.50580  Biso   1.000  C
  C111     1.0000 0.71610  0.06470  0.00580  Biso   1.000  C
  C112     1.0000 0.78390  0.56470  0.49420  Biso   1.000  C
  H197     1.0000 0.25780  0.98280  0.96320  Biso   1.000  H
  H198     1.0000 0.24220  0.48280  0.53680  Biso   1.000  H
  H199     1.0000 0.74220  0.01720  0.03680  Biso   1.000  H
  H200     1.0000 0.75780  0.51720  0.46320  Biso   1.000  H
  H201     1.0000 0.25240  0.87450  0.98310  Biso   1.000  H
  H202     1.0000 0.24760  0.37450  0.51690  Biso   1.000  H
  H203     1.0000 0.74760  0.12550  0.01690  Biso   1.000  H
  H204     1.0000 0.75240  0.62550  0.48310  Biso   1.000  H
  C113     1.0000 0.38620  0.92440  0.99180  Biso   1.000  C
  C114     1.0000 0.11380  0.42440  0.50820  Biso   1.000  C
  C115     1.0000 0.61380  0.07560  0.00820  Biso   1.000  C
  C116     1.0000 0.88620  0.57560  0.49180  Biso   1.000  C
  H205     1.0000 0.41710  0.98630  0.99920  Biso   1.000  H
  H206     1.0000 0.08290  0.48630  0.50080  Biso   1.000  H
  H207     1.0000 0.58290  0.01370  0.00080  Biso   1.000  H
  H208     1.0000 0.91710  0.51370  0.49920  Biso   1.000  H
  H209     1.0000 0.39550  0.90230  0.95000  Biso   1.000  H
  H210     1.0000 0.10450  0.40230  0.55000  Biso   1.000  H
  H211     1.0000 0.60450  0.09770  0.05000  Biso   1.000  H
  H212     1.0000 0.89550  0.59770  0.45000  Biso   1.000  H
  C117     1.0000 0.42950  0.85400  0.04060  Biso   1.000  C
  C118     1.0000 0.07050  0.35400  0.45940  Biso   1.000  C
  C119     1.0000 0.57050  0.14600  0.95940  Biso   1.000  C
  C120     1.0000 0.92950  0.64600  0.54060  Biso   1.000  C
  H213     1.0000 0.49700  0.85080  0.03950  Biso   1.000  H
  H214     1.0000 0.00300  0.35080  0.46050  Biso   1.000  H
  H215     1.0000 0.50300  0.14920  0.96050  Biso   1.000  H
  H216     1.0000 0.99700  0.64920  0.53950  Biso   1.000  H
  H217     1.0000 0.40330  0.79070  0.03000  Biso   1.000  H
  H218     1.0000 0.09670  0.29070  0.47000  Biso   1.000  H
  H219     1.0000 0.59670  0.20930  0.97000  Biso   1.000  H
  H220     1.0000 0.90330  0.70930  0.53000  Biso   1.000  H
  C121     1.0000 0.48980  0.69110  0.13550  Biso   1.000  C
  C122     1.0000 0.01020  0.19110  0.36450  Biso   1.000  C
  C123     1.0000 0.51020  0.30890  0.86450  Biso   1.000  C
  C124     1.0000 0.98980  0.80890  0.63550  Biso   1.000  C
  H221     1.0000 0.51440  0.70510  0.09600  Biso   1.000  H
  H222     1.0000 0.98560  0.20510  0.40400  Biso   1.000  H
  H223     1.0000 0.48560  0.29490  0.90400  Biso   1.000  H
  H224     1.0000 0.01440  0.79490  0.59600  Biso   1.000  H
  C125     1.0000 0.39730  0.64050  0.11860  Biso   1.000  C
  C126     1.0000 0.10270  0.14050  0.38140  Biso   1.000  C
  C127     1.0000 0.60270  0.35950  0.88140  Biso   1.000  C
  C128     1.0000 0.89730  0.85950  0.61860  Biso   1.000  C
  H225     1.0000 0.35330  0.68230  0.09250  Biso   1.000  H
  H226     1.0000 0.14670  0.18230  0.40750  Biso   1.000  H
  H227     1.0000 0.64670  0.31770  0.90750  Biso   1.000  H
  H228     1.0000 0.85330  0.81770  0.59250  Biso   1.000  H
  H229     1.0000 0.37090  0.62610  0.15690  Biso   1.000  H
  H230     1.0000 0.12910  0.12610  0.34310  Biso   1.000  H
  H231     1.0000 0.62910  0.37390  0.84310  Biso   1.000  H
  H232     1.0000 0.87090  0.87390  0.65690  Biso   1.000  H
  C129     1.0000 0.40950  0.54880  0.08350  Biso   1.000  C
  C130     1.0000 0.09050  0.04880  0.41650  Biso   1.000  C
  C131     1.0000 0.59050  0.45120  0.91650  Biso   1.000  C
  C132     1.0000 0.90950  0.95120  0.58350  Biso   1.000  C
  H233     1.0000 0.34940  0.51550  0.07470  Biso   1.000  H
  H234     1.0000 0.15060  0.01550  0.42530  Biso   1.000  H
  H235     1.0000 0.65060  0.48450  0.92530  Biso   1.000  H
  H236     1.0000 0.84940  0.98450  0.57470  Biso   1.000  H
  H237     1.0000 0.43090  0.56330  0.04350  Biso   1.000  H
  H238     1.0000 0.06910  0.06330  0.45650  Biso   1.000  H
  H239     1.0000 0.56910  0.43670  0.95650  Biso   1.000  H
  H240     1.0000 0.93090  0.93670  0.54350  Biso   1.000  H
  C133     1.0000 0.48040  0.48570  0.12250  Biso   1.000  C
  C134     1.0000 0.01960  0.98570  0.37750  Biso   1.000  C
  C135     1.0000 0.51960  0.51430  0.87750  Biso   1.000  C
  C136     1.0000 0.98040  0.01430  0.62250  Biso   1.000  C
  H241     1.0000 0.45450  0.46460  0.15980  Biso   1.000  H
  H242     1.0000 0.04550  0.96460  0.34020  Biso   1.000  H
  H243     1.0000 0.54550  0.53540  0.84020  Biso   1.000  H
  H244     1.0000 0.95450  0.03540  0.65980  Biso   1.000  H
  H245     1.0000 0.49130  0.42900  0.09810  Biso   1.000  H
  H246     1.0000 0.00870  0.92900  0.40190  Biso   1.000  H
  H247     1.0000 0.50870  0.57100  0.90190  Biso   1.000  H
  H248     1.0000 0.99130  0.07100  0.59810  Biso   1.000  H
  C137     1.0000 0.57230  0.53460  0.14300  Biso   1.000  C
  C138     1.0000 0.92770  0.03460  0.35700  Biso   1.000  C
  C139     1.0000 0.42770  0.46540  0.85700  Biso   1.000  C
  C140     1.0000 0.07230  0.96540  0.64300  Biso   1.000  C
  H249     1.0000 0.60360  0.54570  0.10620  Biso   1.000  H
  H250     1.0000 0.89640  0.04570  0.39380  Biso   1.000  H
  H251     1.0000 0.39640  0.45430  0.89380  Biso   1.000  H
  H252     1.0000 0.10360  0.95430  0.60620  Biso   1.000  H
  H253     1.0000 0.61240  0.49270  0.17170  Biso   1.000  H
  H254     1.0000 0.88760  0.99270  0.32830  Biso   1.000  H
  H255     1.0000 0.38760  0.50730  0.82830  Biso   1.000  H
  H256     1.0000 0.11240  0.00730  0.67170  Biso   1.000  H
  C141     1.0000 0.56100  0.62870  0.17530  Biso   1.000  C
  C142     1.0000 0.93900  0.12870  0.32470  Biso   1.000  C
  C143     1.0000 0.43900  0.37130  0.82470  Biso   1.000  C
  C144     1.0000 0.06100  0.87130  0.67530  Biso   1.000  C
  H257     1.0000 0.54040  0.61710  0.21600  Biso   1.000  H
  H258     1.0000 0.95960  0.11710  0.28400  Biso   1.000  H
  H259     1.0000 0.45960  0.38290  0.78400  Biso   1.000  H
  H260     1.0000 0.04040  0.88290  0.71600  Biso   1.000  H
  H261     1.0000 0.62140  0.66170  0.18270  Biso   1.000  H
  H262     1.0000 0.87860  0.16170  0.31730  Biso   1.000  H
  H263     1.0000 0.37860  0.33830  0.81730  Biso   1.000  H
  H264     1.0000 0.12140  0.83830  0.68270  Biso   1.000  H
  C145     1.0000 0.09750  0.64890  0.12440  Biso   1.000  C
  C146     1.0000 0.40250  0.14890  0.37560  Biso   1.000  C
  C147     1.0000 0.90250  0.35110  0.87560  Biso   1.000  C
  C148     1.0000 0.59750  0.85110  0.62440  Biso   1.000  C
  N1       1.0000 0.08460  0.66130  0.07290  Biso   1.000  N
  N2       1.0000 0.41540  0.16130  0.42710  Biso   1.000  N
  N3       1.0000 0.91540  0.33870  0.92710  Biso   1.000  N
  N4       1.0000 0.58460  0.83870  0.57290  Biso   1.000  N
  C149     1.0000 0.20360  0.69890  0.22275  Biso   1.000  C
  C150     1.0000 0.29640  0.19890  0.27725  Biso   1.000  C
  C151     1.0000 0.79640  0.30110  0.77725  Biso   1.000  C
  C152     1.0000 0.70360  0.80110  0.72275  Biso   1.000  C
  N5       1.0000 0.26866  0.74528  0.23487  Biso   1.000  N
  N6       1.0000 0.23134  0.24528  0.26513  Biso   1.000  N
  N7       1.0000 0.73134  0.25472  0.76513  Biso   1.000  N
  N8       1.0000 0.76866  0.75472  0.73487  Biso   1.000  N
  C153     1.0000 0.13340  0.53060  0.21826  Biso   1.000  C
  C154     1.0000 0.36660  0.03060  0.28174  Biso   1.000  C
  C155     1.0000 0.86660  0.46940  0.78174  Biso   1.000  C
  C156     1.0000 0.63340  0.96940  0.71826  Biso   1.000  C
  N9       1.0000 0.13817  0.45110  0.22916  Biso   1.000  N
  N10      1.0000 0.36183  0.95110  0.27084  Biso   1.000  N
  N11      1.0000 0.86183  0.54890  0.77084  Biso   1.000  N
  N12      1.0000 0.63817  0.04890  0.72916  Biso   1.000  N
  Cu1      1.0000 0.39412  0.81077  0.25865  Biso   1.000  Cu
  Cu2      1.0000 0.10588  0.31077  0.24135  Biso   1.000  Cu
  Cu3      1.0000 0.60588  0.18923  0.74135  Biso   1.000  Cu
  Cu4      1.0000 0.89412  0.68923  0.75865  Biso   1.000  Cu
  P1       1.0000 0.44574  0.75005  0.35545  Biso   1.000  P
  P2       1.0000 0.05426  0.25005  0.14455  Biso   1.000  P
  P3       1.0000 0.55426  0.24995  0.64455  Biso   1.000  P
  P4       1.0000 0.94574  0.74995  0.85545  Biso   1.000  P
  P5       1.0000 0.46746  0.80640  0.17244  Biso   1.000  P
  P6       1.0000 0.03254  0.30640  0.32756  Biso   1.000  P
  P7       1.0000 0.53254  0.19360  0.82756  Biso   1.000  P
  P8       1.0000 0.96746  0.69360  0.67244  Biso   1.000  P
  B1       1.0000 0.11410  0.63810  0.19850  Biso   1.000  B
  B2       1.0000 0.38590  0.13810  0.30150  Biso   1.000  B
  B3       1.0000 0.88590  0.36190  0.80150  Biso   1.000  B
  B4       1.0000 0.61410  0.86190  0.69850  Biso   1.000  B
  C157     1.0000 0.02560  0.67350  0.22984  Biso   1.000  C
  C158     1.0000 0.47440  0.17350  0.27016  Biso   1.000  C
  C159     1.0000 0.97440  0.32650  0.77016  Biso   1.000  C
  C160     1.0000 0.52560  0.82650  0.72984  Biso   1.000  C
  C161     1.0000 0.93710  0.66930  0.19618  Biso   1.000  C
  C162     1.0000 0.56290  0.16930  0.30382  Biso   1.000  C
  C163     1.0000 0.06290  0.33070  0.80382  Biso   1.000  C
  C164     1.0000 0.43710  0.83070  0.69618  Biso   1.000  C
  H265     1.0000 0.92880  0.64900  0.15420  Biso   1.000  H
  H266     1.0000 0.57120  0.14900  0.34580  Biso   1.000  H
  H267     1.0000 0.07120  0.35100  0.84580  Biso   1.000  H
  H268     1.0000 0.42880  0.85100  0.65420  Biso   1.000  H
  C165     1.0000 0.86086  0.69480  0.22400  Biso   1.000  C
  C166     1.0000 0.63914  0.19480  0.27600  Biso   1.000  C
  C167     1.0000 0.13914  0.30520  0.77600  Biso   1.000  C
  C168     1.0000 0.36086  0.80520  0.72400  Biso   1.000  C
  H269     1.0000 0.80040  0.69190  0.20090  Biso   1.000  H
  H270     1.0000 0.69960  0.19190  0.29910  Biso   1.000  H
  H271     1.0000 0.19960  0.30810  0.79910  Biso   1.000  H
  H272     1.0000 0.30040  0.80810  0.70090  Biso   1.000  H
  C169     1.0000 0.87310  0.72450  0.28540  Biso   1.000  C
  C170     1.0000 0.62690  0.22450  0.21460  Biso   1.000  C
  C171     1.0000 0.12690  0.27550  0.71460  Biso   1.000  C
  C172     1.0000 0.37310  0.77550  0.78540  Biso   1.000  C
  H273     1.0000 0.82090  0.74200  0.30440  Biso   1.000  H
  H274     1.0000 0.67910  0.24200  0.19560  Biso   1.000  H
  H275     1.0000 0.17910  0.25800  0.69560  Biso   1.000  H
  H276     1.0000 0.32090  0.75800  0.80440  Biso   1.000  H
  C173     1.0000 0.96150  0.72870  0.31905  Biso   1.000  C
  C174     1.0000 0.53850  0.22870  0.18095  Biso   1.000  C
  C175     1.0000 0.03850  0.27130  0.68095  Biso   1.000  C
  C176     1.0000 0.46150  0.77130  0.81905  Biso   1.000  C
  H277     1.0000 0.96980  0.74910  0.36100  Biso   1.000  H
  H278     1.0000 0.53020  0.24910  0.13900  Biso   1.000  H
  H279     1.0000 0.03020  0.25090  0.63900  Biso   1.000  H
  H280     1.0000 0.46980  0.75090  0.86100  Biso   1.000  H
  C177     1.0000 0.03780  0.70320  0.29128  Biso   1.000  C
  C178     1.0000 0.46220  0.20320  0.20872  Biso   1.000  C
  C179     1.0000 0.96220  0.29680  0.70872  Biso   1.000  C
  C180     1.0000 0.53780  0.79680  0.79128  Biso   1.000  C
  H281     1.0000 0.09830  0.70610  0.31430  Biso   1.000  H
  H282     1.0000 0.40170  0.20610  0.18570  Biso   1.000  H
  H283     1.0000 0.90170  0.29390  0.68570  Biso   1.000  H
  H284     1.0000 0.59830  0.79390  0.81430  Biso   1.000  H
  C181     1.0000 0.40130  0.87070  0.10620  Biso   1.000  C
  C182     1.0000 0.09870  0.37070  0.39380  Biso   1.000  C
  C183     1.0000 0.59870  0.12930  0.89380  Biso   1.000  C
  C184     1.0000 0.90130  0.62930  0.60620  Biso   1.000  C
  H285     1.0000 0.43170  0.85570  0.06910  Biso   1.000  H
  H286     1.0000 0.06830  0.35570  0.43090  Biso   1.000  H
  H287     1.0000 0.56830  0.14430  0.93090  Biso   1.000  H
  H288     1.0000 0.93170  0.64430  0.56910  Biso   1.000  H
  C185     1.0000 0.30050  0.83460  0.09150  Biso   1.000  C
  C186     1.0000 0.19950  0.33460  0.40850  Biso   1.000  C
  C187     1.0000 0.69950  0.16540  0.90850  Biso   1.000  C
  C188     1.0000 0.80050  0.66540  0.59150  Biso   1.000  C
  H289     1.0000 0.30070  0.76520  0.08680  Biso   1.000  H
  H290     1.0000 0.19930  0.26520  0.41320  Biso   1.000  H
  H291     1.0000 0.69930  0.23480  0.91320  Biso   1.000  H
  H292     1.0000 0.80070  0.73480  0.58680  Biso   1.000  H
  H293     1.0000 0.26660  0.85020  0.12640  Biso   1.000  H
  H294     1.0000 0.23340  0.35020  0.37360  Biso   1.000  H
  H295     1.0000 0.73340  0.14980  0.87360  Biso   1.000  H
  H296     1.0000 0.76660  0.64980  0.62640  Biso   1.000  H
  C189     1.0000 0.25050  0.87980  0.03120  Biso   1.000  C
  C190     1.0000 0.24950  0.37980  0.46880  Biso   1.000  C
  C191     1.0000 0.74950  0.12020  0.96880  Biso   1.000  C
  C192     1.0000 0.75050  0.62020  0.53120  Biso   1.000  C
  H297     1.0000 0.27940  0.85760  0.99540  Biso   1.000  H
  H298     1.0000 0.22060  0.35760  0.50460  Biso   1.000  H
  H299     1.0000 0.72060  0.14240  0.00460  Biso   1.000  H
  H300     1.0000 0.77940  0.64240  0.49540  Biso   1.000  H
  H301     1.0000 0.18470  0.86020  0.02460  Biso   1.000  H
  H302     1.0000 0.31530  0.36020  0.47540  Biso   1.000  H
  H303     1.0000 0.81530  0.13980  0.97540  Biso   1.000  H
  H304     1.0000 0.68470  0.63980  0.52460  Biso   1.000  H
  C193     1.0000 0.25650  0.98560  0.03520  Biso   1.000  C
  C194     1.0000 0.24350  0.48560  0.46480  Biso   1.000  C
  C195     1.0000 0.74350  0.01440  0.96480  Biso   1.000  C
  C196     1.0000 0.75650  0.51440  0.53520  Biso   1.000  C
  H305     1.0000 0.21790  0.00780  0.06610  Biso   1.000  H
  H306     1.0000 0.28210  0.50780  0.43390  Biso   1.000  H
  H307     1.0000 0.78210  0.99220  0.93390  Biso   1.000  H
  H308     1.0000 0.71790  0.49220  0.56610  Biso   1.000  H
  H309     1.0000 0.23060  0.01270  0.99450  Biso   1.000  H
  H310     1.0000 0.26940  0.51270  0.50550  Biso   1.000  H
  H311     1.0000 0.76940  0.98730  0.00550  Biso   1.000  H
  H312     1.0000 0.73060  0.48730  0.49450  Biso   1.000  H
  C197     1.0000 0.35380  0.02160  0.05320  Biso   1.000  C
  C198     1.0000 0.14620  0.52160  0.44680  Biso   1.000  C
  C199     1.0000 0.64620  0.97840  0.94680  Biso   1.000  C
  C200     1.0000 0.85380  0.47840  0.55320  Biso   1.000  C
  H313     1.0000 0.35190  0.09070  0.05930  Biso   1.000  H
  H314     1.0000 0.14810  0.59070  0.44070  Biso   1.000  H
  H315     1.0000 0.64810  0.90930  0.94070  Biso   1.000  H
  H316     1.0000 0.85190  0.40930  0.55930  Biso   1.000  H
  H317     1.0000 0.38980  0.00920  0.01890  Biso   1.000  H
  H318     1.0000 0.11020  0.50920  0.48110  Biso   1.000  H
  H319     1.0000 0.61020  0.99080  0.98110  Biso   1.000  H
  H320     1.0000 0.88980  0.49080  0.51890  Biso   1.000  H
  C201     1.0000 0.40260  0.97570  0.11230  Biso   1.000  C
  C202     1.0000 0.09740  0.47570  0.38770  Biso   1.000  C
  C203     1.0000 0.59740  0.02430  0.88770  Biso   1.000  C
  C204     1.0000 0.90260  0.52430  0.61230  Biso   1.000  C
  H321     1.0000 0.46750  0.99800  0.12050  Biso   1.000  H
  H322     1.0000 0.03250  0.49800  0.37950  Biso   1.000  H
  H323     1.0000 0.53250  0.00200  0.87950  Biso   1.000  H
  H324     1.0000 0.96750  0.50200  0.62050  Biso   1.000  H
  H325     1.0000 0.37130  0.99430  0.14780  Biso   1.000  H
  H326     1.0000 0.12870  0.49430  0.35220  Biso   1.000  H
  H327     1.0000 0.62870  0.00570  0.85220  Biso   1.000  H
  H328     1.0000 0.87130  0.50570  0.64780  Biso   1.000  H
  C205     1.0000 0.46460  0.68190  0.14210  Biso   1.000  C
  C206     1.0000 0.03540  0.18190  0.35790  Biso   1.000  C
  C207     1.0000 0.53540  0.31810  0.85790  Biso   1.000  C
  C208     1.0000 0.96460  0.81810  0.64210  Biso   1.000  C
  H329     1.0000 0.40310  0.65630  0.14900  Biso   1.000  H
  H330     1.0000 0.09690  0.15630  0.35100  Biso   1.000  H
  H331     1.0000 0.59690  0.34370  0.85100  Biso   1.000  H
  H332     1.0000 0.90310  0.84370  0.64900  Biso   1.000  H
  C209     1.0000 0.53610  0.61890  0.18060  Biso   1.000  C
  C210     1.0000 0.96390  0.11890  0.31940  Biso   1.000  C
  C211     1.0000 0.46390  0.38110  0.81940  Biso   1.000  C
  C212     1.0000 0.03610  0.88110  0.68060  Biso   1.000  C
  H333     1.0000 0.59900  0.64220  0.17670  Biso   1.000  H
  H334     1.0000 0.90100  0.14220  0.32330  Biso   1.000  H
  H335     1.0000 0.40100  0.35780  0.82330  Biso   1.000  H
  H336     1.0000 0.09900  0.85780  0.67670  Biso   1.000  H
  H337     1.0000 0.52790  0.62360  0.22480  Biso   1.000  H
  H338     1.0000 0.97210  0.12360  0.27520  Biso   1.000  H
  H339     1.0000 0.47210  0.37640  0.77520  Biso   1.000  H
  H340     1.0000 0.02790  0.87640  0.72480  Biso   1.000  H
  C213     1.0000 0.52870  0.51520  0.16080  Biso   1.000  C
  C214     1.0000 0.97130  0.01520  0.33920  Biso   1.000  C
  C215     1.0000 0.47130  0.48480  0.83920  Biso   1.000  C
  C216     1.0000 0.02870  0.98480  0.66080  Biso   1.000  C
  H341     1.0000 0.58030  0.47950  0.18470  Biso   1.000  H
  H342     1.0000 0.91970  0.97950  0.31530  Biso   1.000  H
  H343     1.0000 0.41970  0.52050  0.81530  Biso   1.000  H
  H344     1.0000 0.08030  0.02050  0.68470  Biso   1.000  H
  H345     1.0000 0.47000  0.48890  0.17110  Biso   1.000  H
  H346     1.0000 0.03000  0.98890  0.32890  Biso   1.000  H
  H347     1.0000 0.53000  0.51110  0.82890  Biso   1.000  H
  H348     1.0000 0.97000  0.01110  0.67110  Biso   1.000  H
  C217     1.0000 0.53170  0.50190  0.09180  Biso   1.000  C
  C218     1.0000 0.96830  0.00190  0.40820  Biso   1.000  C
  C219     1.0000 0.46830  0.49810  0.90820  Biso   1.000  C
  C220     1.0000 0.03170  0.99810  0.59180  Biso   1.000  C
  H349     1.0000 0.52070  0.43480  0.08060  Biso   1.000  H
  H350     1.0000 0.97930  0.93480  0.41940  Biso   1.000  H
  H351     1.0000 0.47930  0.56520  0.91940  Biso   1.000  H
  H352     1.0000 0.02070  0.06520  0.58060  Biso   1.000  H
  H353     1.0000 0.59370  0.51960  0.08220  Biso   1.000  H
  H354     1.0000 0.90630  0.01960  0.41780  Biso   1.000  H
  H355     1.0000 0.40630  0.48040  0.91780  Biso   1.000  H
  H356     1.0000 0.09370  0.98040  0.58220  Biso   1.000  H
  C221     1.0000 0.45800  0.56280  0.05410  Biso   1.000  C
  C222     1.0000 0.04200  0.06280  0.44590  Biso   1.000  C
  C223     1.0000 0.54200  0.43720  0.94590  Biso   1.000  C
  C224     1.0000 0.95800  0.93720  0.55410  Biso   1.000  C
  H357     1.0000 0.39590  0.54050  0.06060  Biso   1.000  H
  H358     1.0000 0.10410  0.04050  0.43940  Biso   1.000  H
  H359     1.0000 0.60410  0.45950  0.93940  Biso   1.000  H
  H360     1.0000 0.89590  0.95950  0.56060  Biso   1.000  H
  H361     1.0000 0.46290  0.55640  0.00950  Biso   1.000  H
  H362     1.0000 0.03710  0.05640  0.49050  Biso   1.000  H
  H363     1.0000 0.53710  0.44360  0.99050  Biso   1.000  H
  H364     1.0000 0.96290  0.94360  0.50950  Biso   1.000  H
  C225     1.0000 0.46870  0.66670  0.07280  Biso   1.000  C
  C226     1.0000 0.03130  0.16670  0.42720  Biso   1.000  C
  C227     1.0000 0.53130  0.33330  0.92720  Biso   1.000  C
  C228     1.0000 0.96870  0.83330  0.57280  Biso   1.000  C
  H365     1.0000 0.52870  0.69040  0.06290  Biso   1.000  H
  H366     1.0000 0.97130  0.19040  0.43710  Biso   1.000  H
  H367     1.0000 0.47130  0.30960  0.93710  Biso   1.000  H
  H368     1.0000 0.02870  0.80960  0.56290  Biso   1.000  H
  H369     1.0000 0.41880  0.70370  0.04820  Biso   1.000  H
  H370     1.0000 0.08120  0.20370  0.45180  Biso   1.000  H
  H371     1.0000 0.58120  0.29630  0.95180  Biso   1.000  H
  H372     1.0000 0.91880  0.79630  0.54820  Biso   1.000  H
  C229     1.0000 0.04370  0.67030  0.26650  Biso   1.000  C
  C230     1.0000 0.45630  0.17030  0.23350  Biso   1.000  C
  C231     1.0000 0.95630  0.32970  0.73350  Biso   1.000  C
  C232     1.0000 0.54370  0.82970  0.76650  Biso   1.000  C
  C233     1.0000 0.96060  0.71800  0.24990  Biso   1.000  C
  C234     1.0000 0.53940  0.21800  0.25010  Biso   1.000  C
  C235     1.0000 0.03940  0.28200  0.75010  Biso   1.000  C
  C236     1.0000 0.46060  0.78200  0.74990  Biso   1.000  C
  H373     1.0000 0.94120  0.73490  0.20780  Biso   1.000  H
  H374     1.0000 0.55880  0.23490  0.29220  Biso   1.000  H
  H375     1.0000 0.05880  0.26510  0.79220  Biso   1.000  H
  H376     1.0000 0.44120  0.76510  0.70780  Biso   1.000  H
  C237     1.0000 0.90590  0.74100  0.29490  Biso   1.000  C
  C238     1.0000 0.59410  0.24100  0.20510  Biso   1.000  C
  C239     1.0000 0.09410  0.25900  0.70510  Biso   1.000  C
  C240     1.0000 0.40590  0.75900  0.79490  Biso   1.000  C
  H377     1.0000 0.84910  0.77360  0.28350  Biso   1.000  H
  H378     1.0000 0.65090  0.27360  0.21650  Biso   1.000  H
  H379     1.0000 0.15090  0.22640  0.71650  Biso   1.000  H
  H380     1.0000 0.34910  0.72640  0.78350  Biso   1.000  H
  C241     1.0000 0.93430  0.71630  0.35650  Biso   1.000  C
  C242     1.0000 0.56570  0.21630  0.14350  Biso   1.000  C
  C243     1.0000 0.06570  0.28370  0.64350  Biso   1.000  C
  C244     1.0000 0.43430  0.78370  0.85650  Biso   1.000  C
  H381     1.0000 0.89690  0.73200  0.38720  Biso   1.000  H
  H382     1.0000 0.60310  0.23200  0.11280  Biso   1.000  H
  H383     1.0000 0.10310  0.26800  0.61280  Biso   1.000  H
  H384     1.0000 0.39690  0.76800  0.88720  Biso   1.000  H
  C245     1.0000 0.01740  0.66860  0.37310  Biso   1.000  C
  C246     1.0000 0.48260  0.16860  0.12690  Biso   1.000  C
  C247     1.0000 0.98260  0.33140  0.62690  Biso   1.000  C
  C248     1.0000 0.51740  0.83140  0.87310  Biso   1.000  C
  H385     1.0000 0.03680  0.65180  0.41510  Biso   1.000  H
  H386     1.0000 0.46320  0.15180  0.08490  Biso   1.000  H
  H387     1.0000 0.96320  0.34820  0.58490  Biso   1.000  H
  H388     1.0000 0.53680  0.84820  0.91510  Biso   1.000  H
  C249     1.0000 0.07210  0.64560  0.32810  Biso   1.000  C
  C250     1.0000 0.42790  0.14560  0.17190  Biso   1.000  C
  C251     1.0000 0.92790  0.35440  0.67190  Biso   1.000  C
  C252     1.0000 0.57210  0.85440  0.82810  Biso   1.000  C
  H389     1.0000 0.12890  0.61300  0.33940  Biso   1.000  H
  H390     1.0000 0.37110  0.11300  0.16060  Biso   1.000  H
  H391     1.0000 0.87110  0.38700  0.66060  Biso   1.000  H
  H392     1.0000 0.62890  0.88700  0.83940  Biso   1.000  H
  B5       1.0000 0.10940  0.64040  0.21560  Biso   1.000  B
  B6       1.0000 0.39060  0.14040  0.28440  Biso   1.000  B
  B7       1.0000 0.89060  0.35960  0.78440  Biso   1.000  B
  B8       1.0000 0.60940  0.85960  0.71560  Biso   1.000  B
  C253     1.0000 0.06410  0.65550  0.14500  Biso   1.000  C
  C254     1.0000 0.43590  0.15550  0.35500  Biso   1.000  C
  C255     1.0000 0.93590  0.34450  0.85500  Biso   1.000  C
  C256     1.0000 0.56410  0.84450  0.64500  Biso   1.000  C
  N13      1.0000 0.03410  0.66750  0.09510  Biso   1.000  N
  N14      1.0000 0.46590  0.16750  0.40490  Biso   1.000  N
  N15      1.0000 0.96590  0.33250  0.90490  Biso   1.000  N
  N16      1.0000 0.53410  0.83250  0.59510  Biso   1.000  N
