data_image0
_cell_length_a       13.387
_cell_length_b       15.805
_cell_length_c       35.961
_cell_angle_alpha    90
_cell_angle_beta     90
_cell_angle_gamma    90

_symmetry_space_group_name_H-M    "P 1"
_symmetry_int_tables_number       1

loop_
  _symmetry_equiv_pos_as_xyz
  'x, y, z'

loop_
  _atom_site_label
  _atom_site_occupancy
  _atom_site_fract_x
  _atom_site_fract_y
  _atom_site_fract_z
  _atom_site_thermal_displace_type
  _atom_site_B_iso_or_equiv
  _atom_site_type_symbol
  B1       1.0000 0.61370  0.56887  0.70361  Biso   1.000  B
  B2       1.0000 0.88630  0.43113  0.20361  Biso   1.000  B
  B3       1.0000 0.38630  0.06887  0.79639  Biso   1.000  B
  B4       1.0000 0.11370  0.93113  0.29639  Biso   1.000  B
  B5       1.0000 0.38630  0.43113  0.29639  Biso   1.000  B
  B6       1.0000 0.11370  0.56887  0.79639  Biso   1.000  B
  B7       1.0000 0.61370  0.93113  0.20361  Biso   1.000  B
  B8       1.0000 0.88630  0.06887  0.70361  Biso   1.000  B
  B9       1.0000 0.26270  0.91077  0.62007  Biso   1.000  B
  B10      1.0000 0.23730  0.08923  0.12007  Biso   1.000  B
  B11      1.0000 0.73730  0.41077  0.87993  Biso   1.000  B
  B12      1.0000 0.76270  0.58923  0.37993  Biso   1.000  B
  B13      1.0000 0.73730  0.08923  0.37993  Biso   1.000  B
  B14      1.0000 0.76270  0.91077  0.87993  Biso   1.000  B
  B15      1.0000 0.26270  0.58923  0.12007  Biso   1.000  B
  B16      1.0000 0.23730  0.41077  0.62007  Biso   1.000  B
  C1       1.0000 0.50850  0.61662  0.69969  Biso   1.000  C
  C2       1.0000 0.99150  0.38338  0.19969  Biso   1.000  C
  C3       1.0000 0.49150  0.11662  0.80031  Biso   1.000  C
  C4       1.0000 0.00850  0.88338  0.30031  Biso   1.000  C
  C5       1.0000 0.49150  0.38338  0.30031  Biso   1.000  C
  C6       1.0000 0.00850  0.61662  0.80031  Biso   1.000  C
  C7       1.0000 0.50850  0.88338  0.19969  Biso   1.000  C
  C8       1.0000 0.99150  0.11662  0.69969  Biso   1.000  C
  C9       1.0000 0.67023  0.57536  0.66439  Biso   1.000  C
  C10      1.0000 0.82977  0.42464  0.16439  Biso   1.000  C
  C11      1.0000 0.32977  0.07536  0.83561  Biso   1.000  C
  C12      1.0000 0.17023  0.92464  0.33561  Biso   1.000  C
  C13      1.0000 0.32977  0.42464  0.33561  Biso   1.000  C
  C14      1.0000 0.17023  0.57536  0.83561  Biso   1.000  C
  C15      1.0000 0.67023  0.92464  0.16439  Biso   1.000  C
  C16      1.0000 0.82977  0.07536  0.66439  Biso   1.000  C
  C17      1.0000 0.67639  0.61592  0.73549  Biso   1.000  C
  C18      1.0000 0.82361  0.38408  0.23549  Biso   1.000  C
  C19      1.0000 0.32361  0.11592  0.76451  Biso   1.000  C
  C20      1.0000 0.17639  0.88408  0.26451  Biso   1.000  C
  C21      1.0000 0.32361  0.38408  0.26451  Biso   1.000  C
  C22      1.0000 0.17639  0.61592  0.76451  Biso   1.000  C
  C23      1.0000 0.67639  0.88408  0.23549  Biso   1.000  C
  C24      1.0000 0.82361  0.11592  0.73549  Biso   1.000  C
  C25      1.0000 0.25937  0.82834  0.64633  Biso   1.000  C
  C26      1.0000 0.24063  0.17166  0.14633  Biso   1.000  C
  C27      1.0000 0.74063  0.32834  0.85367  Biso   1.000  C
  C28      1.0000 0.75937  0.67166  0.35367  Biso   1.000  C
  C29      1.0000 0.74063  0.17166  0.35367  Biso   1.000  C
  C30      1.0000 0.75937  0.82834  0.85367  Biso   1.000  C
  C31      1.0000 0.25937  0.67166  0.14633  Biso   1.000  C
  C32      1.0000 0.24063  0.32834  0.64633  Biso   1.000  C
  C33      1.0000 0.37070  0.91112  0.60080  Biso   1.000  C
  C34      1.0000 0.12930  0.08888  0.10080  Biso   1.000  C
  C35      1.0000 0.62930  0.41112  0.89920  Biso   1.000  C
  C36      1.0000 0.87070  0.58888  0.39920  Biso   1.000  C
  C37      1.0000 0.62930  0.08888  0.39920  Biso   1.000  C
  C38      1.0000 0.87070  0.91112  0.89920  Biso   1.000  C
  C39      1.0000 0.37070  0.58888  0.10080  Biso   1.000  C
  C40      1.0000 0.12930  0.41112  0.60080  Biso   1.000  C
  C41      1.0000 0.25586  0.99422  0.64546  Biso   1.000  C
  C42      1.0000 0.24414  0.00578  0.14546  Biso   1.000  C
  C43      1.0000 0.74414  0.49422  0.85454  Biso   1.000  C
  C44      1.0000 0.75586  0.50578  0.35454  Biso   1.000  C
  C45      1.0000 0.74414  0.00578  0.35454  Biso   1.000  C
  C46      1.0000 0.75586  0.99422  0.85454  Biso   1.000  C
  C47      1.0000 0.25586  0.50578  0.14546  Biso   1.000  C
  C48      1.0000 0.24414  0.49422  0.64546  Biso   1.000  C
  C49      1.0000 0.59411  0.47139  0.71453  Biso   1.000  C
  C50      1.0000 0.90589  0.52861  0.21453  Biso   1.000  C
  C51      1.0000 0.40589  0.97139  0.78547  Biso   1.000  C
  C52      1.0000 0.09411  0.02861  0.28547  Biso   1.000  C
  C53      1.0000 0.40589  0.52861  0.28547  Biso   1.000  C
  C54      1.0000 0.09411  0.47139  0.78547  Biso   1.000  C
  C55      1.0000 0.59411  0.02861  0.21453  Biso   1.000  C
  C56      1.0000 0.90589  0.97139  0.71453  Biso   1.000  C
  C57      1.0000 0.65700  0.42677  0.73860  Biso   1.000  C
  C58      1.0000 0.84300  0.57323  0.23860  Biso   1.000  C
  C59      1.0000 0.34300  0.92677  0.76140  Biso   1.000  C
  C60      1.0000 0.15700  0.07323  0.26140  Biso   1.000  C
  C61      1.0000 0.34300  0.57323  0.26140  Biso   1.000  C
  C62      1.0000 0.15700  0.42677  0.76140  Biso   1.000  C
  C63      1.0000 0.65700  0.07323  0.23860  Biso   1.000  C
  C64      1.0000 0.84300  0.92677  0.73860  Biso   1.000  C
  H1       1.0000 0.71250  0.45490  0.74950  Biso   1.000  H
  H2       1.0000 0.78750  0.54510  0.24950  Biso   1.000  H
  H3       1.0000 0.28750  0.95490  0.75050  Biso   1.000  H
  H4       1.0000 0.21250  0.04510  0.25050  Biso   1.000  H
  H5       1.0000 0.28750  0.54510  0.25050  Biso   1.000  H
  H6       1.0000 0.21250  0.45490  0.75050  Biso   1.000  H
  H7       1.0000 0.71250  0.04510  0.24950  Biso   1.000  H
  H8       1.0000 0.78750  0.95490  0.74950  Biso   1.000  H
  C65      1.0000 0.64000  0.34215  0.74690  Biso   1.000  C
  C66      1.0000 0.86000  0.65785  0.24690  Biso   1.000  C
  C67      1.0000 0.36000  0.84215  0.75310  Biso   1.000  C
  C68      1.0000 0.14000  0.15785  0.25310  Biso   1.000  C
  C69      1.0000 0.36000  0.65785  0.25310  Biso   1.000  C
  C70      1.0000 0.14000  0.34215  0.75310  Biso   1.000  C
  C71      1.0000 0.64000  0.15785  0.24690  Biso   1.000  C
  C72      1.0000 0.86000  0.84215  0.74690  Biso   1.000  C
  H9       1.0000 0.68340  0.31320  0.76350  Biso   1.000  H
  H10      1.0000 0.81660  0.68680  0.26350  Biso   1.000  H
  H11      1.0000 0.31660  0.81320  0.73650  Biso   1.000  H
  H12      1.0000 0.18340  0.18680  0.23650  Biso   1.000  H
  H13      1.0000 0.31660  0.68680  0.23650  Biso   1.000  H
  H14      1.0000 0.18340  0.31320  0.73650  Biso   1.000  H
  H15      1.0000 0.68340  0.18680  0.26350  Biso   1.000  H
  H16      1.0000 0.81660  0.81320  0.76350  Biso   1.000  H
  C73      1.0000 0.56060  0.30029  0.73121  Biso   1.000  C
  C74      1.0000 0.93940  0.69971  0.23121  Biso   1.000  C
  C75      1.0000 0.43940  0.80029  0.76879  Biso   1.000  C
  C76      1.0000 0.06060  0.19971  0.26879  Biso   1.000  C
  C77      1.0000 0.43940  0.69971  0.26879  Biso   1.000  C
  C78      1.0000 0.06060  0.30029  0.76879  Biso   1.000  C
  C79      1.0000 0.56060  0.19971  0.23121  Biso   1.000  C
  C80      1.0000 0.93940  0.80029  0.73121  Biso   1.000  C
  H17      1.0000 0.54930  0.24230  0.73670  Biso   1.000  H
  H18      1.0000 0.95070  0.75770  0.23670  Biso   1.000  H
  H19      1.0000 0.45070  0.74230  0.76330  Biso   1.000  H
  H20      1.0000 0.04930  0.25770  0.26330  Biso   1.000  H
  H21      1.0000 0.45070  0.75770  0.26330  Biso   1.000  H
  H22      1.0000 0.04930  0.24230  0.76330  Biso   1.000  H
  H23      1.0000 0.54930  0.25770  0.23670  Biso   1.000  H
  H24      1.0000 0.95070  0.74230  0.73670  Biso   1.000  H
  C81      1.0000 0.49760  0.34253  0.70749  Biso   1.000  C
  C82      1.0000 0.00240  0.65747  0.20749  Biso   1.000  C
  C83      1.0000 0.50240  0.84253  0.79251  Biso   1.000  C
  C84      1.0000 0.99760  0.15747  0.29251  Biso   1.000  C
  C85      1.0000 0.50240  0.65747  0.29251  Biso   1.000  C
  C86      1.0000 0.99760  0.34253  0.79251  Biso   1.000  C
  C87      1.0000 0.49760  0.15747  0.20749  Biso   1.000  C
  C88      1.0000 0.00240  0.84253  0.70749  Biso   1.000  C
  H25      1.0000 0.44240  0.31380  0.69670  Biso   1.000  H
  H26      1.0000 0.05760  0.68620  0.19670  Biso   1.000  H
  H27      1.0000 0.55760  0.81380  0.80330  Biso   1.000  H
  H28      1.0000 0.94240  0.18620  0.30330  Biso   1.000  H
  H29      1.0000 0.55760  0.68620  0.30330  Biso   1.000  H
  H30      1.0000 0.94240  0.31380  0.80330  Biso   1.000  H
  H31      1.0000 0.44240  0.18620  0.19670  Biso   1.000  H
  H32      1.0000 0.05760  0.81380  0.69670  Biso   1.000  H
  C89      1.0000 0.51440  0.42719  0.69928  Biso   1.000  C
  C90      1.0000 0.98560  0.57281  0.19928  Biso   1.000  C
  C91      1.0000 0.48560  0.92719  0.80072  Biso   1.000  C
  C92      1.0000 0.01440  0.07281  0.30072  Biso   1.000  C
  C93      1.0000 0.48560  0.57281  0.30072  Biso   1.000  C
  C94      1.0000 0.01440  0.42719  0.80072  Biso   1.000  C
  C95      1.0000 0.51440  0.07281  0.19928  Biso   1.000  C
  C96      1.0000 0.98560  0.92719  0.69928  Biso   1.000  C
  H33      1.0000 0.47020  0.45560  0.68280  Biso   1.000  H
  H34      1.0000 0.02980  0.54440  0.18280  Biso   1.000  H
  H35      1.0000 0.52980  0.95560  0.81720  Biso   1.000  H
  H36      1.0000 0.97020  0.04440  0.31720  Biso   1.000  H
  H37      1.0000 0.52980  0.54440  0.31720  Biso   1.000  H
  H38      1.0000 0.97020  0.45560  0.81720  Biso   1.000  H
  H39      1.0000 0.47020  0.04440  0.18280  Biso   1.000  H
  H40      1.0000 0.02980  0.95560  0.68280  Biso   1.000  H
  C97      1.0000 0.17438  0.90791  0.58971  Biso   1.000  C
  C98      1.0000 0.32562  0.09209  0.08971  Biso   1.000  C
  C99      1.0000 0.82562  0.40791  0.91029  Biso   1.000  C
  C100     1.0000 0.67438  0.59209  0.41029  Biso   1.000  C
  C101     1.0000 0.82562  0.09209  0.41029  Biso   1.000  C
  C102     1.0000 0.67438  0.90791  0.91029  Biso   1.000  C
  C103     1.0000 0.17438  0.59209  0.08971  Biso   1.000  C
  C104     1.0000 0.32562  0.40791  0.58971  Biso   1.000  C
  C105     1.0000 0.18150  0.85657  0.55869  Biso   1.000  C
  C106     1.0000 0.31850  0.14343  0.05869  Biso   1.000  C
  C107     1.0000 0.81850  0.35657  0.94131  Biso   1.000  C
  C108     1.0000 0.68150  0.64343  0.44131  Biso   1.000  C
  C109     1.0000 0.81850  0.14343  0.44131  Biso   1.000  C
  C110     1.0000 0.68150  0.85657  0.94131  Biso   1.000  C
  C111     1.0000 0.18150  0.64343  0.05869  Biso   1.000  C
  C112     1.0000 0.31850  0.35657  0.55869  Biso   1.000  C
  H41      1.0000 0.23960  0.82280  0.55540  Biso   1.000  H
  H42      1.0000 0.26040  0.17720  0.05540  Biso   1.000  H
  H43      1.0000 0.76040  0.32280  0.94460  Biso   1.000  H
  H44      1.0000 0.73960  0.67720  0.44460  Biso   1.000  H
  H45      1.0000 0.76040  0.17720  0.44460  Biso   1.000  H
  H46      1.0000 0.73960  0.82280  0.94460  Biso   1.000  H
  H47      1.0000 0.23960  0.67720  0.05540  Biso   1.000  H
  H48      1.0000 0.26040  0.32280  0.55540  Biso   1.000  H
  C113     1.0000 0.10640  0.85299  0.53230  Biso   1.000  C
  C114     1.0000 0.39360  0.14701  0.03230  Biso   1.000  C
  C115     1.0000 0.89360  0.35299  0.96770  Biso   1.000  C
  C116     1.0000 0.60640  0.64701  0.46770  Biso   1.000  C
  C117     1.0000 0.89360  0.14701  0.46770  Biso   1.000  C
  C118     1.0000 0.60640  0.85299  0.96770  Biso   1.000  C
  C119     1.0000 0.10640  0.64701  0.03230  Biso   1.000  C
  C120     1.0000 0.39360  0.35299  0.53230  Biso   1.000  C
  H49      1.0000 0.11380  0.81750  0.51110  Biso   1.000  H
  H50      1.0000 0.38620  0.18250  0.01110  Biso   1.000  H
  H51      1.0000 0.88620  0.31750  0.98890  Biso   1.000  H
  H52      1.0000 0.61380  0.68250  0.48890  Biso   1.000  H
  H53      1.0000 0.88620  0.18250  0.48890  Biso   1.000  H
  H54      1.0000 0.61380  0.81750  0.98890  Biso   1.000  H
  H55      1.0000 0.11380  0.68250  0.01110  Biso   1.000  H
  H56      1.0000 0.38620  0.31750  0.51110  Biso   1.000  H
  C121     1.0000 0.02140  0.90040  0.53657  Biso   1.000  C
  C122     1.0000 0.47860  0.09960  0.03657  Biso   1.000  C
  C123     1.0000 0.97860  0.40040  0.96343  Biso   1.000  C
  C124     1.0000 0.52140  0.59960  0.46343  Biso   1.000  C
  C125     1.0000 0.97860  0.09960  0.46343  Biso   1.000  C
  C126     1.0000 0.52140  0.90040  0.96343  Biso   1.000  C
  C127     1.0000 0.02140  0.59960  0.03657  Biso   1.000  C
  C128     1.0000 0.47860  0.40040  0.53657  Biso   1.000  C
  H57      1.0000 0.97000  0.89820  0.51840  Biso   1.000  H
  H58      1.0000 0.53000  0.10180  0.01840  Biso   1.000  H
  H59      1.0000 0.03000  0.39820  0.98160  Biso   1.000  H
  H60      1.0000 0.47000  0.60180  0.48160  Biso   1.000  H
  H61      1.0000 0.03000  0.10180  0.48160  Biso   1.000  H
  H62      1.0000 0.47000  0.89820  0.98160  Biso   1.000  H
  H63      1.0000 0.97000  0.60180  0.01840  Biso   1.000  H
  H64      1.0000 0.53000  0.39820  0.51840  Biso   1.000  H
  C129     1.0000 0.01140  0.95120  0.56735  Biso   1.000  C
  C130     1.0000 0.48860  0.04880  0.06735  Biso   1.000  C
  C131     1.0000 0.98860  0.45120  0.93265  Biso   1.000  C
  C132     1.0000 0.51140  0.54880  0.43265  Biso   1.000  C
  C133     1.0000 0.98860  0.04880  0.43265  Biso   1.000  C
  C134     1.0000 0.51140  0.95120  0.93265  Biso   1.000  C
  C135     1.0000 0.01140  0.54880  0.06735  Biso   1.000  C
  C136     1.0000 0.48860  0.45120  0.56735  Biso   1.000  C
  H65      1.0000 0.95240  0.98380  0.57070  Biso   1.000  H
  H66      1.0000 0.54760  0.01620  0.07070  Biso   1.000  H
  H67      1.0000 0.04760  0.48380  0.92930  Biso   1.000  H
  H68      1.0000 0.45240  0.51620  0.42930  Biso   1.000  H
  H69      1.0000 0.04760  0.01620  0.42930  Biso   1.000  H
  H70      1.0000 0.45240  0.98380  0.92930  Biso   1.000  H
  H71      1.0000 0.95240  0.51620  0.07070  Biso   1.000  H
  H72      1.0000 0.54760  0.48380  0.57070  Biso   1.000  H
  C137     1.0000 0.08720  0.95480  0.59359  Biso   1.000  C
  C138     1.0000 0.41280  0.04520  0.09359  Biso   1.000  C
  C139     1.0000 0.91280  0.45480  0.90641  Biso   1.000  C
  C140     1.0000 0.58720  0.54520  0.40641  Biso   1.000  C
  C141     1.0000 0.91280  0.04520  0.40641  Biso   1.000  C
  C142     1.0000 0.58720  0.95480  0.90641  Biso   1.000  C
  C143     1.0000 0.08720  0.54520  0.09359  Biso   1.000  C
  C144     1.0000 0.41280  0.45480  0.59359  Biso   1.000  C
  H73      1.0000 0.07920  0.99020  0.61470  Biso   1.000  H
  H74      1.0000 0.42080  0.00980  0.11470  Biso   1.000  H
  H75      1.0000 0.92080  0.49020  0.88530  Biso   1.000  H
  H76      1.0000 0.57920  0.50980  0.38530  Biso   1.000  H
  H77      1.0000 0.92080  0.00980  0.38530  Biso   1.000  H
  H78      1.0000 0.57920  0.99020  0.88530  Biso   1.000  H
  H79      1.0000 0.07920  0.50980  0.11470  Biso   1.000  H
  H80      1.0000 0.42080  0.49020  0.61470  Biso   1.000  H
  C145     1.0000 0.98160  0.62485  0.53960  Biso   1.000  C
  C146     1.0000 0.51840  0.37515  0.03960  Biso   1.000  C
  C147     1.0000 0.01840  0.12485  0.96040  Biso   1.000  C
  C148     1.0000 0.48160  0.87515  0.46040  Biso   1.000  C
  C149     1.0000 0.01840  0.37515  0.46040  Biso   1.000  C
  C150     1.0000 0.48160  0.62485  0.96040  Biso   1.000  C
  C151     1.0000 0.98160  0.87515  0.03960  Biso   1.000  C
  C152     1.0000 0.51840  0.12485  0.53960  Biso   1.000  C
  H81      1.0000 0.03620  0.58340  0.53610  Biso   1.000  H
  H82      1.0000 0.46380  0.41660  0.03610  Biso   1.000  H
  H83      1.0000 0.96380  0.08340  0.96390  Biso   1.000  H
  H84      1.0000 0.53620  0.91660  0.46390  Biso   1.000  H
  H85      1.0000 0.96380  0.41660  0.46390  Biso   1.000  H
  H86      1.0000 0.53620  0.58340  0.96390  Biso   1.000  H
  H87      1.0000 0.03620  0.91660  0.03610  Biso   1.000  H
  H88      1.0000 0.46380  0.08340  0.53610  Biso   1.000  H
  H89      1.0000 0.00570  0.68080  0.53110  Biso   1.000  H
  H90      1.0000 0.49430  0.31920  0.03110  Biso   1.000  H
  H91      1.0000 0.99430  0.18080  0.96890  Biso   1.000  H
  H92      1.0000 0.50570  0.81920  0.46890  Biso   1.000  H
  H93      1.0000 0.99430  0.31920  0.46890  Biso   1.000  H
  H94      1.0000 0.50570  0.68080  0.96890  Biso   1.000  H
  H95      1.0000 0.00570  0.81920  0.03110  Biso   1.000  H
  H96      1.0000 0.49430  0.18080  0.53110  Biso   1.000  H
  C153     1.0000 0.89310  0.59897  0.51716  Biso   1.000  C
  C154     1.0000 0.60690  0.40103  0.01716  Biso   1.000  C
  C155     1.0000 0.10690  0.09897  0.98284  Biso   1.000  C
  C156     1.0000 0.39310  0.90103  0.48284  Biso   1.000  C
  C157     1.0000 0.10690  0.40103  0.48284  Biso   1.000  C
  C158     1.0000 0.39310  0.59897  0.98284  Biso   1.000  C
  C159     1.0000 0.89310  0.90103  0.01716  Biso   1.000  C
  C160     1.0000 0.60690  0.09897  0.51716  Biso   1.000  C
  H97      1.0000 0.83580  0.63650  0.52280  Biso   1.000  H
  H98      1.0000 0.66420  0.36350  0.02280  Biso   1.000  H
  H99      1.0000 0.16420  0.13650  0.97720  Biso   1.000  H
  H100     1.0000 0.33580  0.86350  0.47720  Biso   1.000  H
  H101     1.0000 0.16420  0.36350  0.47720  Biso   1.000  H
  H102     1.0000 0.33580  0.63650  0.97720  Biso   1.000  H
  H103     1.0000 0.83580  0.86350  0.02280  Biso   1.000  H
  H104     1.0000 0.66420  0.13650  0.52280  Biso   1.000  H
  H105     1.0000 0.90850  0.60370  0.49030  Biso   1.000  H
  H106     1.0000 0.59150  0.39630  0.99030  Biso   1.000  H
  H107     1.0000 0.09150  0.10370  0.00970  Biso   1.000  H
  H108     1.0000 0.40850  0.89630  0.50970  Biso   1.000  H
  H109     1.0000 0.09150  0.39630  0.50970  Biso   1.000  H
  H110     1.0000 0.40850  0.60370  0.00970  Biso   1.000  H
  H111     1.0000 0.90850  0.89630  0.99030  Biso   1.000  H
  H112     1.0000 0.59150  0.10370  0.49030  Biso   1.000  H
  C161     1.0000 0.78510  0.48390  0.50588  Biso   1.000  C
  C162     1.0000 0.71490  0.51610  0.00588  Biso   1.000  C
  C163     1.0000 0.21490  0.98390  0.99412  Biso   1.000  C
  C164     1.0000 0.28510  0.01610  0.49412  Biso   1.000  C
  C165     1.0000 0.21490  0.51610  0.49412  Biso   1.000  C
  C166     1.0000 0.28510  0.48390  0.99412  Biso   1.000  C
  C167     1.0000 0.78510  0.01610  0.00588  Biso   1.000  C
  C168     1.0000 0.71490  0.98390  0.50588  Biso   1.000  C
  H113     1.0000 0.79630  0.49150  0.47890  Biso   1.000  H
  H114     1.0000 0.70370  0.50850  0.97890  Biso   1.000  H
  H115     1.0000 0.20370  0.99150  0.02110  Biso   1.000  H
  H116     1.0000 0.29630  0.00850  0.52110  Biso   1.000  H
  H117     1.0000 0.20370  0.50850  0.52110  Biso   1.000  H
  H118     1.0000 0.29630  0.49150  0.02110  Biso   1.000  H
  H119     1.0000 0.79630  0.00850  0.97890  Biso   1.000  H
  H120     1.0000 0.70370  0.99150  0.47890  Biso   1.000  H
  H121     1.0000 0.72450  0.51600  0.51300  Biso   1.000  H
  H122     1.0000 0.77550  0.48400  0.01300  Biso   1.000  H
  H123     1.0000 0.27550  0.01600  0.98700  Biso   1.000  H
  H124     1.0000 0.22450  0.98400  0.48700  Biso   1.000  H
  H125     1.0000 0.27550  0.48400  0.48700  Biso   1.000  H
  H126     1.0000 0.22450  0.51600  0.98700  Biso   1.000  H
  H127     1.0000 0.72450  0.98400  0.01300  Biso   1.000  H
  H128     1.0000 0.77550  0.01600  0.51300  Biso   1.000  H
  C169     1.0000 0.77160  0.39260  0.51457  Biso   1.000  C
  C170     1.0000 0.72840  0.60740  0.01457  Biso   1.000  C
  C171     1.0000 0.22840  0.89260  0.98543  Biso   1.000  C
  C172     1.0000 0.27160  0.10740  0.48543  Biso   1.000  C
  C173     1.0000 0.22840  0.60740  0.48543  Biso   1.000  C
  C174     1.0000 0.27160  0.39260  0.98543  Biso   1.000  C
  C175     1.0000 0.77160  0.10740  0.01457  Biso   1.000  C
  C176     1.0000 0.72840  0.89260  0.51457  Biso   1.000  C
  H129     1.0000 0.71780  0.36860  0.49890  Biso   1.000  H
  H130     1.0000 0.78220  0.63140  0.99890  Biso   1.000  H
  H131     1.0000 0.28220  0.86860  0.00110  Biso   1.000  H
  H132     1.0000 0.21780  0.13140  0.50110  Biso   1.000  H
  H133     1.0000 0.28220  0.63140  0.50110  Biso   1.000  H
  H134     1.0000 0.21780  0.36860  0.00110  Biso   1.000  H
  H135     1.0000 0.71780  0.13140  0.99890  Biso   1.000  H
  H136     1.0000 0.78220  0.86860  0.49890  Biso   1.000  H
  H137     1.0000 0.83410  0.36140  0.50930  Biso   1.000  H
  H138     1.0000 0.66590  0.63860  0.00930  Biso   1.000  H
  H139     1.0000 0.16590  0.86140  0.99070  Biso   1.000  H
  H140     1.0000 0.33410  0.13860  0.49070  Biso   1.000  H
  H141     1.0000 0.16590  0.63860  0.49070  Biso   1.000  H
  H142     1.0000 0.33410  0.36140  0.99070  Biso   1.000  H
  H143     1.0000 0.83410  0.13860  0.00930  Biso   1.000  H
  H144     1.0000 0.66590  0.86140  0.50930  Biso   1.000  H
  C177     1.0000 0.72990  0.29781  0.56261  Biso   1.000  C
  C178     1.0000 0.77010  0.70219  0.06261  Biso   1.000  C
  C179     1.0000 0.27010  0.79781  0.93739  Biso   1.000  C
  C180     1.0000 0.22990  0.20219  0.43739  Biso   1.000  C
  C181     1.0000 0.27010  0.70219  0.43739  Biso   1.000  C
  C182     1.0000 0.22990  0.29781  0.93739  Biso   1.000  C
  C183     1.0000 0.72990  0.20219  0.06261  Biso   1.000  C
  C184     1.0000 0.77010  0.79781  0.56261  Biso   1.000  C
  H145     1.0000 0.79030  0.26410  0.55700  Biso   1.000  H
  H146     1.0000 0.70970  0.73590  0.05700  Biso   1.000  H
  H147     1.0000 0.20970  0.76410  0.94300  Biso   1.000  H
  H148     1.0000 0.29030  0.23590  0.44300  Biso   1.000  H
  H149     1.0000 0.20970  0.73590  0.44300  Biso   1.000  H
  H150     1.0000 0.29030  0.26410  0.94300  Biso   1.000  H
  H151     1.0000 0.79030  0.23590  0.05700  Biso   1.000  H
  H152     1.0000 0.70970  0.76410  0.55700  Biso   1.000  H
  H153     1.0000 0.67360  0.27450  0.54790  Biso   1.000  H
  H154     1.0000 0.82640  0.72550  0.04790  Biso   1.000  H
  H155     1.0000 0.32640  0.77450  0.95210  Biso   1.000  H
  H156     1.0000 0.17360  0.22550  0.45210  Biso   1.000  H
  H157     1.0000 0.32640  0.72550  0.45210  Biso   1.000  H
  H158     1.0000 0.17360  0.27450  0.95210  Biso   1.000  H
  H159     1.0000 0.67360  0.22550  0.04790  Biso   1.000  H
  H160     1.0000 0.82640  0.77450  0.54790  Biso   1.000  H
  C185     1.0000 0.70670  0.29230  0.60272  Biso   1.000  C
  C186     1.0000 0.79330  0.70770  0.10272  Biso   1.000  C
  C187     1.0000 0.29330  0.79230  0.89728  Biso   1.000  C
  C188     1.0000 0.20670  0.20770  0.39728  Biso   1.000  C
  C189     1.0000 0.29330  0.70770  0.39728  Biso   1.000  C
  C190     1.0000 0.20670  0.29230  0.89728  Biso   1.000  C
  C191     1.0000 0.70670  0.20770  0.10272  Biso   1.000  C
  C192     1.0000 0.79330  0.79230  0.60272  Biso   1.000  C
  H161     1.0000 0.64880  0.32890  0.60860  Biso   1.000  H
  H162     1.0000 0.85120  0.67110  0.10860  Biso   1.000  H
  H163     1.0000 0.35120  0.82890  0.89140  Biso   1.000  H
  H164     1.0000 0.14880  0.17110  0.39140  Biso   1.000  H
  H165     1.0000 0.35120  0.67110  0.39140  Biso   1.000  H
  H166     1.0000 0.14880  0.32890  0.89140  Biso   1.000  H
  H167     1.0000 0.64880  0.17110  0.10860  Biso   1.000  H
  H168     1.0000 0.85120  0.82890  0.60860  Biso   1.000  H
  H169     1.0000 0.68900  0.23330  0.60930  Biso   1.000  H
  H170     1.0000 0.81100  0.76670  0.10930  Biso   1.000  H
  H171     1.0000 0.31100  0.73330  0.89070  Biso   1.000  H
  H172     1.0000 0.18900  0.26670  0.39070  Biso   1.000  H
  H173     1.0000 0.31100  0.76670  0.39070  Biso   1.000  H
  H174     1.0000 0.18900  0.23330  0.89070  Biso   1.000  H
  H175     1.0000 0.68900  0.26670  0.10930  Biso   1.000  H
  H176     1.0000 0.81100  0.73330  0.60930  Biso   1.000  H
  C193     1.0000 0.77290  0.31246  0.66262  Biso   1.000  C
  C194     1.0000 0.72710  0.68754  0.16262  Biso   1.000  C
  C195     1.0000 0.22710  0.81246  0.83738  Biso   1.000  C
  C196     1.0000 0.27290  0.18754  0.33738  Biso   1.000  C
  C197     1.0000 0.22710  0.68754  0.33738  Biso   1.000  C
  C198     1.0000 0.27290  0.31246  0.83738  Biso   1.000  C
  C199     1.0000 0.77290  0.18754  0.16262  Biso   1.000  C
  C200     1.0000 0.72710  0.81246  0.66262  Biso   1.000  C
  H177     1.0000 0.75710  0.25320  0.66930  Biso   1.000  H
  H178     1.0000 0.74290  0.74680  0.16930  Biso   1.000  H
  H179     1.0000 0.24290  0.75320  0.83070  Biso   1.000  H
  H180     1.0000 0.25710  0.24680  0.33070  Biso   1.000  H
  H181     1.0000 0.24290  0.74680  0.33070  Biso   1.000  H
  H182     1.0000 0.25710  0.25320  0.83070  Biso   1.000  H
  H183     1.0000 0.75710  0.24680  0.16930  Biso   1.000  H
  H184     1.0000 0.74290  0.75320  0.66930  Biso   1.000  H
  H185     1.0000 0.71510  0.34830  0.66950  Biso   1.000  H
  H186     1.0000 0.78490  0.65170  0.16950  Biso   1.000  H
  H187     1.0000 0.28490  0.84830  0.83050  Biso   1.000  H
  H188     1.0000 0.21510  0.15170  0.33050  Biso   1.000  H
  H189     1.0000 0.28490  0.65170  0.33050  Biso   1.000  H
  H190     1.0000 0.21510  0.34830  0.83050  Biso   1.000  H
  H191     1.0000 0.71510  0.15170  0.16950  Biso   1.000  H
  H192     1.0000 0.78490  0.84830  0.66950  Biso   1.000  H
  C201     1.0000 0.86330  0.34090  0.68302  Biso   1.000  C
  C202     1.0000 0.63670  0.65910  0.18302  Biso   1.000  C
  C203     1.0000 0.13670  0.84090  0.81698  Biso   1.000  C
  C204     1.0000 0.36330  0.15910  0.31698  Biso   1.000  C
  C205     1.0000 0.13670  0.65910  0.31698  Biso   1.000  C
  C206     1.0000 0.36330  0.34090  0.81698  Biso   1.000  C
  C207     1.0000 0.86330  0.15910  0.18302  Biso   1.000  C
  C208     1.0000 0.63670  0.84090  0.68302  Biso   1.000  C
  H193     1.0000 0.85490  0.33040  0.71000  Biso   1.000  H
  H194     1.0000 0.64510  0.66960  0.21000  Biso   1.000  H
  H195     1.0000 0.14510  0.83040  0.79000  Biso   1.000  H
  H196     1.0000 0.35490  0.16960  0.29000  Biso   1.000  H
  H197     1.0000 0.14510  0.66960  0.29000  Biso   1.000  H
  H198     1.0000 0.35490  0.33040  0.79000  Biso   1.000  H
  H199     1.0000 0.85490  0.16960  0.21000  Biso   1.000  H
  H200     1.0000 0.64510  0.83040  0.71000  Biso   1.000  H
  H201     1.0000 0.92240  0.30890  0.67430  Biso   1.000  H
  H202     1.0000 0.57760  0.69110  0.17430  Biso   1.000  H
  H203     1.0000 0.07760  0.80890  0.82570  Biso   1.000  H
  H204     1.0000 0.42240  0.19110  0.32570  Biso   1.000  H
  H205     1.0000 0.07760  0.69110  0.32570  Biso   1.000  H
  H206     1.0000 0.42240  0.30890  0.82570  Biso   1.000  H
  H207     1.0000 0.92240  0.19110  0.17430  Biso   1.000  H
  H208     1.0000 0.57760  0.80890  0.67430  Biso   1.000  H
  C209     1.0000 0.96160  0.46130  0.69587  Biso   1.000  C
  C210     1.0000 0.53840  0.53870  0.19587  Biso   1.000  C
  C211     1.0000 0.03840  0.96130  0.80413  Biso   1.000  C
  C212     1.0000 0.46160  0.03870  0.30413  Biso   1.000  C
  C213     1.0000 0.03840  0.53870  0.30413  Biso   1.000  C
  C214     1.0000 0.46160  0.46130  0.80413  Biso   1.000  C
  C215     1.0000 0.96160  0.03870  0.19587  Biso   1.000  C
  C216     1.0000 0.53840  0.96130  0.69587  Biso   1.000  C
  H209     1.0000 0.02300  0.43190  0.68750  Biso   1.000  H
  H210     1.0000 0.47700  0.56810  0.18750  Biso   1.000  H
  H211     1.0000 0.97700  0.93190  0.81250  Biso   1.000  H
  H212     1.0000 0.52300  0.06810  0.31250  Biso   1.000  H
  H213     1.0000 0.97700  0.56810  0.31250  Biso   1.000  H
  H214     1.0000 0.52300  0.43190  0.81250  Biso   1.000  H
  H215     1.0000 0.02300  0.06810  0.18750  Biso   1.000  H
  H216     1.0000 0.47700  0.93190  0.68750  Biso   1.000  H
  H217     1.0000 0.95360  0.45160  0.72290  Biso   1.000  H
  H218     1.0000 0.54640  0.54840  0.22290  Biso   1.000  H
  H219     1.0000 0.04640  0.95160  0.77710  Biso   1.000  H
  H220     1.0000 0.45360  0.04840  0.27710  Biso   1.000  H
  H221     1.0000 0.04640  0.54840  0.27710  Biso   1.000  H
  H222     1.0000 0.45360  0.45160  0.77710  Biso   1.000  H
  H223     1.0000 0.95360  0.04840  0.22290  Biso   1.000  H
  H224     1.0000 0.54640  0.95160  0.72290  Biso   1.000  H
  C217     1.0000 0.97020  0.55360  0.68830  Biso   1.000  C
  C218     1.0000 0.52980  0.44640  0.18830  Biso   1.000  C
  C219     1.0000 0.02980  0.05360  0.81170  Biso   1.000  C
  C220     1.0000 0.47020  0.94640  0.31170  Biso   1.000  C
  C221     1.0000 0.02980  0.44640  0.31170  Biso   1.000  C
  C222     1.0000 0.47020  0.55360  0.81170  Biso   1.000  C
  C223     1.0000 0.97020  0.94640  0.18830  Biso   1.000  C
  C224     1.0000 0.52980  0.05360  0.68830  Biso   1.000  C
  H225     1.0000 0.90690  0.58240  0.69480  Biso   1.000  H
  H226     1.0000 0.59310  0.41760  0.19480  Biso   1.000  H
  H227     1.0000 0.09310  0.08240  0.80520  Biso   1.000  H
  H228     1.0000 0.40690  0.91760  0.30520  Biso   1.000  H
  H229     1.0000 0.09310  0.41760  0.30520  Biso   1.000  H
  H230     1.0000 0.40690  0.58240  0.80520  Biso   1.000  H
  H231     1.0000 0.90690  0.91760  0.19480  Biso   1.000  H
  H232     1.0000 0.59310  0.08240  0.69480  Biso   1.000  H
  H233     1.0000 0.02440  0.57830  0.70350  Biso   1.000  H
  H234     1.0000 0.47560  0.42170  0.20350  Biso   1.000  H
  H235     1.0000 0.97560  0.07830  0.79650  Biso   1.000  H
  H236     1.0000 0.52440  0.92170  0.29650  Biso   1.000  H
  H237     1.0000 0.97560  0.42170  0.29650  Biso   1.000  H
  H238     1.0000 0.52440  0.57830  0.79650  Biso   1.000  H
  H239     1.0000 0.02440  0.92170  0.20350  Biso   1.000  H
  H240     1.0000 0.47560  0.07830  0.70350  Biso   1.000  H
  C225     1.0000 0.01070  0.65042  0.64049  Biso   1.000  C
  C226     1.0000 0.48930  0.34958  0.14049  Biso   1.000  C
  C227     1.0000 0.98930  0.15042  0.85951  Biso   1.000  C
  C228     1.0000 0.51070  0.84958  0.35951  Biso   1.000  C
  C229     1.0000 0.98930  0.34958  0.35951  Biso   1.000  C
  C230     1.0000 0.51070  0.65042  0.85951  Biso   1.000  C
  C231     1.0000 0.01070  0.84958  0.14049  Biso   1.000  C
  C232     1.0000 0.48930  0.15042  0.64049  Biso   1.000  C
  H241     1.0000 0.06580  0.67270  0.65600  Biso   1.000  H
  H242     1.0000 0.43420  0.32730  0.15600  Biso   1.000  H
  H243     1.0000 0.93420  0.17270  0.84400  Biso   1.000  H
  H244     1.0000 0.56580  0.82730  0.34400  Biso   1.000  H
  H245     1.0000 0.93420  0.32730  0.34400  Biso   1.000  H
  H246     1.0000 0.56580  0.67270  0.84400  Biso   1.000  H
  H247     1.0000 0.06580  0.82730  0.15600  Biso   1.000  H
  H248     1.0000 0.43420  0.17270  0.65600  Biso   1.000  H
  H249     1.0000 0.95050  0.68520  0.64510  Biso   1.000  H
  H250     1.0000 0.54950  0.31480  0.14510  Biso   1.000  H
  H251     1.0000 0.04950  0.18520  0.85490  Biso   1.000  H
  H252     1.0000 0.45050  0.81480  0.35490  Biso   1.000  H
  H253     1.0000 0.04950  0.31480  0.35490  Biso   1.000  H
  H254     1.0000 0.45050  0.68520  0.85490  Biso   1.000  H
  H255     1.0000 0.95050  0.81480  0.14510  Biso   1.000  H
  H256     1.0000 0.54950  0.18520  0.64510  Biso   1.000  H
  C233     1.0000 0.03850  0.65450  0.60047  Biso   1.000  C
  C234     1.0000 0.46150  0.34550  0.10047  Biso   1.000  C
  C235     1.0000 0.96150  0.15450  0.89953  Biso   1.000  C
  C236     1.0000 0.53850  0.84550  0.39953  Biso   1.000  C
  C237     1.0000 0.96150  0.34550  0.39953  Biso   1.000  C
  C238     1.0000 0.53850  0.65450  0.89953  Biso   1.000  C
  C239     1.0000 0.03850  0.84550  0.10047  Biso   1.000  C
  C240     1.0000 0.46150  0.15450  0.60047  Biso   1.000  C
  H257     1.0000 0.05850  0.71300  0.59400  Biso   1.000  H
  H258     1.0000 0.44150  0.28700  0.09400  Biso   1.000  H
  H259     1.0000 0.94150  0.21300  0.90600  Biso   1.000  H
  H260     1.0000 0.55850  0.78700  0.40600  Biso   1.000  H
  H261     1.0000 0.94150  0.28700  0.40600  Biso   1.000  H
  H262     1.0000 0.55850  0.71300  0.90600  Biso   1.000  H
  H263     1.0000 0.05850  0.78700  0.09400  Biso   1.000  H
  H264     1.0000 0.44150  0.21300  0.59400  Biso   1.000  H
  H265     1.0000 0.09610  0.61670  0.59570  Biso   1.000  H
  H266     1.0000 0.40390  0.38330  0.09570  Biso   1.000  H
  H267     1.0000 0.90390  0.11670  0.90430  Biso   1.000  H
  H268     1.0000 0.59610  0.88330  0.40430  Biso   1.000  H
  H269     1.0000 0.90390  0.38330  0.40430  Biso   1.000  H
  H270     1.0000 0.59610  0.61670  0.90430  Biso   1.000  H
  H271     1.0000 0.09610  0.88330  0.09570  Biso   1.000  H
  H272     1.0000 0.40390  0.11670  0.59570  Biso   1.000  H
  C241     1.0000 0.04750  0.20701  0.56462  Biso   1.000  C
  C242     1.0000 0.45250  0.79299  0.06462  Biso   1.000  C
  C243     1.0000 0.95250  0.70701  0.93538  Biso   1.000  C
  C244     1.0000 0.54750  0.29299  0.43538  Biso   1.000  C
  C245     1.0000 0.95250  0.79299  0.43538  Biso   1.000  C
  C246     1.0000 0.54750  0.20701  0.93538  Biso   1.000  C
  C247     1.0000 0.04750  0.29299  0.06462  Biso   1.000  C
  C248     1.0000 0.45250  0.70701  0.56462  Biso   1.000  C
  C249     1.0000 0.00910  0.19610  0.60174  Biso   1.000  C
  C250     1.0000 0.49090  0.80390  0.10174  Biso   1.000  C
  C251     1.0000 0.99090  0.69610  0.89826  Biso   1.000  C
  C252     1.0000 0.50910  0.30390  0.39826  Biso   1.000  C
  C253     1.0000 0.99090  0.80390  0.39826  Biso   1.000  C
  C254     1.0000 0.50910  0.19610  0.89826  Biso   1.000  C
  C255     1.0000 0.00910  0.30390  0.10174  Biso   1.000  C
  C256     1.0000 0.49090  0.69610  0.60174  Biso   1.000  C
  H273     1.0000 0.06480  0.19510  0.61950  Biso   1.000  H
  H274     1.0000 0.43520  0.80490  0.11950  Biso   1.000  H
  H275     1.0000 0.93520  0.69510  0.88050  Biso   1.000  H
  H276     1.0000 0.56480  0.30490  0.38050  Biso   1.000  H
  H277     1.0000 0.93520  0.80490  0.38050  Biso   1.000  H
  H278     1.0000 0.56480  0.19510  0.88050  Biso   1.000  H
  H279     1.0000 0.06480  0.30490  0.11950  Biso   1.000  H
  H280     1.0000 0.43520  0.69510  0.61950  Biso   1.000  H
  H281     1.0000 0.97230  0.14260  0.60320  Biso   1.000  H
  H282     1.0000 0.52770  0.85740  0.10320  Biso   1.000  H
  H283     1.0000 0.02770  0.64260  0.89680  Biso   1.000  H
  H284     1.0000 0.47230  0.35740  0.39680  Biso   1.000  H
  H285     1.0000 0.02770  0.85740  0.39680  Biso   1.000  H
  H286     1.0000 0.47230  0.14260  0.89680  Biso   1.000  H
  H287     1.0000 0.97230  0.35740  0.10320  Biso   1.000  H
  H288     1.0000 0.52770  0.64260  0.60320  Biso   1.000  H
  H289     1.0000 0.96420  0.24310  0.60780  Biso   1.000  H
  H290     1.0000 0.53580  0.75690  0.10780  Biso   1.000  H
  H291     1.0000 0.03580  0.74310  0.89220  Biso   1.000  H
  H292     1.0000 0.46420  0.25690  0.39220  Biso   1.000  H
  H293     1.0000 0.03580  0.75690  0.39220  Biso   1.000  H
  H294     1.0000 0.46420  0.24310  0.89220  Biso   1.000  H
  H295     1.0000 0.96420  0.25690  0.10780  Biso   1.000  H
  H296     1.0000 0.53580  0.74310  0.60780  Biso   1.000  H
  Cu1      1.0000 0.28219  0.66134  0.69067  Biso   1.000  Cu
  Cu2      1.0000 0.21781  0.33866  0.19067  Biso   1.000  Cu
  Cu3      1.0000 0.71781  0.16134  0.80933  Biso   1.000  Cu
  Cu4      1.0000 0.78219  0.83866  0.30933  Biso   1.000  Cu
  Cu5      1.0000 0.71781  0.33866  0.30933  Biso   1.000  Cu
  Cu6      1.0000 0.78219  0.66134  0.80933  Biso   1.000  Cu
  Cu7      1.0000 0.28219  0.83866  0.19067  Biso   1.000  Cu
  Cu8      1.0000 0.21781  0.16134  0.69067  Biso   1.000  Cu
  K1       1.0000 0.86317  0.47907  0.60181  Biso   1.000  K
  K2       1.0000 0.63683  0.52093  0.10181  Biso   1.000  K
  K3       1.0000 0.13683  0.97907  0.89819  Biso   1.000  K
  K4       1.0000 0.36317  0.02093  0.39819  Biso   1.000  K
  K5       1.0000 0.13683  0.52093  0.39819  Biso   1.000  K
  K6       1.0000 0.36317  0.47907  0.89819  Biso   1.000  K
  K7       1.0000 0.86317  0.02093  0.10181  Biso   1.000  K
  K8       1.0000 0.63683  0.97907  0.60181  Biso   1.000  K
  N1       1.0000 0.43133  0.64603  0.69736  Biso   1.000  N
  N2       1.0000 0.06867  0.35397  0.19736  Biso   1.000  N
  N3       1.0000 0.56867  0.14603  0.80264  Biso   1.000  N
  N4       1.0000 0.93133  0.85397  0.30264  Biso   1.000  N
  N5       1.0000 0.56867  0.35397  0.30264  Biso   1.000  N
  N6       1.0000 0.93133  0.64603  0.80264  Biso   1.000  N
  N7       1.0000 0.43133  0.85397  0.19736  Biso   1.000  N
  N8       1.0000 0.06867  0.14603  0.69736  Biso   1.000  N
  N9       1.0000 0.70795  0.57714  0.63595  Biso   1.000  N
  N10      1.0000 0.79205  0.42286  0.13595  Biso   1.000  N
  N11      1.0000 0.29205  0.07714  0.86405  Biso   1.000  N
  N12      1.0000 0.20795  0.92286  0.36405  Biso   1.000  N
  N13      1.0000 0.29205  0.42286  0.36405  Biso   1.000  N
  N14      1.0000 0.20795  0.57714  0.86405  Biso   1.000  N
  N15      1.0000 0.70795  0.92286  0.13595  Biso   1.000  N
  N16      1.0000 0.79205  0.07714  0.63595  Biso   1.000  N
  N17      1.0000 0.25863  0.76703  0.66328  Biso   1.000  N
  N18      1.0000 0.24137  0.23297  0.16328  Biso   1.000  N
  N19      1.0000 0.74137  0.26703  0.83672  Biso   1.000  N
  N20      1.0000 0.75863  0.73297  0.33672  Biso   1.000  N
  N21      1.0000 0.74137  0.23297  0.33672  Biso   1.000  N
  N22      1.0000 0.75863  0.76703  0.83672  Biso   1.000  N
  N23      1.0000 0.25863  0.73297  0.16328  Biso   1.000  N
  N24      1.0000 0.24137  0.26703  0.66328  Biso   1.000  N
  N25      1.0000 0.44657  0.91019  0.58680  Biso   1.000  N
  N26      1.0000 0.05343  0.08981  0.08680  Biso   1.000  N
  N27      1.0000 0.55343  0.41019  0.91320  Biso   1.000  N
  N28      1.0000 0.94657  0.58981  0.41320  Biso   1.000  N
  N29      1.0000 0.55343  0.08981  0.41320  Biso   1.000  N
  N30      1.0000 0.94657  0.91019  0.91320  Biso   1.000  N
  N31      1.0000 0.44657  0.58981  0.08680  Biso   1.000  N
  N32      1.0000 0.05343  0.41019  0.58680  Biso   1.000  N
  N33      1.0000 0.24861  0.05573  0.66191  Biso   1.000  N
  N34      1.0000 0.25139  0.94427  0.16191  Biso   1.000  N
  N35      1.0000 0.75139  0.55573  0.83809  Biso   1.000  N
  N36      1.0000 0.74861  0.44427  0.33809  Biso   1.000  N
  N37      1.0000 0.75139  0.94427  0.33809  Biso   1.000  N
  N38      1.0000 0.74861  0.05573  0.83809  Biso   1.000  N
  N39      1.0000 0.24861  0.44427  0.16191  Biso   1.000  N
  N40      1.0000 0.25139  0.55573  0.66191  Biso   1.000  N
  N41      1.0000 0.71688  0.64472  0.76019  Biso   1.000  N
  N42      1.0000 0.78312  0.35528  0.26019  Biso   1.000  N
  N43      1.0000 0.28312  0.14472  0.73981  Biso   1.000  N
  N44      1.0000 0.21688  0.85528  0.23981  Biso   1.000  N
  N45      1.0000 0.28312  0.35528  0.23981  Biso   1.000  N
  N46      1.0000 0.21688  0.64472  0.73981  Biso   1.000  N
  N47      1.0000 0.71688  0.85528  0.26019  Biso   1.000  N
  N48      1.0000 0.78312  0.14472  0.76019  Biso   1.000  N
  N49      1.0000 0.07710  0.21727  0.53551  Biso   1.000  N
  N50      1.0000 0.42290  0.78273  0.03551  Biso   1.000  N
  N51      1.0000 0.92290  0.71727  0.96449  Biso   1.000  N
  N52      1.0000 0.57710  0.28273  0.46449  Biso   1.000  N
  N53      1.0000 0.92290  0.78273  0.46449  Biso   1.000  N
  N54      1.0000 0.57710  0.21727  0.96449  Biso   1.000  N
  N55      1.0000 0.07710  0.28273  0.03551  Biso   1.000  N
  N56      1.0000 0.42290  0.71727  0.53551  Biso   1.000  N
  O1       1.0000 0.86873  0.51421  0.52610  Biso   1.000  O
  O2       1.0000 0.63127  0.48579  0.02610  Biso   1.000  O
  O3       1.0000 0.13127  0.01421  0.97390  Biso   1.000  O
  O4       1.0000 0.36873  0.98579  0.47390  Biso   1.000  O
  O5       1.0000 0.13127  0.48579  0.47390  Biso   1.000  O
  O6       1.0000 0.36873  0.51421  0.97390  Biso   1.000  O
  O7       1.0000 0.86873  0.98579  0.02610  Biso   1.000  O
  O8       1.0000 0.63127  0.01421  0.52610  Biso   1.000  O
  O9       1.0000 0.74616  0.38415  0.55267  Biso   1.000  O
  O10      1.0000 0.75384  0.61585  0.05267  Biso   1.000  O
  O11      1.0000 0.25384  0.88415  0.94733  Biso   1.000  O
  O12      1.0000 0.24616  0.11585  0.44733  Biso   1.000  O
  O13      1.0000 0.25384  0.61585  0.44733  Biso   1.000  O
  O14      1.0000 0.24616  0.38415  0.94733  Biso   1.000  O
  O15      1.0000 0.74616  0.11585  0.05267  Biso   1.000  O
  O16      1.0000 0.75384  0.88415  0.55267  Biso   1.000  O
  O17      1.0000 0.79133  0.31858  0.62369  Biso   1.000  O
  O18      1.0000 0.70867  0.68142  0.12369  Biso   1.000  O
  O19      1.0000 0.20867  0.81858  0.87631  Biso   1.000  O
  O20      1.0000 0.29133  0.18142  0.37631  Biso   1.000  O
  O21      1.0000 0.20867  0.68142  0.37631  Biso   1.000  O
  O22      1.0000 0.29133  0.31858  0.87631  Biso   1.000  O
  O23      1.0000 0.79133  0.18142  0.12369  Biso   1.000  O
  O24      1.0000 0.70867  0.81858  0.62369  Biso   1.000  O
  O25      1.0000 0.87752  0.42893  0.67650  Biso   1.000  O
  O26      1.0000 0.62248  0.57107  0.17650  Biso   1.000  O
  O27      1.0000 0.12248  0.92893  0.82350  Biso   1.000  O
  O28      1.0000 0.37752  0.07107  0.32350  Biso   1.000  O
  O29      1.0000 0.12248  0.57107  0.32350  Biso   1.000  O
  O30      1.0000 0.37752  0.42893  0.82350  Biso   1.000  O
  O31      1.0000 0.87752  0.07107  0.17650  Biso   1.000  O
  O32      1.0000 0.62248  0.92893  0.67650  Biso   1.000  O
  O33      1.0000 0.99138  0.56499  0.64988  Biso   1.000  O
  O34      1.0000 0.50862  0.43501  0.14988  Biso   1.000  O
  O35      1.0000 0.00862  0.06499  0.85012  Biso   1.000  O
  O36      1.0000 0.49138  0.93501  0.35012  Biso   1.000  O
  O37      1.0000 0.00862  0.43501  0.35012  Biso   1.000  O
  O38      1.0000 0.49138  0.56499  0.85012  Biso   1.000  O
  O39      1.0000 0.99138  0.93501  0.14988  Biso   1.000  O
  O40      1.0000 0.50862  0.06499  0.64988  Biso   1.000  O
  O41      1.0000 0.95576  0.62922  0.57788  Biso   1.000  O
  O42      1.0000 0.54424  0.37078  0.07788  Biso   1.000  O
  O43      1.0000 0.04424  0.12922  0.92212  Biso   1.000  O
  O44      1.0000 0.45576  0.87078  0.42212  Biso   1.000  O
  O45      1.0000 0.04424  0.37078  0.42212  Biso   1.000  O
  O46      1.0000 0.45576  0.62922  0.92212  Biso   1.000  O
  O47      1.0000 0.95576  0.87078  0.07788  Biso   1.000  O
  O48      1.0000 0.54424  0.12922  0.57788  Biso   1.000  O
