data_image0
_cell_length_a       13.5252
_cell_length_b       20.7188
_cell_length_c       27.2475
_cell_angle_alpha    90
_cell_angle_beta     90
_cell_angle_gamma    90

_symmetry_space_group_name_H-M    "P 1"
_symmetry_int_tables_number       1

loop_
  _symmetry_equiv_pos_as_xyz
  'x, y, z'

loop_
  _atom_site_label
  _atom_site_occupancy
  _atom_site_fract_x
  _atom_site_fract_y
  _atom_site_fract_z
  _atom_site_thermal_displace_type
  _atom_site_B_iso_or_equiv
  _atom_site_type_symbol
  Cu1      1.0000 0.33891  0.20017  0.13541  Biso   1.000  Cu
  Cu2      1.0000 0.16109  0.79983  0.63541  Biso   1.000  Cu
  Cu3      1.0000 0.66109  0.70017  0.36459  Biso   1.000  Cu
  Cu4      1.0000 0.83891  0.29983  0.86459  Biso   1.000  Cu
  Cu5      1.0000 0.66109  0.79983  0.86459  Biso   1.000  Cu
  Cu6      1.0000 0.83891  0.20017  0.36459  Biso   1.000  Cu
  Cu7      1.0000 0.33891  0.29983  0.63541  Biso   1.000  Cu
  Cu8      1.0000 0.16109  0.70017  0.13541  Biso   1.000  Cu
  Cu9      1.0000 0.26673  0.08040  0.16025  Biso   1.000  Cu
  Cu10     1.0000 0.23327  0.91960  0.66025  Biso   1.000  Cu
  Cu11     1.0000 0.73327  0.58040  0.33975  Biso   1.000  Cu
  Cu12     1.0000 0.76673  0.41960  0.83975  Biso   1.000  Cu
  Cu13     1.0000 0.73327  0.91960  0.83975  Biso   1.000  Cu
  Cu14     1.0000 0.76673  0.08040  0.33975  Biso   1.000  Cu
  Cu15     1.0000 0.26673  0.41960  0.66025  Biso   1.000  Cu
  Cu16     1.0000 0.23327  0.58040  0.16025  Biso   1.000  Cu
  Cu17     1.0000 0.15023  0.16107  0.10692  Biso   1.000  Cu
  Cu18     1.0000 0.34977  0.83893  0.60692  Biso   1.000  Cu
  Cu19     1.0000 0.84977  0.66107  0.39308  Biso   1.000  Cu
  Cu20     1.0000 0.65023  0.33893  0.89308  Biso   1.000  Cu
  Cu21     1.0000 0.84977  0.83893  0.89308  Biso   1.000  Cu
  Cu22     1.0000 0.65023  0.16107  0.39308  Biso   1.000  Cu
  Cu23     1.0000 0.15023  0.33893  0.60692  Biso   1.000  Cu
  Cu24     1.0000 0.34977  0.66107  0.10692  Biso   1.000  Cu
  Cu25     1.0000 0.32031  0.10748  0.07054  Biso   1.000  Cu
  Cu26     1.0000 0.17969  0.89252  0.57054  Biso   1.000  Cu
  Cu27     1.0000 0.67969  0.60748  0.42946  Biso   1.000  Cu
  Cu28     1.0000 0.82031  0.39252  0.92946  Biso   1.000  Cu
  Cu29     1.0000 0.67969  0.89252  0.92946  Biso   1.000  Cu
  Cu30     1.0000 0.82031  0.10748  0.42946  Biso   1.000  Cu
  Cu31     1.0000 0.32031  0.39252  0.57054  Biso   1.000  Cu
  Cu32     1.0000 0.17969  0.60748  0.07054  Biso   1.000  Cu
  I1       1.0000 0.19572  0.18840  0.20202  Biso   1.000  I
  I2       1.0000 0.30428  0.81160  0.70202  Biso   1.000  I
  I3       1.0000 0.80428  0.68840  0.29798  Biso   1.000  I
  I4       1.0000 0.69572  0.31160  0.79798  Biso   1.000  I
  I5       1.0000 0.80428  0.81160  0.79798  Biso   1.000  I
  I6       1.0000 0.69572  0.18840  0.29798  Biso   1.000  I
  I7       1.0000 0.19572  0.31160  0.70202  Biso   1.000  I
  I8       1.0000 0.30428  0.68840  0.20202  Biso   1.000  I
  I9       1.0000 0.45832  0.09563  0.14228  Biso   1.000  I
  I10      1.0000 0.04168  0.90437  0.64228  Biso   1.000  I
  I11      1.0000 0.54168  0.59563  0.35772  Biso   1.000  I
  I12      1.0000 0.95832  0.40437  0.85772  Biso   1.000  I
  I13      1.0000 0.54168  0.90437  0.85772  Biso   1.000  I
  I14      1.0000 0.95832  0.09563  0.35772  Biso   1.000  I
  I15      1.0000 0.45832  0.40437  0.64228  Biso   1.000  I
  I16      1.0000 0.04168  0.59563  0.14228  Biso   1.000  I
  I17      1.0000 0.27119  0.22793  0.04441  Biso   1.000  I
  I18      1.0000 0.22881  0.77207  0.54441  Biso   1.000  I
  I19      1.0000 0.72881  0.72793  0.45559  Biso   1.000  I
  I20      1.0000 0.77119  0.27207  0.95559  Biso   1.000  I
  I21      1.0000 0.72881  0.77207  0.95559  Biso   1.000  I
  I22      1.0000 0.77119  0.22793  0.45559  Biso   1.000  I
  I23      1.0000 0.27119  0.27207  0.54441  Biso   1.000  I
  I24      1.0000 0.22881  0.72793  0.04441  Biso   1.000  I
  I25      1.0000 0.15551  0.03827  0.08383  Biso   1.000  I
  I26      1.0000 0.34449  0.96173  0.58383  Biso   1.000  I
  I27      1.0000 0.84449  0.53827  0.41617  Biso   1.000  I
  I28      1.0000 0.65551  0.46173  0.91617  Biso   1.000  I
  I29      1.0000 0.84449  0.96173  0.91617  Biso   1.000  I
  I30      1.0000 0.65551  0.03827  0.41617  Biso   1.000  I
  I31      1.0000 0.15551  0.46173  0.58383  Biso   1.000  I
  I32      1.0000 0.34449  0.53827  0.08383  Biso   1.000  I
  S1       1.0000 0.42777  0.28991  0.15763  Biso   1.000  S
  S2       1.0000 0.07223  0.71009  0.65763  Biso   1.000  S
  S3       1.0000 0.57223  0.78991  0.34237  Biso   1.000  S
  S4       1.0000 0.92777  0.21009  0.84237  Biso   1.000  S
  S5       1.0000 0.57223  0.71009  0.84237  Biso   1.000  S
  S6       1.0000 0.92777  0.28991  0.34237  Biso   1.000  S
  S7       1.0000 0.42777  0.21009  0.65763  Biso   1.000  S
  S8       1.0000 0.07223  0.78991  0.15763  Biso   1.000  S
  S9       1.0000 0.25607  0.50780  0.22230  Biso   1.000  S
  S10      1.0000 0.24393  0.49220  0.72230  Biso   1.000  S
  S11      1.0000 0.74393  0.00780  0.27770  Biso   1.000  S
  S12      1.0000 0.75607  0.99220  0.77770  Biso   1.000  S
  S13      1.0000 0.74393  0.49220  0.77770  Biso   1.000  S
  S14      1.0000 0.75607  0.50780  0.27770  Biso   1.000  S
  S15      1.0000 0.25607  0.99220  0.72230  Biso   1.000  S
  S16      1.0000 0.24393  0.00780  0.22230  Biso   1.000  S
  S17      1.0000 0.01185  0.22255  0.08848  Biso   1.000  S
  S18      1.0000 0.48815  0.77745  0.58848  Biso   1.000  S
  S19      1.0000 0.98815  0.72255  0.41152  Biso   1.000  S
  S20      1.0000 0.51185  0.27745  0.91152  Biso   1.000  S
  S21      1.0000 0.98815  0.77745  0.91152  Biso   1.000  S
  S22      1.0000 0.51185  0.22255  0.41152  Biso   1.000  S
  S23      1.0000 0.01185  0.27745  0.58848  Biso   1.000  S
  S24      1.0000 0.48815  0.72255  0.08848  Biso   1.000  S
  S25      1.0000 0.90347  0.43789  0.99400  Biso   1.000  S
  S26      1.0000 0.59653  0.56211  0.49400  Biso   1.000  S
  S27      1.0000 0.09653  0.93789  0.50600  Biso   1.000  S
  S28      1.0000 0.40347  0.06211  0.00600  Biso   1.000  S
  S29      1.0000 0.09653  0.56211  0.00600  Biso   1.000  S
  S30      1.0000 0.40347  0.43789  0.50600  Biso   1.000  S
  S31      1.0000 0.90347  0.06211  0.49400  Biso   1.000  S
  S32      1.0000 0.59653  0.93789  0.99400  Biso   1.000  S
  O1       1.0000 0.55440  0.35910  0.26500  Biso   1.000  O
  O2       1.0000 0.94560  0.64090  0.76500  Biso   1.000  O
  O3       1.0000 0.44560  0.85910  0.23500  Biso   1.000  O
  O4       1.0000 0.05440  0.14090  0.73500  Biso   1.000  O
  O5       1.0000 0.44560  0.64090  0.73500  Biso   1.000  O
  O6       1.0000 0.05440  0.35910  0.23500  Biso   1.000  O
  O7       1.0000 0.55440  0.14090  0.76500  Biso   1.000  O
  O8       1.0000 0.94560  0.85910  0.26500  Biso   1.000  O
  O9       1.0000 0.86980  0.33090  0.15350  Biso   1.000  O
  O10      1.0000 0.63020  0.66910  0.65350  Biso   1.000  O
  O11      1.0000 0.13020  0.83090  0.34650  Biso   1.000  O
  O12      1.0000 0.36980  0.16910  0.84650  Biso   1.000  O
  O13      1.0000 0.13020  0.66910  0.84650  Biso   1.000  O
  O14      1.0000 0.36980  0.33090  0.34650  Biso   1.000  O
  O15      1.0000 0.86980  0.16910  0.65350  Biso   1.000  O
  O16      1.0000 0.63020  0.83090  0.15350  Biso   1.000  O
  N1       1.0000 0.40010  0.39320  0.24530  Biso   1.000  N
  N2       1.0000 0.09990  0.60680  0.74530  Biso   1.000  N
  N3       1.0000 0.59990  0.89320  0.25470  Biso   1.000  N
  N4       1.0000 0.90010  0.10680  0.75470  Biso   1.000  N
  N5       1.0000 0.59990  0.60680  0.75470  Biso   1.000  N
  N6       1.0000 0.90010  0.39320  0.25470  Biso   1.000  N
  N7       1.0000 0.40010  0.10680  0.74530  Biso   1.000  N
  N8       1.0000 0.09990  0.89320  0.24530  Biso   1.000  N
  N9       1.0000 0.96030  0.38840  0.09890  Biso   1.000  N
  N10      1.0000 0.53970  0.61160  0.59890  Biso   1.000  N
  N11      1.0000 0.03970  0.88840  0.40110  Biso   1.000  N
  N12      1.0000 0.46030  0.11160  0.90110  Biso   1.000  N
  N13      1.0000 0.03970  0.61160  0.90110  Biso   1.000  N
  N14      1.0000 0.46030  0.38840  0.40110  Biso   1.000  N
  N15      1.0000 0.96030  0.11160  0.59890  Biso   1.000  N
  N16      1.0000 0.53970  0.88840  0.09890  Biso   1.000  N
  C1       1.0000 0.61510  0.34230  0.14510  Biso   1.000  C
  C2       1.0000 0.88490  0.65770  0.64510  Biso   1.000  C
  C3       1.0000 0.38490  0.84230  0.35490  Biso   1.000  C
  C4       1.0000 0.11510  0.15770  0.85490  Biso   1.000  C
  C5       1.0000 0.38490  0.65770  0.85490  Biso   1.000  C
  C6       1.0000 0.11510  0.34230  0.35490  Biso   1.000  C
  C7       1.0000 0.61510  0.15770  0.64510  Biso   1.000  C
  C8       1.0000 0.88490  0.84230  0.14510  Biso   1.000  C
  H1       1.0000 0.61590  0.34620  0.18130  Biso   1.000  H
  H2       1.0000 0.88410  0.65380  0.68130  Biso   1.000  H
  H3       1.0000 0.38410  0.84620  0.31870  Biso   1.000  H
  H4       1.0000 0.11590  0.15380  0.81870  Biso   1.000  H
  H5       1.0000 0.38410  0.65380  0.81870  Biso   1.000  H
  H6       1.0000 0.11590  0.34620  0.31870  Biso   1.000  H
  H7       1.0000 0.61590  0.15380  0.68130  Biso   1.000  H
  H8       1.0000 0.88410  0.84620  0.18130  Biso   1.000  H
  H9       1.0000 0.68400  0.33510  0.13410  Biso   1.000  H
  H10      1.0000 0.81600  0.66490  0.63410  Biso   1.000  H
  H11      1.0000 0.31600  0.83510  0.36590  Biso   1.000  H
  H12      1.0000 0.18400  0.16490  0.86590  Biso   1.000  H
  H13      1.0000 0.31600  0.66490  0.86590  Biso   1.000  H
  H14      1.0000 0.18400  0.33510  0.36590  Biso   1.000  H
  H15      1.0000 0.68400  0.16490  0.63410  Biso   1.000  H
  H16      1.0000 0.81600  0.83510  0.13410  Biso   1.000  H
  C9       1.0000 0.57840  0.40390  0.12360  Biso   1.000  C
  C10      1.0000 0.92160  0.59610  0.62360  Biso   1.000  C
  C11      1.0000 0.42160  0.90390  0.37640  Biso   1.000  C
  C12      1.0000 0.07840  0.09610  0.87640  Biso   1.000  C
  C13      1.0000 0.42160  0.59610  0.87640  Biso   1.000  C
  C14      1.0000 0.07840  0.40390  0.37640  Biso   1.000  C
  C15      1.0000 0.57840  0.09610  0.62360  Biso   1.000  C
  C16      1.0000 0.92160  0.90390  0.12360  Biso   1.000  C
  H17      1.0000 0.62560  0.43900  0.13130  Biso   1.000  H
  H18      1.0000 0.87440  0.56100  0.63130  Biso   1.000  H
  H19      1.0000 0.37440  0.93900  0.36870  Biso   1.000  H
  H20      1.0000 0.12560  0.06100  0.86870  Biso   1.000  H
  H21      1.0000 0.37440  0.56100  0.86870  Biso   1.000  H
  H22      1.0000 0.12560  0.43900  0.36870  Biso   1.000  H
  H23      1.0000 0.62560  0.06100  0.63130  Biso   1.000  H
  H24      1.0000 0.87440  0.93900  0.13130  Biso   1.000  H
  H25      1.0000 0.51400  0.41510  0.13870  Biso   1.000  H
  H26      1.0000 0.98600  0.58490  0.63870  Biso   1.000  H
  H27      1.0000 0.48600  0.91510  0.36130  Biso   1.000  H
  H28      1.0000 0.01400  0.08490  0.86130  Biso   1.000  H
  H29      1.0000 0.48600  0.58490  0.86130  Biso   1.000  H
  H30      1.0000 0.01400  0.41510  0.36130  Biso   1.000  H
  H31      1.0000 0.51400  0.08490  0.63870  Biso   1.000  H
  H32      1.0000 0.98600  0.91510  0.13870  Biso   1.000  H
  C17      1.0000 0.56580  0.39870  0.06720  Biso   1.000  C
  C18      1.0000 0.93420  0.60130  0.56720  Biso   1.000  C
  C19      1.0000 0.43420  0.89870  0.43280  Biso   1.000  C
  C20      1.0000 0.06580  0.10130  0.93280  Biso   1.000  C
  C21      1.0000 0.43420  0.60130  0.93280  Biso   1.000  C
  C22      1.0000 0.06580  0.39870  0.43280  Biso   1.000  C
  C23      1.0000 0.56580  0.10130  0.56720  Biso   1.000  C
  C24      1.0000 0.93420  0.89870  0.06720  Biso   1.000  C
  H33      1.0000 0.53280  0.43800  0.05450  Biso   1.000  H
  H34      1.0000 0.96720  0.56200  0.55450  Biso   1.000  H
  H35      1.0000 0.46720  0.93800  0.44550  Biso   1.000  H
  H36      1.0000 0.03280  0.06200  0.94550  Biso   1.000  H
  H37      1.0000 0.46720  0.56200  0.94550  Biso   1.000  H
  H38      1.0000 0.03280  0.43800  0.44550  Biso   1.000  H
  H39      1.0000 0.53280  0.06200  0.55450  Biso   1.000  H
  H40      1.0000 0.96720  0.93800  0.05450  Biso   1.000  H
  H41      1.0000 0.63160  0.39540  0.05140  Biso   1.000  H
  H42      1.0000 0.86840  0.60460  0.55140  Biso   1.000  H
  H43      1.0000 0.36840  0.89540  0.44860  Biso   1.000  H
  H44      1.0000 0.13160  0.10460  0.94860  Biso   1.000  H
  H45      1.0000 0.36840  0.60460  0.94860  Biso   1.000  H
  H46      1.0000 0.13160  0.39540  0.44860  Biso   1.000  H
  H47      1.0000 0.63160  0.10460  0.55140  Biso   1.000  H
  H48      1.0000 0.86840  0.89540  0.05140  Biso   1.000  H
  C25      1.0000 0.50550  0.34070  0.05470  Biso   1.000  C
  C26      1.0000 0.99450  0.65930  0.55470  Biso   1.000  C
  C27      1.0000 0.49450  0.84070  0.44530  Biso   1.000  C
  C28      1.0000 0.00550  0.15930  0.94530  Biso   1.000  C
  C29      1.0000 0.49450  0.65930  0.94530  Biso   1.000  C
  C30      1.0000 0.00550  0.34070  0.44530  Biso   1.000  C
  C31      1.0000 0.50550  0.15930  0.55470  Biso   1.000  C
  C32      1.0000 0.99450  0.84070  0.05470  Biso   1.000  C
  H49      1.0000 0.50280  0.33630  0.01860  Biso   1.000  H
  H50      1.0000 0.99720  0.66370  0.51860  Biso   1.000  H
  H51      1.0000 0.49720  0.83630  0.48140  Biso   1.000  H
  H52      1.0000 0.00280  0.16370  0.98140  Biso   1.000  H
  H53      1.0000 0.49720  0.66370  0.98140  Biso   1.000  H
  H54      1.0000 0.00280  0.33630  0.48140  Biso   1.000  H
  H55      1.0000 0.50280  0.16370  0.51860  Biso   1.000  H
  H56      1.0000 0.99720  0.83630  0.01860  Biso   1.000  H
  H57      1.0000 0.43710  0.34750  0.06660  Biso   1.000  H
  H58      1.0000 0.06290  0.65250  0.56660  Biso   1.000  H
  H59      1.0000 0.56290  0.84750  0.43340  Biso   1.000  H
  H60      1.0000 0.93710  0.15250  0.93340  Biso   1.000  H
  H61      1.0000 0.56290  0.65250  0.93340  Biso   1.000  H
  H62      1.0000 0.93710  0.34750  0.43340  Biso   1.000  H
  H63      1.0000 0.43710  0.15250  0.56660  Biso   1.000  H
  H64      1.0000 0.06290  0.84750  0.06660  Biso   1.000  H
  C33      1.0000 0.54420  0.27920  0.07610  Biso   1.000  C
  C34      1.0000 0.95580  0.72080  0.57610  Biso   1.000  C
  C35      1.0000 0.45580  0.77920  0.42390  Biso   1.000  C
  C36      1.0000 0.04420  0.22080  0.92390  Biso   1.000  C
  C37      1.0000 0.45580  0.72080  0.92390  Biso   1.000  C
  C38      1.0000 0.04420  0.27920  0.42390  Biso   1.000  C
  C39      1.0000 0.54420  0.22080  0.57610  Biso   1.000  C
  C40      1.0000 0.95580  0.77920  0.07610  Biso   1.000  C
  H65      1.0000 0.60990  0.26960  0.06180  Biso   1.000  H
  H66      1.0000 0.89010  0.73040  0.56180  Biso   1.000  H
  H67      1.0000 0.39010  0.76960  0.43820  Biso   1.000  H
  H68      1.0000 0.10990  0.23040  0.93820  Biso   1.000  H
  H69      1.0000 0.39010  0.73040  0.93820  Biso   1.000  H
  H70      1.0000 0.10990  0.26960  0.43820  Biso   1.000  H
  H71      1.0000 0.60990  0.23040  0.56180  Biso   1.000  H
  H72      1.0000 0.89010  0.76960  0.06180  Biso   1.000  H
  H73      1.0000 0.49910  0.24330  0.06740  Biso   1.000  H
  H74      1.0000 0.00090  0.75670  0.56740  Biso   1.000  H
  H75      1.0000 0.50090  0.74330  0.43260  Biso   1.000  H
  H76      1.0000 0.99910  0.25670  0.93260  Biso   1.000  H
  H77      1.0000 0.50090  0.75670  0.93260  Biso   1.000  H
  H78      1.0000 0.99910  0.24330  0.43260  Biso   1.000  H
  H79      1.0000 0.49910  0.25670  0.56740  Biso   1.000  H
  H80      1.0000 0.00090  0.74330  0.06740  Biso   1.000  H
  C41      1.0000 0.55290  0.28370  0.13100  Biso   1.000  C
  C42      1.0000 0.94710  0.71630  0.63100  Biso   1.000  C
  C43      1.0000 0.44710  0.78370  0.36900  Biso   1.000  C
  C44      1.0000 0.05290  0.21630  0.86900  Biso   1.000  C
  C45      1.0000 0.44710  0.71630  0.86900  Biso   1.000  C
  C46      1.0000 0.05290  0.28370  0.36900  Biso   1.000  C
  C47      1.0000 0.55290  0.21630  0.63100  Biso   1.000  C
  C48      1.0000 0.94710  0.78370  0.13100  Biso   1.000  C
  H81      1.0000 0.58560  0.24370  0.14360  Biso   1.000  H
  H82      1.0000 0.91440  0.75630  0.64360  Biso   1.000  H
  H83      1.0000 0.41440  0.74370  0.35640  Biso   1.000  H
  H84      1.0000 0.08560  0.25630  0.85640  Biso   1.000  H
  H85      1.0000 0.41440  0.75630  0.85640  Biso   1.000  H
  H86      1.0000 0.08560  0.24370  0.35640  Biso   1.000  H
  H87      1.0000 0.58560  0.25630  0.64360  Biso   1.000  H
  H88      1.0000 0.91440  0.74370  0.14360  Biso   1.000  H
  C49      1.0000 0.45320  0.28370  0.22330  Biso   1.000  C
  C50      1.0000 0.04680  0.71630  0.72330  Biso   1.000  C
  C51      1.0000 0.54680  0.78370  0.27670  Biso   1.000  C
  C52      1.0000 0.95320  0.21630  0.77670  Biso   1.000  C
  C53      1.0000 0.54680  0.71630  0.77670  Biso   1.000  C
  C54      1.0000 0.95320  0.28370  0.27670  Biso   1.000  C
  C55      1.0000 0.45320  0.21630  0.72330  Biso   1.000  C
  C56      1.0000 0.04680  0.78370  0.22330  Biso   1.000  C
  H89      1.0000 0.39620  0.26290  0.23960  Biso   1.000  H
  H90      1.0000 0.10380  0.73710  0.73960  Biso   1.000  H
  H91      1.0000 0.60380  0.76290  0.26040  Biso   1.000  H
  H92      1.0000 0.89620  0.23710  0.76040  Biso   1.000  H
  H93      1.0000 0.60380  0.73710  0.76040  Biso   1.000  H
  H94      1.0000 0.89620  0.26290  0.26040  Biso   1.000  H
  H95      1.0000 0.39620  0.23710  0.73960  Biso   1.000  H
  H96      1.0000 0.10380  0.76290  0.23960  Biso   1.000  H
  H97      1.0000 0.51170  0.25570  0.22820  Biso   1.000  H
  H98      1.0000 0.98830  0.74430  0.72820  Biso   1.000  H
  H99      1.0000 0.48830  0.75570  0.27180  Biso   1.000  H
  H100     1.0000 0.01170  0.24430  0.77180  Biso   1.000  H
  H101     1.0000 0.48830  0.74430  0.77180  Biso   1.000  H
  H102     1.0000 0.01170  0.25570  0.27180  Biso   1.000  H
  H103     1.0000 0.51170  0.24430  0.72820  Biso   1.000  H
  H104     1.0000 0.98830  0.75570  0.22820  Biso   1.000  H
  C57      1.0000 0.47250  0.34880  0.24740  Biso   1.000  C
  C58      1.0000 0.02750  0.65120  0.74740  Biso   1.000  C
  C59      1.0000 0.52750  0.84880  0.25260  Biso   1.000  C
  C60      1.0000 0.97250  0.15120  0.75260  Biso   1.000  C
  C61      1.0000 0.52750  0.65120  0.75260  Biso   1.000  C
  C62      1.0000 0.97250  0.34880  0.25260  Biso   1.000  C
  C63      1.0000 0.47250  0.15120  0.74740  Biso   1.000  C
  C64      1.0000 0.02750  0.84880  0.24740  Biso   1.000  C
  C65      1.0000 0.29650  0.38010  0.23520  Biso   1.000  C
  C66      1.0000 0.20350  0.61990  0.73520  Biso   1.000  C
  C67      1.0000 0.70350  0.88010  0.26480  Biso   1.000  C
  C68      1.0000 0.79650  0.11990  0.76480  Biso   1.000  C
  C69      1.0000 0.70350  0.61990  0.76480  Biso   1.000  C
  C70      1.0000 0.79650  0.38010  0.26480  Biso   1.000  C
  C71      1.0000 0.29650  0.11990  0.73520  Biso   1.000  C
  C72      1.0000 0.20350  0.88010  0.23520  Biso   1.000  C
  H105     1.0000 0.25830  0.38330  0.26610  Biso   1.000  H
  H106     1.0000 0.24170  0.61670  0.76610  Biso   1.000  H
  H107     1.0000 0.74170  0.88330  0.23390  Biso   1.000  H
  H108     1.0000 0.75830  0.11670  0.73390  Biso   1.000  H
  H109     1.0000 0.74170  0.61670  0.73390  Biso   1.000  H
  H110     1.0000 0.75830  0.38330  0.23390  Biso   1.000  H
  H111     1.0000 0.25830  0.11670  0.76610  Biso   1.000  H
  H112     1.0000 0.24170  0.88330  0.26610  Biso   1.000  H
  H113     1.0000 0.28980  0.33550  0.22270  Biso   1.000  H
  H114     1.0000 0.21020  0.66450  0.72270  Biso   1.000  H
  H115     1.0000 0.71020  0.83550  0.27730  Biso   1.000  H
  H116     1.0000 0.78980  0.16450  0.77730  Biso   1.000  H
  H117     1.0000 0.71020  0.66450  0.77730  Biso   1.000  H
  H118     1.0000 0.78980  0.33550  0.27730  Biso   1.000  H
  H119     1.0000 0.28980  0.16450  0.72270  Biso   1.000  H
  H120     1.0000 0.21020  0.83550  0.22270  Biso   1.000  H
  C73      1.0000 0.25400  0.42610  0.19830  Biso   1.000  C
  C74      1.0000 0.24600  0.57390  0.69830  Biso   1.000  C
  C75      1.0000 0.74600  0.92610  0.30170  Biso   1.000  C
  C76      1.0000 0.75400  0.07390  0.80170  Biso   1.000  C
  C77      1.0000 0.74600  0.57390  0.80170  Biso   1.000  C
  C78      1.0000 0.75400  0.42610  0.30170  Biso   1.000  C
  C79      1.0000 0.25400  0.07390  0.69830  Biso   1.000  C
  C80      1.0000 0.24600  0.92610  0.19830  Biso   1.000  C
  H121     1.0000 0.18510  0.41350  0.19060  Biso   1.000  H
  H122     1.0000 0.31490  0.58650  0.69060  Biso   1.000  H
  H123     1.0000 0.81490  0.91350  0.30940  Biso   1.000  H
  H124     1.0000 0.68510  0.08650  0.80940  Biso   1.000  H
  H125     1.0000 0.81490  0.58650  0.80940  Biso   1.000  H
  H126     1.0000 0.68510  0.41350  0.30940  Biso   1.000  H
  H127     1.0000 0.18510  0.08650  0.69060  Biso   1.000  H
  H128     1.0000 0.31490  0.91350  0.19060  Biso   1.000  H
  H129     1.0000 0.29300  0.42410  0.16760  Biso   1.000  H
  H130     1.0000 0.20700  0.57590  0.66760  Biso   1.000  H
  H131     1.0000 0.70700  0.92410  0.33240  Biso   1.000  H
  H132     1.0000 0.79300  0.07590  0.83240  Biso   1.000  H
  H133     1.0000 0.70700  0.57590  0.83240  Biso   1.000  H
  H134     1.0000 0.79300  0.42410  0.33240  Biso   1.000  H
  H135     1.0000 0.29300  0.07590  0.66760  Biso   1.000  H
  H136     1.0000 0.20700  0.92410  0.16760  Biso   1.000  H
  C81      1.0000 0.38690  0.51120  0.23550  Biso   1.000  C
  C82      1.0000 0.11310  0.48880  0.73550  Biso   1.000  C
  C83      1.0000 0.61310  0.01120  0.26450  Biso   1.000  C
  C84      1.0000 0.88690  0.98880  0.76450  Biso   1.000  C
  C85      1.0000 0.61310  0.48880  0.76450  Biso   1.000  C
  C86      1.0000 0.88690  0.51120  0.26450  Biso   1.000  C
  C87      1.0000 0.38690  0.98880  0.73550  Biso   1.000  C
  C88      1.0000 0.11310  0.01120  0.23550  Biso   1.000  C
  H137     1.0000 0.42440  0.50940  0.20430  Biso   1.000  H
  H138     1.0000 0.07560  0.49060  0.70430  Biso   1.000  H
  H139     1.0000 0.57560  0.00940  0.29570  Biso   1.000  H
  H140     1.0000 0.92440  0.99060  0.79570  Biso   1.000  H
  H141     1.0000 0.57560  0.49060  0.79570  Biso   1.000  H
  H142     1.0000 0.92440  0.50940  0.29570  Biso   1.000  H
  H143     1.0000 0.42440  0.99060  0.70430  Biso   1.000  H
  H144     1.0000 0.07560  0.00940  0.20430  Biso   1.000  H
  H145     1.0000 0.40240  0.55270  0.25170  Biso   1.000  H
  H146     1.0000 0.09760  0.44730  0.75170  Biso   1.000  H
  H147     1.0000 0.59760  0.05270  0.24830  Biso   1.000  H
  H148     1.0000 0.90240  0.94730  0.74830  Biso   1.000  H
  H149     1.0000 0.59760  0.44730  0.74830  Biso   1.000  H
  H150     1.0000 0.90240  0.55270  0.24830  Biso   1.000  H
  H151     1.0000 0.40240  0.94730  0.75170  Biso   1.000  H
  H152     1.0000 0.09760  0.05270  0.25170  Biso   1.000  H
  C89      1.0000 0.41940  0.45600  0.26830  Biso   1.000  C
  C90      1.0000 0.08060  0.54400  0.76830  Biso   1.000  C
  C91      1.0000 0.58060  0.95600  0.23170  Biso   1.000  C
  C92      1.0000 0.91940  0.04400  0.73170  Biso   1.000  C
  C93      1.0000 0.58060  0.54400  0.73170  Biso   1.000  C
  C94      1.0000 0.91940  0.45600  0.23170  Biso   1.000  C
  C95      1.0000 0.41940  0.04400  0.76830  Biso   1.000  C
  C96      1.0000 0.08060  0.95600  0.26830  Biso   1.000  C
  H153     1.0000 0.49100  0.46010  0.27520  Biso   1.000  H
  H154     1.0000 0.00900  0.53990  0.77520  Biso   1.000  H
  H155     1.0000 0.50900  0.96010  0.22480  Biso   1.000  H
  H156     1.0000 0.99100  0.03990  0.72480  Biso   1.000  H
  H157     1.0000 0.50900  0.53990  0.72480  Biso   1.000  H
  H158     1.0000 0.99100  0.46010  0.22480  Biso   1.000  H
  H159     1.0000 0.49100  0.03990  0.77520  Biso   1.000  H
  H160     1.0000 0.00900  0.96010  0.27520  Biso   1.000  H
  H161     1.0000 0.38360  0.45860  0.29990  Biso   1.000  H
  H162     1.0000 0.11640  0.54140  0.79990  Biso   1.000  H
  H163     1.0000 0.61640  0.95860  0.20010  Biso   1.000  H
  H164     1.0000 0.88360  0.04140  0.70010  Biso   1.000  H
  H165     1.0000 0.61640  0.54140  0.70010  Biso   1.000  H
  H166     1.0000 0.88360  0.45860  0.20010  Biso   1.000  H
  H167     1.0000 0.38360  0.04140  0.79990  Biso   1.000  H
  H168     1.0000 0.11640  0.95860  0.29990  Biso   1.000  H
  C97      1.0000 0.86020  0.14090  0.06750  Biso   1.000  C
  C98      1.0000 0.63980  0.85910  0.56750  Biso   1.000  C
  C99      1.0000 0.13980  0.64090  0.43250  Biso   1.000  C
  C100     1.0000 0.36020  0.35910  0.93250  Biso   1.000  C
  C101     1.0000 0.13980  0.85910  0.93250  Biso   1.000  C
  C102     1.0000 0.36020  0.14090  0.43250  Biso   1.000  C
  C103     1.0000 0.86020  0.35910  0.56750  Biso   1.000  C
  C104     1.0000 0.63980  0.64090  0.06750  Biso   1.000  C
  H169     1.0000 0.90950  0.10630  0.06190  Biso   1.000  H
  H170     1.0000 0.59050  0.89370  0.56190  Biso   1.000  H
  H171     1.0000 0.09050  0.60630  0.43810  Biso   1.000  H
  H172     1.0000 0.40950  0.39370  0.93810  Biso   1.000  H
  H173     1.0000 0.09050  0.89370  0.93810  Biso   1.000  H
  H174     1.0000 0.40950  0.10630  0.43810  Biso   1.000  H
  H175     1.0000 0.90950  0.39370  0.56190  Biso   1.000  H
  H176     1.0000 0.59050  0.60630  0.06190  Biso   1.000  H
  H177     1.0000 0.85240  0.16550  0.03660  Biso   1.000  H
  H178     1.0000 0.64760  0.83450  0.53660  Biso   1.000  H
  H179     1.0000 0.14760  0.66550  0.46340  Biso   1.000  H
  H180     1.0000 0.35240  0.33450  0.96340  Biso   1.000  H
  H181     1.0000 0.14760  0.83450  0.96340  Biso   1.000  H
  H182     1.0000 0.35240  0.16550  0.46340  Biso   1.000  H
  H183     1.0000 0.85240  0.33450  0.53660  Biso   1.000  H
  H184     1.0000 0.64760  0.66550  0.03660  Biso   1.000  H
  C105     1.0000 0.76050  0.11110  0.08260  Biso   1.000  C
  C106     1.0000 0.73950  0.88890  0.58260  Biso   1.000  C
  C107     1.0000 0.23950  0.61110  0.41740  Biso   1.000  C
  C108     1.0000 0.26050  0.38890  0.91740  Biso   1.000  C
  C109     1.0000 0.23950  0.88890  0.91740  Biso   1.000  C
  C110     1.0000 0.26050  0.11110  0.41740  Biso   1.000  C
  C111     1.0000 0.76050  0.38890  0.58260  Biso   1.000  C
  C112     1.0000 0.73950  0.61110  0.08260  Biso   1.000  C
  H185     1.0000 0.70950  0.14530  0.08310  Biso   1.000  H
  H186     1.0000 0.79050  0.85470  0.58310  Biso   1.000  H
  H187     1.0000 0.29050  0.64530  0.41690  Biso   1.000  H
  H188     1.0000 0.20950  0.35470  0.91690  Biso   1.000  H
  H189     1.0000 0.29050  0.85470  0.91690  Biso   1.000  H
  H190     1.0000 0.20950  0.14530  0.41690  Biso   1.000  H
  H191     1.0000 0.70950  0.35470  0.58310  Biso   1.000  H
  H192     1.0000 0.79050  0.64530  0.08310  Biso   1.000  H
  H193     1.0000 0.74060  0.07870  0.05770  Biso   1.000  H
  H194     1.0000 0.75940  0.92130  0.55770  Biso   1.000  H
  H195     1.0000 0.25940  0.57870  0.44230  Biso   1.000  H
  H196     1.0000 0.24060  0.42130  0.94230  Biso   1.000  H
  H197     1.0000 0.25940  0.92130  0.94230  Biso   1.000  H
  H198     1.0000 0.24060  0.07870  0.44230  Biso   1.000  H
  H199     1.0000 0.74060  0.42130  0.55770  Biso   1.000  H
  H200     1.0000 0.75940  0.57870  0.05770  Biso   1.000  H
  C113     1.0000 0.76480  0.07940  0.13180  Biso   1.000  C
  C114     1.0000 0.73520  0.92060  0.63180  Biso   1.000  C
  C115     1.0000 0.23520  0.57940  0.36820  Biso   1.000  C
  C116     1.0000 0.26480  0.42060  0.86820  Biso   1.000  C
  C117     1.0000 0.23520  0.92060  0.86820  Biso   1.000  C
  C118     1.0000 0.26480  0.07940  0.36820  Biso   1.000  C
  C119     1.0000 0.76480  0.42060  0.63180  Biso   1.000  C
  C120     1.0000 0.73520  0.57940  0.13180  Biso   1.000  C
  H201     1.0000 0.69820  0.06340  0.14060  Biso   1.000  H
  H202     1.0000 0.80180  0.93660  0.64060  Biso   1.000  H
  H203     1.0000 0.30180  0.56340  0.35940  Biso   1.000  H
  H204     1.0000 0.19820  0.43660  0.85940  Biso   1.000  H
  H205     1.0000 0.30180  0.93660  0.85940  Biso   1.000  H
  H206     1.0000 0.19820  0.06340  0.35940  Biso   1.000  H
  H207     1.0000 0.69820  0.43660  0.64060  Biso   1.000  H
  H208     1.0000 0.80180  0.56340  0.14060  Biso   1.000  H
  H209     1.0000 0.80980  0.04180  0.13010  Biso   1.000  H
  H210     1.0000 0.69020  0.95820  0.63010  Biso   1.000  H
  H211     1.0000 0.19020  0.54180  0.36990  Biso   1.000  H
  H212     1.0000 0.30980  0.45820  0.86990  Biso   1.000  H
  H213     1.0000 0.19020  0.95820  0.86990  Biso   1.000  H
  H214     1.0000 0.30980  0.04180  0.36990  Biso   1.000  H
  H215     1.0000 0.80980  0.45820  0.63010  Biso   1.000  H
  H216     1.0000 0.69020  0.54180  0.13010  Biso   1.000  H
  C121     1.0000 0.79980  0.12390  0.17040  Biso   1.000  C
  C122     1.0000 0.70020  0.87610  0.67040  Biso   1.000  C
  C123     1.0000 0.20020  0.62390  0.32960  Biso   1.000  C
  C124     1.0000 0.29980  0.37610  0.82960  Biso   1.000  C
  C125     1.0000 0.20020  0.87610  0.82960  Biso   1.000  C
  C126     1.0000 0.29980  0.12390  0.32960  Biso   1.000  C
  C127     1.0000 0.79980  0.37610  0.67040  Biso   1.000  C
  C128     1.0000 0.70020  0.62390  0.17040  Biso   1.000  C
  H217     1.0000 0.80520  0.10030  0.20180  Biso   1.000  H
  H218     1.0000 0.69480  0.89970  0.70180  Biso   1.000  H
  H219     1.0000 0.19480  0.60030  0.29820  Biso   1.000  H
  H220     1.0000 0.30520  0.39970  0.79820  Biso   1.000  H
  H221     1.0000 0.19480  0.89970  0.79820  Biso   1.000  H
  H222     1.0000 0.30520  0.10030  0.29820  Biso   1.000  H
  H223     1.0000 0.80520  0.39970  0.70180  Biso   1.000  H
  H224     1.0000 0.69480  0.60030  0.20180  Biso   1.000  H
  H225     1.0000 0.75110  0.15910  0.17470  Biso   1.000  H
  H226     1.0000 0.74890  0.84090  0.67470  Biso   1.000  H
  H227     1.0000 0.24890  0.65910  0.32530  Biso   1.000  H
  H228     1.0000 0.25110  0.34090  0.82530  Biso   1.000  H
  H229     1.0000 0.24890  0.84090  0.82530  Biso   1.000  H
  H230     1.0000 0.25110  0.15910  0.32530  Biso   1.000  H
  H231     1.0000 0.75110  0.34090  0.67470  Biso   1.000  H
  H232     1.0000 0.74890  0.65910  0.17470  Biso   1.000  H
  C129     1.0000 0.90210  0.15320  0.15690  Biso   1.000  C
  C130     1.0000 0.59790  0.84680  0.65690  Biso   1.000  C
  C131     1.0000 0.09790  0.65320  0.34310  Biso   1.000  C
  C132     1.0000 0.40210  0.34680  0.84310  Biso   1.000  C
  C133     1.0000 0.09790  0.84680  0.84310  Biso   1.000  C
  C134     1.0000 0.40210  0.15320  0.34310  Biso   1.000  C
  C135     1.0000 0.90210  0.34680  0.65690  Biso   1.000  C
  C136     1.0000 0.59790  0.65320  0.15690  Biso   1.000  C
  H233     1.0000 0.92200  0.18510  0.18210  Biso   1.000  H
  H234     1.0000 0.57800  0.81490  0.68210  Biso   1.000  H
  H235     1.0000 0.07800  0.68510  0.31790  Biso   1.000  H
  H236     1.0000 0.42200  0.31490  0.81790  Biso   1.000  H
  H237     1.0000 0.07800  0.81490  0.81790  Biso   1.000  H
  H238     1.0000 0.42200  0.18510  0.31790  Biso   1.000  H
  H239     1.0000 0.92200  0.31490  0.68210  Biso   1.000  H
  H240     1.0000 0.57800  0.68510  0.18210  Biso   1.000  H
  H241     1.0000 0.95260  0.11870  0.15590  Biso   1.000  H
  H242     1.0000 0.54740  0.88130  0.65590  Biso   1.000  H
  H243     1.0000 0.04740  0.61870  0.34410  Biso   1.000  H
  H244     1.0000 0.45260  0.38130  0.84410  Biso   1.000  H
  H245     1.0000 0.04740  0.88130  0.84410  Biso   1.000  H
  H246     1.0000 0.45260  0.11870  0.34410  Biso   1.000  H
  H247     1.0000 0.95260  0.38130  0.65590  Biso   1.000  H
  H248     1.0000 0.54740  0.61870  0.15590  Biso   1.000  H
  C137     1.0000 0.89520  0.18520  0.10790  Biso   1.000  C
  C138     1.0000 0.60480  0.81480  0.60790  Biso   1.000  C
  C139     1.0000 0.10480  0.68520  0.39210  Biso   1.000  C
  C140     1.0000 0.39520  0.31480  0.89210  Biso   1.000  C
  C141     1.0000 0.10480  0.81480  0.89210  Biso   1.000  C
  C142     1.0000 0.39520  0.18520  0.39210  Biso   1.000  C
  C143     1.0000 0.89520  0.31480  0.60790  Biso   1.000  C
  C144     1.0000 0.60480  0.68520  0.10790  Biso   1.000  C
  H249     1.0000 0.84530  0.22060  0.11100  Biso   1.000  H
  H250     1.0000 0.65470  0.77940  0.61100  Biso   1.000  H
  H251     1.0000 0.15470  0.72060  0.38900  Biso   1.000  H
  H252     1.0000 0.34530  0.27940  0.88900  Biso   1.000  H
  H253     1.0000 0.15470  0.77940  0.88900  Biso   1.000  H
  H254     1.0000 0.34530  0.22060  0.38900  Biso   1.000  H
  H255     1.0000 0.84530  0.27940  0.61100  Biso   1.000  H
  H256     1.0000 0.65470  0.72060  0.11100  Biso   1.000  H
  C145     1.0000 0.02580  0.28700  0.13370  Biso   1.000  C
  C146     1.0000 0.47420  0.71300  0.63370  Biso   1.000  C
  C147     1.0000 0.97420  0.78700  0.36630  Biso   1.000  C
  C148     1.0000 0.52580  0.21300  0.86630  Biso   1.000  C
  C149     1.0000 0.97420  0.71300  0.86630  Biso   1.000  C
  C150     1.0000 0.52580  0.28700  0.36630  Biso   1.000  C
  C151     1.0000 0.02580  0.21300  0.63370  Biso   1.000  C
  C152     1.0000 0.47420  0.78700  0.13370  Biso   1.000  C
  H257     1.0000 0.02360  0.26810  0.16710  Biso   1.000  H
  H258     1.0000 0.47640  0.73190  0.66710  Biso   1.000  H
  H259     1.0000 0.97640  0.76810  0.33290  Biso   1.000  H
  H260     1.0000 0.52360  0.23190  0.83290  Biso   1.000  H
  H261     1.0000 0.97640  0.73190  0.83290  Biso   1.000  H
  H262     1.0000 0.52360  0.26810  0.33290  Biso   1.000  H
  H263     1.0000 0.02360  0.23190  0.66710  Biso   1.000  H
  H264     1.0000 0.47640  0.76810  0.16710  Biso   1.000  H
  H265     1.0000 0.09110  0.30770  0.12940  Biso   1.000  H
  H266     1.0000 0.40890  0.69230  0.62940  Biso   1.000  H
  H267     1.0000 0.90890  0.80770  0.37060  Biso   1.000  H
  H268     1.0000 0.59110  0.19230  0.87060  Biso   1.000  H
  H269     1.0000 0.90890  0.69230  0.87060  Biso   1.000  H
  H270     1.0000 0.59110  0.30770  0.37060  Biso   1.000  H
  H271     1.0000 0.09110  0.19230  0.62940  Biso   1.000  H
  H272     1.0000 0.40890  0.80770  0.12940  Biso   1.000  H
  C153     1.0000 0.94610  0.33720  0.12900  Biso   1.000  C
  C154     1.0000 0.55390  0.66280  0.62900  Biso   1.000  C
  C155     1.0000 0.05390  0.83720  0.37100  Biso   1.000  C
  C156     1.0000 0.44610  0.16280  0.87100  Biso   1.000  C
  C157     1.0000 0.05390  0.66280  0.87100  Biso   1.000  C
  C158     1.0000 0.44610  0.33720  0.37100  Biso   1.000  C
  C159     1.0000 0.94610  0.16280  0.62900  Biso   1.000  C
  C160     1.0000 0.55390  0.83720  0.12900  Biso   1.000  C
  C161     1.0000 0.88170  0.43530  0.09400  Biso   1.000  C
  C162     1.0000 0.61830  0.56470  0.59400  Biso   1.000  C
  C163     1.0000 0.11830  0.93530  0.40600  Biso   1.000  C
  C164     1.0000 0.38170  0.06470  0.90600  Biso   1.000  C
  C165     1.0000 0.11830  0.56470  0.90600  Biso   1.000  C
  C166     1.0000 0.38170  0.43530  0.40600  Biso   1.000  C
  C167     1.0000 0.88170  0.06470  0.59400  Biso   1.000  C
  C168     1.0000 0.61830  0.93530  0.09400  Biso   1.000  C
  H273     1.0000 0.91010  0.47930  0.09410  Biso   1.000  H
  H274     1.0000 0.58990  0.52070  0.59410  Biso   1.000  H
  H275     1.0000 0.08990  0.97930  0.40590  Biso   1.000  H
  H276     1.0000 0.41010  0.02070  0.90590  Biso   1.000  H
  H277     1.0000 0.08990  0.52070  0.90590  Biso   1.000  H
  H278     1.0000 0.41010  0.47930  0.40590  Biso   1.000  H
  H279     1.0000 0.91010  0.02070  0.59410  Biso   1.000  H
  H280     1.0000 0.58990  0.97930  0.09410  Biso   1.000  H
  H281     1.0000 0.83610  0.43160  0.12230  Biso   1.000  H
  H282     1.0000 0.66390  0.56840  0.62230  Biso   1.000  H
  H283     1.0000 0.16390  0.93160  0.37770  Biso   1.000  H
  H284     1.0000 0.33610  0.06840  0.87770  Biso   1.000  H
  H285     1.0000 0.16390  0.56840  0.87770  Biso   1.000  H
  H286     1.0000 0.33610  0.43160  0.37770  Biso   1.000  H
  H287     1.0000 0.83610  0.06840  0.62230  Biso   1.000  H
  H288     1.0000 0.66390  0.93160  0.12230  Biso   1.000  H
  C169     1.0000 0.82460  0.42470  0.04670  Biso   1.000  C
  C170     1.0000 0.67540  0.57530  0.54670  Biso   1.000  C
  C171     1.0000 0.17540  0.92470  0.45330  Biso   1.000  C
  C172     1.0000 0.32460  0.07530  0.95330  Biso   1.000  C
  C173     1.0000 0.17540  0.57530  0.95330  Biso   1.000  C
  C174     1.0000 0.32460  0.42470  0.45330  Biso   1.000  C
  C175     1.0000 0.82460  0.07530  0.54670  Biso   1.000  C
  C176     1.0000 0.67540  0.92470  0.04670  Biso   1.000  C
  H289     1.0000 0.76780  0.45480  0.04540  Biso   1.000  H
  H290     1.0000 0.73220  0.54520  0.54540  Biso   1.000  H
  H291     1.0000 0.23220  0.95480  0.45460  Biso   1.000  H
  H292     1.0000 0.26780  0.04520  0.95460  Biso   1.000  H
  H293     1.0000 0.23220  0.54520  0.95460  Biso   1.000  H
  H294     1.0000 0.26780  0.45480  0.45460  Biso   1.000  H
  H295     1.0000 0.76780  0.04520  0.54540  Biso   1.000  H
  H296     1.0000 0.73220  0.95480  0.04540  Biso   1.000  H
  H297     1.0000 0.79850  0.38010  0.04590  Biso   1.000  H
  H298     1.0000 0.70150  0.61990  0.54590  Biso   1.000  H
  H299     1.0000 0.20150  0.88010  0.45410  Biso   1.000  H
  H300     1.0000 0.29850  0.11990  0.95410  Biso   1.000  H
  H301     1.0000 0.20150  0.61990  0.95410  Biso   1.000  H
  H302     1.0000 0.29850  0.38010  0.45410  Biso   1.000  H
  H303     1.0000 0.79850  0.11990  0.54590  Biso   1.000  H
  H304     1.0000 0.70150  0.88010  0.04590  Biso   1.000  H
  C177     1.0000 0.00020  0.38230  0.01060  Biso   1.000  C
  C178     1.0000 0.49980  0.61770  0.51060  Biso   1.000  C
  C179     1.0000 0.99980  0.88230  0.48940  Biso   1.000  C
  C180     1.0000 0.50020  0.11770  0.98940  Biso   1.000  C
  C181     1.0000 0.99980  0.61770  0.98940  Biso   1.000  C
  C182     1.0000 0.50020  0.38230  0.48940  Biso   1.000  C
  C183     1.0000 0.00020  0.11770  0.51060  Biso   1.000  C
  C184     1.0000 0.49980  0.88230  0.01060  Biso   1.000  C
  H305     1.0000 0.97460  0.33770  0.00850  Biso   1.000  H
  H306     1.0000 0.52540  0.66230  0.50850  Biso   1.000  H
  H307     1.0000 0.02540  0.83770  0.49150  Biso   1.000  H
  H308     1.0000 0.47460  0.16230  0.99150  Biso   1.000  H
  H309     1.0000 0.02540  0.66230  0.99150  Biso   1.000  H
  H310     1.0000 0.47460  0.33770  0.49150  Biso   1.000  H
  H311     1.0000 0.97460  0.16230  0.50850  Biso   1.000  H
  H312     1.0000 0.52540  0.83770  0.00850  Biso   1.000  H
  H313     1.0000 0.05540  0.38650  0.98690  Biso   1.000  H
  H314     1.0000 0.44460  0.61350  0.48690  Biso   1.000  H
  H315     1.0000 0.94460  0.88650  0.51310  Biso   1.000  H
  H316     1.0000 0.55540  0.11350  0.01310  Biso   1.000  H
  H317     1.0000 0.94460  0.61350  0.01310  Biso   1.000  H
  H318     1.0000 0.55540  0.38650  0.51310  Biso   1.000  H
  H319     1.0000 0.05540  0.11350  0.48690  Biso   1.000  H
  H320     1.0000 0.44460  0.88650  0.98690  Biso   1.000  H
  C185     1.0000 0.03890  0.39470  0.06250  Biso   1.000  C
  C186     1.0000 0.46110  0.60530  0.56250  Biso   1.000  C
  C187     1.0000 0.96110  0.89470  0.43750  Biso   1.000  C
  C188     1.0000 0.53890  0.10530  0.93750  Biso   1.000  C
  C189     1.0000 0.96110  0.60530  0.93750  Biso   1.000  C
  C190     1.0000 0.53890  0.39470  0.43750  Biso   1.000  C
  C191     1.0000 0.03890  0.10530  0.56250  Biso   1.000  C
  C192     1.0000 0.46110  0.89470  0.06250  Biso   1.000  C
  H321     1.0000 0.09220  0.36350  0.07000  Biso   1.000  H
  H322     1.0000 0.40780  0.63650  0.57000  Biso   1.000  H
  H323     1.0000 0.90780  0.86350  0.43000  Biso   1.000  H
  H324     1.0000 0.59220  0.13650  0.93000  Biso   1.000  H
  H325     1.0000 0.90780  0.63650  0.93000  Biso   1.000  H
  H326     1.0000 0.59220  0.36350  0.43000  Biso   1.000  H
  H327     1.0000 0.09220  0.13650  0.57000  Biso   1.000  H
  H328     1.0000 0.40780  0.86350  0.07000  Biso   1.000  H
  H329     1.0000 0.06730  0.43870  0.06430  Biso   1.000  H
  H330     1.0000 0.43270  0.56130  0.56430  Biso   1.000  H
  H331     1.0000 0.93270  0.93870  0.43570  Biso   1.000  H
  H332     1.0000 0.56730  0.06130  0.93570  Biso   1.000  H
  H333     1.0000 0.93270  0.56130  0.93570  Biso   1.000  H
  H334     1.0000 0.56730  0.43870  0.43570  Biso   1.000  H
  H335     1.0000 0.06730  0.06130  0.56430  Biso   1.000  H
  H336     1.0000 0.43270  0.93870  0.06430  Biso   1.000  H
