data_image0
_cell_length_a       13.5455
_cell_length_b       20.783
_cell_length_c       27.2925
_cell_angle_alpha    90
_cell_angle_beta     90
_cell_angle_gamma    90

_symmetry_space_group_name_H-M    "P 1"
_symmetry_int_tables_number       1

loop_
  _symmetry_equiv_pos_as_xyz
  'x, y, z'

loop_
  _atom_site_label
  _atom_site_occupancy
  _atom_site_fract_x
  _atom_site_fract_y
  _atom_site_fract_z
  _atom_site_thermal_displace_type
  _atom_site_B_iso_or_equiv
  _atom_site_type_symbol
  Cu1      1.0000 0.34041  0.20201  0.13653  Biso   1.000  Cu
  Cu2      1.0000 0.15959  0.79799  0.63653  Biso   1.000  Cu
  Cu3      1.0000 0.65959  0.70201  0.36347  Biso   1.000  Cu
  Cu4      1.0000 0.84041  0.29799  0.86347  Biso   1.000  Cu
  Cu5      1.0000 0.65959  0.79799  0.86347  Biso   1.000  Cu
  Cu6      1.0000 0.84041  0.20201  0.36347  Biso   1.000  Cu
  Cu7      1.0000 0.34041  0.29799  0.63653  Biso   1.000  Cu
  Cu8      1.0000 0.15959  0.70201  0.13653  Biso   1.000  Cu
  Cu9      1.0000 0.26828  0.08188  0.16119  Biso   1.000  Cu
  Cu10     1.0000 0.23172  0.91812  0.66119  Biso   1.000  Cu
  Cu11     1.0000 0.73172  0.58188  0.33881  Biso   1.000  Cu
  Cu12     1.0000 0.76828  0.41812  0.83881  Biso   1.000  Cu
  Cu13     1.0000 0.73172  0.91812  0.83881  Biso   1.000  Cu
  Cu14     1.0000 0.76828  0.08188  0.33881  Biso   1.000  Cu
  Cu15     1.0000 0.26828  0.41812  0.66119  Biso   1.000  Cu
  Cu16     1.0000 0.23172  0.58188  0.16119  Biso   1.000  Cu
  Cu17     1.0000 0.15152  0.16204  0.10737  Biso   1.000  Cu
  Cu18     1.0000 0.34848  0.83796  0.60737  Biso   1.000  Cu
  Cu19     1.0000 0.84848  0.66204  0.39263  Biso   1.000  Cu
  Cu20     1.0000 0.65152  0.33796  0.89263  Biso   1.000  Cu
  Cu21     1.0000 0.84848  0.83796  0.89263  Biso   1.000  Cu
  Cu22     1.0000 0.65152  0.16204  0.39263  Biso   1.000  Cu
  Cu23     1.0000 0.15152  0.33796  0.60737  Biso   1.000  Cu
  Cu24     1.0000 0.34848  0.66204  0.10737  Biso   1.000  Cu
  Cu25     1.0000 0.32305  0.10963  0.07170  Biso   1.000  Cu
  Cu26     1.0000 0.17695  0.89037  0.57170  Biso   1.000  Cu
  Cu27     1.0000 0.67695  0.60963  0.42830  Biso   1.000  Cu
  Cu28     1.0000 0.82305  0.39037  0.92830  Biso   1.000  Cu
  Cu29     1.0000 0.67695  0.89037  0.92830  Biso   1.000  Cu
  Cu30     1.0000 0.82305  0.10963  0.42830  Biso   1.000  Cu
  Cu31     1.0000 0.32305  0.39037  0.57170  Biso   1.000  Cu
  Cu32     1.0000 0.17695  0.60963  0.07170  Biso   1.000  Cu
  I1       1.0000 0.19630  0.18971  0.20255  Biso   1.000  I
  I2       1.0000 0.30370  0.81029  0.70255  Biso   1.000  I
  I3       1.0000 0.80370  0.68971  0.29745  Biso   1.000  I
  I4       1.0000 0.69630  0.31029  0.79745  Biso   1.000  I
  I5       1.0000 0.80370  0.81029  0.79745  Biso   1.000  I
  I6       1.0000 0.69630  0.18971  0.29745  Biso   1.000  I
  I7       1.0000 0.19630  0.31029  0.70255  Biso   1.000  I
  I8       1.0000 0.30370  0.68971  0.20255  Biso   1.000  I
  I9       1.0000 0.45983  0.09778  0.14385  Biso   1.000  I
  I10      1.0000 0.04017  0.90222  0.64385  Biso   1.000  I
  I11      1.0000 0.54017  0.59778  0.35615  Biso   1.000  I
  I12      1.0000 0.95983  0.40222  0.85615  Biso   1.000  I
  I13      1.0000 0.54017  0.90222  0.85615  Biso   1.000  I
  I14      1.0000 0.95983  0.09778  0.35615  Biso   1.000  I
  I15      1.0000 0.45983  0.40222  0.64385  Biso   1.000  I
  I16      1.0000 0.04017  0.59778  0.14385  Biso   1.000  I
  I17      1.0000 0.27312  0.22954  0.04551  Biso   1.000  I
  I18      1.0000 0.22688  0.77046  0.54551  Biso   1.000  I
  I19      1.0000 0.72688  0.72954  0.45449  Biso   1.000  I
  I20      1.0000 0.77312  0.27046  0.95449  Biso   1.000  I
  I21      1.0000 0.72688  0.77046  0.95449  Biso   1.000  I
  I22      1.0000 0.77312  0.22954  0.45449  Biso   1.000  I
  I23      1.0000 0.27312  0.27046  0.54551  Biso   1.000  I
  I24      1.0000 0.22688  0.72954  0.04551  Biso   1.000  I
  I25      1.0000 0.15893  0.03968  0.08423  Biso   1.000  I
  I26      1.0000 0.34107  0.96032  0.58423  Biso   1.000  I
  I27      1.0000 0.84107  0.53968  0.41577  Biso   1.000  I
  I28      1.0000 0.65893  0.46032  0.91577  Biso   1.000  I
  I29      1.0000 0.84107  0.96032  0.91577  Biso   1.000  I
  I30      1.0000 0.65893  0.03968  0.41577  Biso   1.000  I
  I31      1.0000 0.15893  0.46032  0.58423  Biso   1.000  I
  I32      1.0000 0.34107  0.53968  0.08423  Biso   1.000  I
  S1       1.0000 0.42781  0.29196  0.15885  Biso   1.000  S
  S2       1.0000 0.07219  0.70804  0.65885  Biso   1.000  S
  S3       1.0000 0.57219  0.79196  0.34115  Biso   1.000  S
  S4       1.0000 0.92781  0.20804  0.84115  Biso   1.000  S
  S5       1.0000 0.57219  0.70804  0.84115  Biso   1.000  S
  S6       1.0000 0.92781  0.29196  0.34115  Biso   1.000  S
  S7       1.0000 0.42781  0.20804  0.65885  Biso   1.000  S
  S8       1.0000 0.07219  0.79196  0.15885  Biso   1.000  S
  S9       1.0000 0.25502  0.50935  0.22293  Biso   1.000  S
  S10      1.0000 0.24498  0.49065  0.72293  Biso   1.000  S
  S11      1.0000 0.74498  0.00935  0.27707  Biso   1.000  S
  S12      1.0000 0.75502  0.99065  0.77707  Biso   1.000  S
  S13      1.0000 0.74498  0.49065  0.77707  Biso   1.000  S
  S14      1.0000 0.75502  0.50935  0.27707  Biso   1.000  S
  S15      1.0000 0.25502  0.99065  0.72293  Biso   1.000  S
  S16      1.0000 0.24498  0.00935  0.22293  Biso   1.000  S
  S17      1.0000 0.01328  0.22285  0.08846  Biso   1.000  S
  S18      1.0000 0.48672  0.77715  0.58846  Biso   1.000  S
  S19      1.0000 0.98672  0.72285  0.41154  Biso   1.000  S
  S20      1.0000 0.51328  0.27715  0.91154  Biso   1.000  S
  S21      1.0000 0.98672  0.77715  0.91154  Biso   1.000  S
  S22      1.0000 0.51328  0.22285  0.41154  Biso   1.000  S
  S23      1.0000 0.01328  0.27715  0.58846  Biso   1.000  S
  S24      1.0000 0.48672  0.72285  0.08846  Biso   1.000  S
  S25      1.0000 0.90670  0.43587  0.99232  Biso   1.000  S
  S26      1.0000 0.59330  0.56413  0.49232  Biso   1.000  S
  S27      1.0000 0.09330  0.93587  0.50768  Biso   1.000  S
  S28      1.0000 0.40670  0.06413  0.00768  Biso   1.000  S
  S29      1.0000 0.09330  0.56413  0.00768  Biso   1.000  S
  S30      1.0000 0.40670  0.43587  0.50768  Biso   1.000  S
  S31      1.0000 0.90670  0.06413  0.49232  Biso   1.000  S
  S32      1.0000 0.59330  0.93587  0.99232  Biso   1.000  S
  O1       1.0000 0.55210  0.36150  0.26560  Biso   1.000  O
  O2       1.0000 0.94790  0.63850  0.76560  Biso   1.000  O
  O3       1.0000 0.44790  0.86150  0.23440  Biso   1.000  O
  O4       1.0000 0.05210  0.13850  0.73440  Biso   1.000  O
  O5       1.0000 0.44790  0.63850  0.73440  Biso   1.000  O
  O6       1.0000 0.05210  0.36150  0.23440  Biso   1.000  O
  O7       1.0000 0.55210  0.13850  0.76560  Biso   1.000  O
  O8       1.0000 0.94790  0.86150  0.26560  Biso   1.000  O
  O9       1.0000 0.87060  0.33250  0.15240  Biso   1.000  O
  O10      1.0000 0.62940  0.66750  0.65240  Biso   1.000  O
  O11      1.0000 0.12940  0.83250  0.34760  Biso   1.000  O
  O12      1.0000 0.37060  0.16750  0.84760  Biso   1.000  O
  O13      1.0000 0.12940  0.66750  0.84760  Biso   1.000  O
  O14      1.0000 0.37060  0.33250  0.34760  Biso   1.000  O
  O15      1.0000 0.87060  0.16750  0.65240  Biso   1.000  O
  O16      1.0000 0.62940  0.83250  0.15240  Biso   1.000  O
  N1       1.0000 0.39780  0.39570  0.24600  Biso   1.000  N
  N2       1.0000 0.10220  0.60430  0.74600  Biso   1.000  N
  N3       1.0000 0.60220  0.89570  0.25400  Biso   1.000  N
  N4       1.0000 0.89780  0.10430  0.75400  Biso   1.000  N
  N5       1.0000 0.60220  0.60430  0.75400  Biso   1.000  N
  N6       1.0000 0.89780  0.39570  0.25400  Biso   1.000  N
  N7       1.0000 0.39780  0.10430  0.74600  Biso   1.000  N
  N8       1.0000 0.10220  0.89570  0.24600  Biso   1.000  N
  N9       1.0000 0.96150  0.38870  0.09700  Biso   1.000  N
  N10      1.0000 0.53850  0.61130  0.59700  Biso   1.000  N
  N11      1.0000 0.03850  0.88870  0.40300  Biso   1.000  N
  N12      1.0000 0.46150  0.11130  0.90300  Biso   1.000  N
  N13      1.0000 0.03850  0.61130  0.90300  Biso   1.000  N
  N14      1.0000 0.46150  0.38870  0.40300  Biso   1.000  N
  N15      1.0000 0.96150  0.11130  0.59700  Biso   1.000  N
  N16      1.0000 0.53850  0.88870  0.09700  Biso   1.000  N
  C1       1.0000 0.61520  0.34370  0.14710  Biso   1.000  C
  C2       1.0000 0.88480  0.65630  0.64710  Biso   1.000  C
  C3       1.0000 0.38480  0.84370  0.35290  Biso   1.000  C
  C4       1.0000 0.11520  0.15630  0.85290  Biso   1.000  C
  C5       1.0000 0.38480  0.65630  0.85290  Biso   1.000  C
  C6       1.0000 0.11520  0.34370  0.35290  Biso   1.000  C
  C7       1.0000 0.61520  0.15630  0.64710  Biso   1.000  C
  C8       1.0000 0.88480  0.84370  0.14710  Biso   1.000  C
  H1       1.0000 0.61460  0.34750  0.18290  Biso   1.000  H
  H2       1.0000 0.88540  0.65250  0.68290  Biso   1.000  H
  H3       1.0000 0.38540  0.84750  0.31710  Biso   1.000  H
  H4       1.0000 0.11460  0.15250  0.81710  Biso   1.000  H
  H5       1.0000 0.38540  0.65250  0.81710  Biso   1.000  H
  H6       1.0000 0.11460  0.34750  0.31710  Biso   1.000  H
  H7       1.0000 0.61460  0.15250  0.68290  Biso   1.000  H
  H8       1.0000 0.88540  0.84750  0.18290  Biso   1.000  H
  H9       1.0000 0.68370  0.33630  0.13690  Biso   1.000  H
  H10      1.0000 0.81630  0.66370  0.63690  Biso   1.000  H
  H11      1.0000 0.31630  0.83630  0.36310  Biso   1.000  H
  H12      1.0000 0.18370  0.16370  0.86310  Biso   1.000  H
  H13      1.0000 0.31630  0.66370  0.86310  Biso   1.000  H
  H14      1.0000 0.18370  0.33630  0.36310  Biso   1.000  H
  H15      1.0000 0.68370  0.16370  0.63690  Biso   1.000  H
  H16      1.0000 0.81630  0.83630  0.13690  Biso   1.000  H
  C9       1.0000 0.58050  0.40480  0.12570  Biso   1.000  C
  C10      1.0000 0.91950  0.59520  0.62570  Biso   1.000  C
  C11      1.0000 0.41950  0.90480  0.37430  Biso   1.000  C
  C12      1.0000 0.08050  0.09520  0.87430  Biso   1.000  C
  C13      1.0000 0.41950  0.59520  0.87430  Biso   1.000  C
  C14      1.0000 0.08050  0.40480  0.37430  Biso   1.000  C
  C15      1.0000 0.58050  0.09520  0.62570  Biso   1.000  C
  C16      1.0000 0.91950  0.90480  0.12570  Biso   1.000  C
  H17      1.0000 0.62730  0.43900  0.13400  Biso   1.000  H
  H18      1.0000 0.87270  0.56100  0.63400  Biso   1.000  H
  H19      1.0000 0.37270  0.93900  0.36600  Biso   1.000  H
  H20      1.0000 0.12730  0.06100  0.86600  Biso   1.000  H
  H21      1.0000 0.37270  0.56100  0.86600  Biso   1.000  H
  H22      1.0000 0.12730  0.43900  0.36600  Biso   1.000  H
  H23      1.0000 0.62730  0.06100  0.63400  Biso   1.000  H
  H24      1.0000 0.87270  0.93900  0.13400  Biso   1.000  H
  H25      1.0000 0.51660  0.41600  0.14020  Biso   1.000  H
  H26      1.0000 0.98340  0.58400  0.64020  Biso   1.000  H
  H27      1.0000 0.48340  0.91600  0.35980  Biso   1.000  H
  H28      1.0000 0.01660  0.08400  0.85980  Biso   1.000  H
  H29      1.0000 0.48340  0.58400  0.85980  Biso   1.000  H
  H30      1.0000 0.01660  0.41600  0.35980  Biso   1.000  H
  H31      1.0000 0.51660  0.08400  0.64020  Biso   1.000  H
  H32      1.0000 0.98340  0.91600  0.14020  Biso   1.000  H
  C17      1.0000 0.56920  0.40160  0.06940  Biso   1.000  C
  C18      1.0000 0.93080  0.59840  0.56940  Biso   1.000  C
  C19      1.0000 0.43080  0.90160  0.43060  Biso   1.000  C
  C20      1.0000 0.06920  0.09840  0.93060  Biso   1.000  C
  C21      1.0000 0.43080  0.59840  0.93060  Biso   1.000  C
  C22      1.0000 0.06920  0.40160  0.43060  Biso   1.000  C
  C23      1.0000 0.56920  0.09840  0.56940  Biso   1.000  C
  C24      1.0000 0.93080  0.90160  0.06940  Biso   1.000  C
  H33      1.0000 0.53490  0.44000  0.05740  Biso   1.000  H
  H34      1.0000 0.96510  0.56000  0.55740  Biso   1.000  H
  H35      1.0000 0.46510  0.94000  0.44260  Biso   1.000  H
  H36      1.0000 0.03490  0.06000  0.94260  Biso   1.000  H
  H37      1.0000 0.46510  0.56000  0.94260  Biso   1.000  H
  H38      1.0000 0.03490  0.44000  0.44260  Biso   1.000  H
  H39      1.0000 0.53490  0.06000  0.55740  Biso   1.000  H
  H40      1.0000 0.96510  0.94000  0.05740  Biso   1.000  H
  H41      1.0000 0.63430  0.39950  0.05380  Biso   1.000  H
  H42      1.0000 0.86570  0.60050  0.55380  Biso   1.000  H
  H43      1.0000 0.36570  0.89950  0.44620  Biso   1.000  H
  H44      1.0000 0.13430  0.10050  0.94620  Biso   1.000  H
  H45      1.0000 0.36570  0.60050  0.94620  Biso   1.000  H
  H46      1.0000 0.13430  0.39950  0.44620  Biso   1.000  H
  H47      1.0000 0.63430  0.10050  0.55380  Biso   1.000  H
  H48      1.0000 0.86570  0.89950  0.05380  Biso   1.000  H
  C25      1.0000 0.51080  0.34240  0.05730  Biso   1.000  C
  C26      1.0000 0.98920  0.65760  0.55730  Biso   1.000  C
  C27      1.0000 0.48920  0.84240  0.44270  Biso   1.000  C
  C28      1.0000 0.01080  0.15760  0.94270  Biso   1.000  C
  C29      1.0000 0.48920  0.65760  0.94270  Biso   1.000  C
  C30      1.0000 0.01080  0.34240  0.44270  Biso   1.000  C
  C31      1.0000 0.51080  0.15760  0.55730  Biso   1.000  C
  C32      1.0000 0.98920  0.84240  0.05730  Biso   1.000  C
  H49      1.0000 0.44310  0.34900  0.06890  Biso   1.000  H
  H50      1.0000 0.05690  0.65100  0.56890  Biso   1.000  H
  H51      1.0000 0.55690  0.84900  0.43110  Biso   1.000  H
  H52      1.0000 0.94310  0.15100  0.93110  Biso   1.000  H
  H53      1.0000 0.55690  0.65100  0.93110  Biso   1.000  H
  H54      1.0000 0.94310  0.34900  0.43110  Biso   1.000  H
  H55      1.0000 0.44310  0.15100  0.56890  Biso   1.000  H
  H56      1.0000 0.05690  0.84900  0.06890  Biso   1.000  H
  H57      1.0000 0.50800  0.33850  0.02150  Biso   1.000  H
  H58      1.0000 0.99200  0.66150  0.52150  Biso   1.000  H
  H59      1.0000 0.49200  0.83850  0.47850  Biso   1.000  H
  H60      1.0000 0.00800  0.16150  0.97850  Biso   1.000  H
  H61      1.0000 0.49200  0.66150  0.97850  Biso   1.000  H
  H62      1.0000 0.00800  0.33850  0.47850  Biso   1.000  H
  H63      1.0000 0.50800  0.16150  0.52150  Biso   1.000  H
  H64      1.0000 0.99200  0.83850  0.02150  Biso   1.000  H
  C33      1.0000 0.54730  0.28020  0.07760  Biso   1.000  C
  C34      1.0000 0.95270  0.71980  0.57760  Biso   1.000  C
  C35      1.0000 0.45270  0.78020  0.42240  Biso   1.000  C
  C36      1.0000 0.04730  0.21980  0.92240  Biso   1.000  C
  C37      1.0000 0.45270  0.71980  0.92240  Biso   1.000  C
  C38      1.0000 0.04730  0.28020  0.42240  Biso   1.000  C
  C39      1.0000 0.54730  0.21980  0.57760  Biso   1.000  C
  C40      1.0000 0.95270  0.78020  0.07760  Biso   1.000  C
  H65      1.0000 0.61250  0.27030  0.06400  Biso   1.000  H
  H66      1.0000 0.88750  0.72970  0.56400  Biso   1.000  H
  H67      1.0000 0.38750  0.77030  0.43600  Biso   1.000  H
  H68      1.0000 0.11250  0.22970  0.93600  Biso   1.000  H
  H69      1.0000 0.38750  0.72970  0.93600  Biso   1.000  H
  H70      1.0000 0.11250  0.27030  0.43600  Biso   1.000  H
  H71      1.0000 0.61250  0.22970  0.56400  Biso   1.000  H
  H72      1.0000 0.88750  0.77030  0.06400  Biso   1.000  H
  H73      1.0000 0.50190  0.24540  0.06860  Biso   1.000  H
  H74      1.0000 0.99810  0.75460  0.56860  Biso   1.000  H
  H75      1.0000 0.49810  0.74540  0.43140  Biso   1.000  H
  H76      1.0000 0.00190  0.25460  0.93140  Biso   1.000  H
  H77      1.0000 0.49810  0.75460  0.93140  Biso   1.000  H
  H78      1.0000 0.00190  0.24540  0.43140  Biso   1.000  H
  H79      1.0000 0.50190  0.25460  0.56860  Biso   1.000  H
  H80      1.0000 0.99810  0.74540  0.06860  Biso   1.000  H
  C41      1.0000 0.55360  0.28570  0.13250  Biso   1.000  C
  C42      1.0000 0.94640  0.71430  0.63250  Biso   1.000  C
  C43      1.0000 0.44640  0.78570  0.36750  Biso   1.000  C
  C44      1.0000 0.05360  0.21430  0.86750  Biso   1.000  C
  C45      1.0000 0.44640  0.71430  0.86750  Biso   1.000  C
  C46      1.0000 0.05360  0.28570  0.36750  Biso   1.000  C
  C47      1.0000 0.55360  0.21430  0.63250  Biso   1.000  C
  C48      1.0000 0.94640  0.78570  0.13250  Biso   1.000  C
  H81      1.0000 0.58560  0.24640  0.14560  Biso   1.000  H
  H82      1.0000 0.91440  0.75360  0.64560  Biso   1.000  H
  H83      1.0000 0.41440  0.74640  0.35440  Biso   1.000  H
  H84      1.0000 0.08560  0.25360  0.85440  Biso   1.000  H
  H85      1.0000 0.41440  0.75360  0.85440  Biso   1.000  H
  H86      1.0000 0.08560  0.24640  0.35440  Biso   1.000  H
  H87      1.0000 0.58560  0.25360  0.64560  Biso   1.000  H
  H88      1.0000 0.91440  0.74640  0.14560  Biso   1.000  H
  C49      1.0000 0.45190  0.28580  0.22450  Biso   1.000  C
  C50      1.0000 0.04810  0.71420  0.72450  Biso   1.000  C
  C51      1.0000 0.54810  0.78580  0.27550  Biso   1.000  C
  C52      1.0000 0.95190  0.21420  0.77550  Biso   1.000  C
  C53      1.0000 0.54810  0.71420  0.77550  Biso   1.000  C
  C54      1.0000 0.95190  0.28580  0.27550  Biso   1.000  C
  C55      1.0000 0.45190  0.21420  0.72450  Biso   1.000  C
  C56      1.0000 0.04810  0.78580  0.22450  Biso   1.000  C
  H89      1.0000 0.39530  0.26520  0.24040  Biso   1.000  H
  H90      1.0000 0.10470  0.73480  0.74040  Biso   1.000  H
  H91      1.0000 0.60470  0.76520  0.25960  Biso   1.000  H
  H92      1.0000 0.89530  0.23480  0.75960  Biso   1.000  H
  H93      1.0000 0.60470  0.73480  0.75960  Biso   1.000  H
  H94      1.0000 0.89530  0.26520  0.25960  Biso   1.000  H
  H95      1.0000 0.39530  0.23480  0.74040  Biso   1.000  H
  H96      1.0000 0.10470  0.76520  0.24040  Biso   1.000  H
  H97      1.0000 0.50970  0.25830  0.22970  Biso   1.000  H
  H98      1.0000 0.99030  0.74170  0.72970  Biso   1.000  H
  H99      1.0000 0.49030  0.75830  0.27030  Biso   1.000  H
  H100     1.0000 0.00970  0.24170  0.77030  Biso   1.000  H
  H101     1.0000 0.49030  0.74170  0.77030  Biso   1.000  H
  H102     1.0000 0.00970  0.25830  0.27030  Biso   1.000  H
  H103     1.0000 0.50970  0.24170  0.72970  Biso   1.000  H
  H104     1.0000 0.99030  0.75830  0.22970  Biso   1.000  H
  C57      1.0000 0.47020  0.35130  0.24830  Biso   1.000  C
  C58      1.0000 0.02980  0.64870  0.74830  Biso   1.000  C
  C59      1.0000 0.52980  0.85130  0.25170  Biso   1.000  C
  C60      1.0000 0.97020  0.14870  0.75170  Biso   1.000  C
  C61      1.0000 0.52980  0.64870  0.75170  Biso   1.000  C
  C62      1.0000 0.97020  0.35130  0.25170  Biso   1.000  C
  C63      1.0000 0.47020  0.14870  0.74830  Biso   1.000  C
  C64      1.0000 0.02980  0.85130  0.24830  Biso   1.000  C
  C65      1.0000 0.29600  0.38180  0.23580  Biso   1.000  C
  C66      1.0000 0.20400  0.61820  0.73580  Biso   1.000  C
  C67      1.0000 0.70400  0.88180  0.26420  Biso   1.000  C
  C68      1.0000 0.79600  0.11820  0.76420  Biso   1.000  C
  C69      1.0000 0.70400  0.61820  0.76420  Biso   1.000  C
  C70      1.0000 0.79600  0.38180  0.26420  Biso   1.000  C
  C71      1.0000 0.29600  0.11820  0.73580  Biso   1.000  C
  C72      1.0000 0.20400  0.88180  0.23580  Biso   1.000  C
  H105     1.0000 0.25810  0.38400  0.26630  Biso   1.000  H
  H106     1.0000 0.24190  0.61600  0.76630  Biso   1.000  H
  H107     1.0000 0.74190  0.88400  0.23370  Biso   1.000  H
  H108     1.0000 0.75810  0.11600  0.73370  Biso   1.000  H
  H109     1.0000 0.74190  0.61600  0.73370  Biso   1.000  H
  H110     1.0000 0.75810  0.38400  0.23370  Biso   1.000  H
  H111     1.0000 0.25810  0.11600  0.76630  Biso   1.000  H
  H112     1.0000 0.24190  0.88400  0.26630  Biso   1.000  H
  H113     1.0000 0.29060  0.33790  0.22300  Biso   1.000  H
  H114     1.0000 0.20940  0.66210  0.72300  Biso   1.000  H
  H115     1.0000 0.70940  0.83790  0.27700  Biso   1.000  H
  H116     1.0000 0.79060  0.16210  0.77700  Biso   1.000  H
  H117     1.0000 0.70940  0.66210  0.77700  Biso   1.000  H
  H118     1.0000 0.79060  0.33790  0.27700  Biso   1.000  H
  H119     1.0000 0.29060  0.16210  0.72300  Biso   1.000  H
  H120     1.0000 0.20940  0.83790  0.22300  Biso   1.000  H
  C73      1.0000 0.25230  0.42800  0.19920  Biso   1.000  C
  C74      1.0000 0.24770  0.57200  0.69920  Biso   1.000  C
  C75      1.0000 0.74770  0.92800  0.30080  Biso   1.000  C
  C76      1.0000 0.75230  0.07200  0.80080  Biso   1.000  C
  C77      1.0000 0.74770  0.57200  0.80080  Biso   1.000  C
  C78      1.0000 0.75230  0.42800  0.30080  Biso   1.000  C
  C79      1.0000 0.25230  0.07200  0.69920  Biso   1.000  C
  C80      1.0000 0.24770  0.92800  0.19920  Biso   1.000  C
  H121     1.0000 0.18400  0.41560  0.19210  Biso   1.000  H
  H122     1.0000 0.31600  0.58440  0.69210  Biso   1.000  H
  H123     1.0000 0.81600  0.91560  0.30790  Biso   1.000  H
  H124     1.0000 0.68400  0.08440  0.80790  Biso   1.000  H
  H125     1.0000 0.81600  0.58440  0.80790  Biso   1.000  H
  H126     1.0000 0.68400  0.41560  0.30790  Biso   1.000  H
  H127     1.0000 0.18400  0.08440  0.69210  Biso   1.000  H
  H128     1.0000 0.31600  0.91560  0.19210  Biso   1.000  H
  H129     1.0000 0.28990  0.42600  0.16860  Biso   1.000  H
  H130     1.0000 0.21010  0.57400  0.66860  Biso   1.000  H
  H131     1.0000 0.71010  0.92600  0.33140  Biso   1.000  H
  H132     1.0000 0.78990  0.07400  0.83140  Biso   1.000  H
  H133     1.0000 0.71010  0.57400  0.83140  Biso   1.000  H
  H134     1.0000 0.78990  0.42600  0.33140  Biso   1.000  H
  H135     1.0000 0.28990  0.07400  0.66860  Biso   1.000  H
  H136     1.0000 0.21010  0.92600  0.16860  Biso   1.000  H
  C81      1.0000 0.38480  0.51220  0.23600  Biso   1.000  C
  C82      1.0000 0.11520  0.48780  0.73600  Biso   1.000  C
  C83      1.0000 0.61520  0.01220  0.26400  Biso   1.000  C
  C84      1.0000 0.88480  0.98780  0.76400  Biso   1.000  C
  C85      1.0000 0.61520  0.48780  0.76400  Biso   1.000  C
  C86      1.0000 0.88480  0.51220  0.26400  Biso   1.000  C
  C87      1.0000 0.38480  0.98780  0.73600  Biso   1.000  C
  C88      1.0000 0.11520  0.01220  0.23600  Biso   1.000  C
  H137     1.0000 0.42160  0.50970  0.20520  Biso   1.000  H
  H138     1.0000 0.07840  0.49030  0.70520  Biso   1.000  H
  H139     1.0000 0.57840  0.00970  0.29480  Biso   1.000  H
  H140     1.0000 0.92160  0.99030  0.79480  Biso   1.000  H
  H141     1.0000 0.57840  0.49030  0.79480  Biso   1.000  H
  H142     1.0000 0.92160  0.50970  0.29480  Biso   1.000  H
  H143     1.0000 0.42160  0.99030  0.70520  Biso   1.000  H
  H144     1.0000 0.07840  0.00970  0.20520  Biso   1.000  H
  H145     1.0000 0.40040  0.55360  0.25140  Biso   1.000  H
  H146     1.0000 0.09960  0.44640  0.75140  Biso   1.000  H
  H147     1.0000 0.59960  0.05360  0.24860  Biso   1.000  H
  H148     1.0000 0.90040  0.94640  0.74860  Biso   1.000  H
  H149     1.0000 0.59960  0.44640  0.74860  Biso   1.000  H
  H150     1.0000 0.90040  0.55360  0.24860  Biso   1.000  H
  H151     1.0000 0.40040  0.94640  0.75140  Biso   1.000  H
  H152     1.0000 0.09960  0.05360  0.25140  Biso   1.000  H
  C89      1.0000 0.41880  0.45810  0.26960  Biso   1.000  C
  C90      1.0000 0.08120  0.54190  0.76960  Biso   1.000  C
  C91      1.0000 0.58120  0.95810  0.23040  Biso   1.000  C
  C92      1.0000 0.91880  0.04190  0.73040  Biso   1.000  C
  C93      1.0000 0.58120  0.54190  0.73040  Biso   1.000  C
  C94      1.0000 0.91880  0.45810  0.23040  Biso   1.000  C
  C95      1.0000 0.41880  0.04190  0.76960  Biso   1.000  C
  C96      1.0000 0.08120  0.95810  0.26960  Biso   1.000  C
  H153     1.0000 0.48980  0.46210  0.27590  Biso   1.000  H
  H154     1.0000 0.01020  0.53790  0.77590  Biso   1.000  H
  H155     1.0000 0.51020  0.96210  0.22410  Biso   1.000  H
  H156     1.0000 0.98980  0.03790  0.72410  Biso   1.000  H
  H157     1.0000 0.51020  0.53790  0.72410  Biso   1.000  H
  H158     1.0000 0.98980  0.46210  0.22410  Biso   1.000  H
  H159     1.0000 0.48980  0.03790  0.77590  Biso   1.000  H
  H160     1.0000 0.01020  0.96210  0.27590  Biso   1.000  H
  H161     1.0000 0.38410  0.46090  0.30100  Biso   1.000  H
  H162     1.0000 0.11590  0.53910  0.80100  Biso   1.000  H
  H163     1.0000 0.61590  0.96090  0.19900  Biso   1.000  H
  H164     1.0000 0.88410  0.03910  0.69900  Biso   1.000  H
  H165     1.0000 0.61590  0.53910  0.69900  Biso   1.000  H
  H166     1.0000 0.88410  0.46090  0.19900  Biso   1.000  H
  H167     1.0000 0.38410  0.03910  0.80100  Biso   1.000  H
  H168     1.0000 0.11590  0.96090  0.30100  Biso   1.000  H
  C97      1.0000 0.86440  0.14090  0.06670  Biso   1.000  C
  C98      1.0000 0.63560  0.85910  0.56670  Biso   1.000  C
  C99      1.0000 0.13560  0.64090  0.43330  Biso   1.000  C
  C100     1.0000 0.36440  0.35910  0.93330  Biso   1.000  C
  C101     1.0000 0.13560  0.85910  0.93330  Biso   1.000  C
  C102     1.0000 0.36440  0.14090  0.43330  Biso   1.000  C
  C103     1.0000 0.86440  0.35910  0.56670  Biso   1.000  C
  C104     1.0000 0.63560  0.64090  0.06670  Biso   1.000  C
  H169     1.0000 0.91400  0.10710  0.06220  Biso   1.000  H
  H170     1.0000 0.58600  0.89290  0.56220  Biso   1.000  H
  H171     1.0000 0.08600  0.60710  0.43780  Biso   1.000  H
  H172     1.0000 0.41400  0.39290  0.93780  Biso   1.000  H
  H173     1.0000 0.08600  0.89290  0.93780  Biso   1.000  H
  H174     1.0000 0.41400  0.10710  0.43780  Biso   1.000  H
  H175     1.0000 0.91400  0.39290  0.56220  Biso   1.000  H
  H176     1.0000 0.58600  0.60710  0.06220  Biso   1.000  H
  H177     1.0000 0.85890  0.16490  0.03590  Biso   1.000  H
  H178     1.0000 0.64110  0.83510  0.53590  Biso   1.000  H
  H179     1.0000 0.14110  0.66490  0.46410  Biso   1.000  H
  H180     1.0000 0.35890  0.33510  0.96410  Biso   1.000  H
  H181     1.0000 0.14110  0.83510  0.96410  Biso   1.000  H
  H182     1.0000 0.35890  0.16490  0.46410  Biso   1.000  H
  H183     1.0000 0.85890  0.33510  0.53590  Biso   1.000  H
  H184     1.0000 0.64110  0.66490  0.03590  Biso   1.000  H
  C105     1.0000 0.76440  0.11050  0.07950  Biso   1.000  C
  C106     1.0000 0.73560  0.88950  0.57950  Biso   1.000  C
  C107     1.0000 0.23560  0.61050  0.42050  Biso   1.000  C
  C108     1.0000 0.26440  0.38950  0.92050  Biso   1.000  C
  C109     1.0000 0.23560  0.88950  0.92050  Biso   1.000  C
  C110     1.0000 0.26440  0.11050  0.42050  Biso   1.000  C
  C111     1.0000 0.76440  0.38950  0.57950  Biso   1.000  C
  C112     1.0000 0.73560  0.61050  0.07950  Biso   1.000  C
  H185     1.0000 0.71310  0.14370  0.07850  Biso   1.000  H
  H186     1.0000 0.78690  0.85630  0.57850  Biso   1.000  H
  H187     1.0000 0.28690  0.64370  0.42150  Biso   1.000  H
  H188     1.0000 0.21310  0.35630  0.92150  Biso   1.000  H
  H189     1.0000 0.28690  0.85630  0.92150  Biso   1.000  H
  H190     1.0000 0.21310  0.14370  0.42150  Biso   1.000  H
  H191     1.0000 0.71310  0.35630  0.57850  Biso   1.000  H
  H192     1.0000 0.78690  0.64370  0.07850  Biso   1.000  H
  H193     1.0000 0.74790  0.07790  0.05490  Biso   1.000  H
  H194     1.0000 0.75210  0.92210  0.55490  Biso   1.000  H
  H195     1.0000 0.25210  0.57790  0.44510  Biso   1.000  H
  H196     1.0000 0.24790  0.42210  0.94510  Biso   1.000  H
  H197     1.0000 0.25210  0.92210  0.94510  Biso   1.000  H
  H198     1.0000 0.24790  0.07790  0.44510  Biso   1.000  H
  H199     1.0000 0.74790  0.42210  0.55490  Biso   1.000  H
  H200     1.0000 0.75210  0.57790  0.05490  Biso   1.000  H
  C113     1.0000 0.76540  0.07960  0.12980  Biso   1.000  C
  C114     1.0000 0.73460  0.92040  0.62980  Biso   1.000  C
  C115     1.0000 0.23460  0.57960  0.37020  Biso   1.000  C
  C116     1.0000 0.26540  0.42040  0.87020  Biso   1.000  C
  C117     1.0000 0.23460  0.92040  0.87020  Biso   1.000  C
  C118     1.0000 0.26540  0.07960  0.37020  Biso   1.000  C
  C119     1.0000 0.76540  0.42040  0.62980  Biso   1.000  C
  C120     1.0000 0.73460  0.57960  0.12980  Biso   1.000  C
  H201     1.0000 0.69880  0.06420  0.13760  Biso   1.000  H
  H202     1.0000 0.80120  0.93580  0.63760  Biso   1.000  H
  H203     1.0000 0.30120  0.56420  0.36240  Biso   1.000  H
  H204     1.0000 0.19880  0.43580  0.86240  Biso   1.000  H
  H205     1.0000 0.30120  0.93580  0.86240  Biso   1.000  H
  H206     1.0000 0.19880  0.06420  0.36240  Biso   1.000  H
  H207     1.0000 0.69880  0.43580  0.63760  Biso   1.000  H
  H208     1.0000 0.80120  0.56420  0.13760  Biso   1.000  H
  H209     1.0000 0.80960  0.04230  0.12930  Biso   1.000  H
  H210     1.0000 0.69040  0.95770  0.62930  Biso   1.000  H
  H211     1.0000 0.19040  0.54230  0.37070  Biso   1.000  H
  H212     1.0000 0.30960  0.45770  0.87070  Biso   1.000  H
  H213     1.0000 0.19040  0.95770  0.87070  Biso   1.000  H
  H214     1.0000 0.30960  0.04230  0.37070  Biso   1.000  H
  H215     1.0000 0.80960  0.45770  0.62930  Biso   1.000  H
  H216     1.0000 0.69040  0.54230  0.12930  Biso   1.000  H
  C121     1.0000 0.79810  0.12440  0.16860  Biso   1.000  C
  C122     1.0000 0.70190  0.87560  0.66860  Biso   1.000  C
  C123     1.0000 0.20190  0.62440  0.33140  Biso   1.000  C
  C124     1.0000 0.29810  0.37560  0.83140  Biso   1.000  C
  C125     1.0000 0.20190  0.87560  0.83140  Biso   1.000  C
  C126     1.0000 0.29810  0.12440  0.33140  Biso   1.000  C
  C127     1.0000 0.79810  0.37560  0.66860  Biso   1.000  C
  C128     1.0000 0.70190  0.62440  0.16860  Biso   1.000  C
  H217     1.0000 0.80210  0.10140  0.19980  Biso   1.000  H
  H218     1.0000 0.69790  0.89860  0.69980  Biso   1.000  H
  H219     1.0000 0.19790  0.60140  0.30020  Biso   1.000  H
  H220     1.0000 0.30210  0.39860  0.80020  Biso   1.000  H
  H221     1.0000 0.19790  0.89860  0.80020  Biso   1.000  H
  H222     1.0000 0.30210  0.10140  0.30020  Biso   1.000  H
  H223     1.0000 0.80210  0.39860  0.69980  Biso   1.000  H
  H224     1.0000 0.69790  0.60140  0.19980  Biso   1.000  H
  H225     1.0000 0.74950  0.15900  0.17210  Biso   1.000  H
  H226     1.0000 0.75050  0.84100  0.67210  Biso   1.000  H
  H227     1.0000 0.25050  0.65900  0.32790  Biso   1.000  H
  H228     1.0000 0.24950  0.34100  0.82790  Biso   1.000  H
  H229     1.0000 0.25050  0.84100  0.82790  Biso   1.000  H
  H230     1.0000 0.24950  0.15900  0.32790  Biso   1.000  H
  H231     1.0000 0.74950  0.34100  0.67210  Biso   1.000  H
  H232     1.0000 0.75050  0.65900  0.17210  Biso   1.000  H
  C129     1.0000 0.90030  0.15390  0.15630  Biso   1.000  C
  C130     1.0000 0.59970  0.84610  0.65630  Biso   1.000  C
  C131     1.0000 0.09970  0.65390  0.34370  Biso   1.000  C
  C132     1.0000 0.40030  0.34610  0.84370  Biso   1.000  C
  C133     1.0000 0.09970  0.84610  0.84370  Biso   1.000  C
  C134     1.0000 0.40030  0.15390  0.34370  Biso   1.000  C
  C135     1.0000 0.90030  0.34610  0.65630  Biso   1.000  C
  C136     1.0000 0.59970  0.65390  0.15630  Biso   1.000  C
  H233     1.0000 0.91830  0.18550  0.18140  Biso   1.000  H
  H234     1.0000 0.58170  0.81450  0.68140  Biso   1.000  H
  H235     1.0000 0.08170  0.68550  0.31860  Biso   1.000  H
  H236     1.0000 0.41830  0.31450  0.81860  Biso   1.000  H
  H237     1.0000 0.08170  0.81450  0.81860  Biso   1.000  H
  H238     1.0000 0.41830  0.18550  0.31860  Biso   1.000  H
  H239     1.0000 0.91830  0.31450  0.68140  Biso   1.000  H
  H240     1.0000 0.58170  0.68550  0.18140  Biso   1.000  H
  H241     1.0000 0.95060  0.12000  0.15620  Biso   1.000  H
  H242     1.0000 0.54940  0.88000  0.65620  Biso   1.000  H
  H243     1.0000 0.04940  0.62000  0.34380  Biso   1.000  H
  H244     1.0000 0.45060  0.38000  0.84380  Biso   1.000  H
  H245     1.0000 0.04940  0.88000  0.84380  Biso   1.000  H
  H246     1.0000 0.45060  0.12000  0.34380  Biso   1.000  H
  H247     1.0000 0.95060  0.38000  0.65620  Biso   1.000  H
  H248     1.0000 0.54940  0.62000  0.15620  Biso   1.000  H
  C137     1.0000 0.89650  0.18570  0.10720  Biso   1.000  C
  C138     1.0000 0.60350  0.81430  0.60720  Biso   1.000  C
  C139     1.0000 0.10350  0.68570  0.39280  Biso   1.000  C
  C140     1.0000 0.39650  0.31430  0.89280  Biso   1.000  C
  C141     1.0000 0.10350  0.81430  0.89280  Biso   1.000  C
  C142     1.0000 0.39650  0.18570  0.39280  Biso   1.000  C
  C143     1.0000 0.89650  0.31430  0.60720  Biso   1.000  C
  C144     1.0000 0.60350  0.68570  0.10720  Biso   1.000  C
  H249     1.0000 0.84670  0.22040  0.10920  Biso   1.000  H
  H250     1.0000 0.65330  0.77960  0.60920  Biso   1.000  H
  H251     1.0000 0.15330  0.72040  0.39080  Biso   1.000  H
  H252     1.0000 0.34670  0.27960  0.89080  Biso   1.000  H
  H253     1.0000 0.15330  0.77960  0.89080  Biso   1.000  H
  H254     1.0000 0.34670  0.22040  0.39080  Biso   1.000  H
  H255     1.0000 0.84670  0.27960  0.60920  Biso   1.000  H
  H256     1.0000 0.65330  0.72040  0.10920  Biso   1.000  H
  C145     1.0000 0.02550  0.28750  0.13350  Biso   1.000  C
  C146     1.0000 0.47450  0.71250  0.63350  Biso   1.000  C
  C147     1.0000 0.97450  0.78750  0.36650  Biso   1.000  C
  C148     1.0000 0.52550  0.21250  0.86650  Biso   1.000  C
  C149     1.0000 0.97450  0.71250  0.86650  Biso   1.000  C
  C150     1.0000 0.52550  0.28750  0.36650  Biso   1.000  C
  C151     1.0000 0.02550  0.21250  0.63350  Biso   1.000  C
  C152     1.0000 0.47450  0.78750  0.13350  Biso   1.000  C
  H257     1.0000 0.02210  0.26910  0.16650  Biso   1.000  H
  H258     1.0000 0.47790  0.73090  0.66650  Biso   1.000  H
  H259     1.0000 0.97790  0.76910  0.33350  Biso   1.000  H
  H260     1.0000 0.52210  0.23090  0.83350  Biso   1.000  H
  H261     1.0000 0.97790  0.73090  0.83350  Biso   1.000  H
  H262     1.0000 0.52210  0.26910  0.33350  Biso   1.000  H
  H263     1.0000 0.02210  0.23090  0.66650  Biso   1.000  H
  H264     1.0000 0.47790  0.76910  0.16650  Biso   1.000  H
  H265     1.0000 0.09040  0.30780  0.12970  Biso   1.000  H
  H266     1.0000 0.40960  0.69220  0.62970  Biso   1.000  H
  H267     1.0000 0.90960  0.80780  0.37030  Biso   1.000  H
  H268     1.0000 0.59040  0.19220  0.87030  Biso   1.000  H
  H269     1.0000 0.90960  0.69220  0.87030  Biso   1.000  H
  H270     1.0000 0.59040  0.30780  0.37030  Biso   1.000  H
  H271     1.0000 0.09040  0.19220  0.62970  Biso   1.000  H
  H272     1.0000 0.40960  0.80780  0.12970  Biso   1.000  H
  C153     1.0000 0.94660  0.33770  0.12800  Biso   1.000  C
  C154     1.0000 0.55340  0.66230  0.62800  Biso   1.000  C
  C155     1.0000 0.05340  0.83770  0.37200  Biso   1.000  C
  C156     1.0000 0.44660  0.16230  0.87200  Biso   1.000  C
  C157     1.0000 0.05340  0.66230  0.87200  Biso   1.000  C
  C158     1.0000 0.44660  0.33770  0.37200  Biso   1.000  C
  C159     1.0000 0.94660  0.16230  0.62800  Biso   1.000  C
  C160     1.0000 0.55340  0.83770  0.12800  Biso   1.000  C
  C161     1.0000 0.88430  0.43560  0.09180  Biso   1.000  C
  C162     1.0000 0.61570  0.56440  0.59180  Biso   1.000  C
  C163     1.0000 0.11570  0.93560  0.40820  Biso   1.000  C
  C164     1.0000 0.38430  0.06440  0.90820  Biso   1.000  C
  C165     1.0000 0.11570  0.56440  0.90820  Biso   1.000  C
  C166     1.0000 0.38430  0.43560  0.40820  Biso   1.000  C
  C167     1.0000 0.88430  0.06440  0.59180  Biso   1.000  C
  C168     1.0000 0.61570  0.93560  0.09180  Biso   1.000  C
  H273     1.0000 0.91310  0.47890  0.09140  Biso   1.000  H
  H274     1.0000 0.58690  0.52110  0.59140  Biso   1.000  H
  H275     1.0000 0.08690  0.97890  0.40860  Biso   1.000  H
  H276     1.0000 0.41310  0.02110  0.90860  Biso   1.000  H
  H277     1.0000 0.08690  0.52110  0.90860  Biso   1.000  H
  H278     1.0000 0.41310  0.47890  0.40860  Biso   1.000  H
  H279     1.0000 0.91310  0.02110  0.59140  Biso   1.000  H
  H280     1.0000 0.58690  0.97890  0.09140  Biso   1.000  H
  H281     1.0000 0.83920  0.43280  0.11970  Biso   1.000  H
  H282     1.0000 0.66080  0.56720  0.61970  Biso   1.000  H
  H283     1.0000 0.16080  0.93280  0.38030  Biso   1.000  H
  H284     1.0000 0.33920  0.06720  0.88030  Biso   1.000  H
  H285     1.0000 0.16080  0.56720  0.88030  Biso   1.000  H
  H286     1.0000 0.33920  0.43280  0.38030  Biso   1.000  H
  H287     1.0000 0.83920  0.06720  0.61970  Biso   1.000  H
  H288     1.0000 0.66080  0.93280  0.11970  Biso   1.000  H
  C169     1.0000 0.82730  0.42420  0.04440  Biso   1.000  C
  C170     1.0000 0.67270  0.57580  0.54440  Biso   1.000  C
  C171     1.0000 0.17270  0.92420  0.45560  Biso   1.000  C
  C172     1.0000 0.32730  0.07580  0.95560  Biso   1.000  C
  C173     1.0000 0.17270  0.57580  0.95560  Biso   1.000  C
  C174     1.0000 0.32730  0.42420  0.45560  Biso   1.000  C
  C175     1.0000 0.82730  0.07580  0.54440  Biso   1.000  C
  C176     1.0000 0.67270  0.92420  0.04440  Biso   1.000  C
  H289     1.0000 0.77140  0.45410  0.04250  Biso   1.000  H
  H290     1.0000 0.72860  0.54590  0.54250  Biso   1.000  H
  H291     1.0000 0.22860  0.95410  0.45750  Biso   1.000  H
  H292     1.0000 0.27140  0.04590  0.95750  Biso   1.000  H
  H293     1.0000 0.22860  0.54590  0.95750  Biso   1.000  H
  H294     1.0000 0.27140  0.45410  0.45750  Biso   1.000  H
  H295     1.0000 0.77140  0.04590  0.54250  Biso   1.000  H
  H296     1.0000 0.72860  0.95410  0.04250  Biso   1.000  H
  H297     1.0000 0.80110  0.38020  0.04410  Biso   1.000  H
  H298     1.0000 0.69890  0.61980  0.54410  Biso   1.000  H
  H299     1.0000 0.19890  0.88020  0.45590  Biso   1.000  H
  H300     1.0000 0.30110  0.11980  0.95590  Biso   1.000  H
  H301     1.0000 0.19890  0.61980  0.95590  Biso   1.000  H
  H302     1.0000 0.30110  0.38020  0.45590  Biso   1.000  H
  H303     1.0000 0.80110  0.11980  0.54410  Biso   1.000  H
  H304     1.0000 0.69890  0.88020  0.04410  Biso   1.000  H
  C177     1.0000 0.00280  0.38060  0.00940  Biso   1.000  C
  C178     1.0000 0.49720  0.61940  0.50940  Biso   1.000  C
  C179     1.0000 0.99720  0.88060  0.49060  Biso   1.000  C
  C180     1.0000 0.50280  0.11940  0.99060  Biso   1.000  C
  C181     1.0000 0.99720  0.61940  0.99060  Biso   1.000  C
  C182     1.0000 0.50280  0.38060  0.49060  Biso   1.000  C
  C183     1.0000 0.00280  0.11940  0.50940  Biso   1.000  C
  C184     1.0000 0.49720  0.88060  0.00940  Biso   1.000  C
  H305     1.0000 0.97730  0.33650  0.00750  Biso   1.000  H
  H306     1.0000 0.52270  0.66350  0.50750  Biso   1.000  H
  H307     1.0000 0.02270  0.83650  0.49250  Biso   1.000  H
  H308     1.0000 0.47730  0.16350  0.99250  Biso   1.000  H
  H309     1.0000 0.02270  0.66350  0.99250  Biso   1.000  H
  H310     1.0000 0.47730  0.33650  0.49250  Biso   1.000  H
  H311     1.0000 0.97730  0.16350  0.50750  Biso   1.000  H
  H312     1.0000 0.52270  0.83650  0.00750  Biso   1.000  H
  H313     1.0000 0.05760  0.38440  0.98610  Biso   1.000  H
  H314     1.0000 0.44240  0.61560  0.48610  Biso   1.000  H
  H315     1.0000 0.94240  0.88440  0.51390  Biso   1.000  H
  H316     1.0000 0.55760  0.11560  0.01390  Biso   1.000  H
  H317     1.0000 0.94240  0.61560  0.01390  Biso   1.000  H
  H318     1.0000 0.55760  0.38440  0.51390  Biso   1.000  H
  H319     1.0000 0.05760  0.11560  0.48610  Biso   1.000  H
  H320     1.0000 0.44240  0.88440  0.98610  Biso   1.000  H
  C185     1.0000 0.04070  0.39330  0.06090  Biso   1.000  C
  C186     1.0000 0.45930  0.60670  0.56090  Biso   1.000  C
  C187     1.0000 0.95930  0.89330  0.43910  Biso   1.000  C
  C188     1.0000 0.54070  0.10670  0.93910  Biso   1.000  C
  C189     1.0000 0.95930  0.60670  0.93910  Biso   1.000  C
  C190     1.0000 0.54070  0.39330  0.43910  Biso   1.000  C
  C191     1.0000 0.04070  0.10670  0.56090  Biso   1.000  C
  C192     1.0000 0.45930  0.89330  0.06090  Biso   1.000  C
  H321     1.0000 0.09240  0.36200  0.06890  Biso   1.000  H
  H322     1.0000 0.40760  0.63800  0.56890  Biso   1.000  H
  H323     1.0000 0.90760  0.86200  0.43110  Biso   1.000  H
  H324     1.0000 0.59240  0.13800  0.93110  Biso   1.000  H
  H325     1.0000 0.90760  0.63800  0.93110  Biso   1.000  H
  H326     1.0000 0.59240  0.36200  0.43110  Biso   1.000  H
  H327     1.0000 0.09240  0.13800  0.56890  Biso   1.000  H
  H328     1.0000 0.40760  0.86200  0.06890  Biso   1.000  H
  H329     1.0000 0.07000  0.43640  0.06230  Biso   1.000  H
  H330     1.0000 0.43000  0.56360  0.56230  Biso   1.000  H
  H331     1.0000 0.93000  0.93640  0.43770  Biso   1.000  H
  H332     1.0000 0.57000  0.06360  0.93770  Biso   1.000  H
  H333     1.0000 0.93000  0.56360  0.93770  Biso   1.000  H
  H334     1.0000 0.57000  0.43640  0.43770  Biso   1.000  H
  H335     1.0000 0.07000  0.06360  0.56230  Biso   1.000  H
  H336     1.0000 0.43000  0.93640  0.06230  Biso   1.000  H
