data_image0
_cell_length_a       13.58
_cell_length_b       20.8675
_cell_length_c       27.3564
_cell_angle_alpha    90
_cell_angle_beta     90
_cell_angle_gamma    90

_symmetry_space_group_name_H-M    "P 1"
_symmetry_int_tables_number       1

loop_
  _symmetry_equiv_pos_as_xyz
  'x, y, z'

loop_
  _atom_site_label
  _atom_site_occupancy
  _atom_site_fract_x
  _atom_site_fract_y
  _atom_site_fract_z
  _atom_site_thermal_displace_type
  _atom_site_B_iso_or_equiv
  _atom_site_type_symbol
  Cu1      1.0000 0.34336  0.20390  0.13785  Biso   1.000  Cu
  Cu2      1.0000 0.15664  0.79610  0.63785  Biso   1.000  Cu
  Cu3      1.0000 0.65664  0.70390  0.36215  Biso   1.000  Cu
  Cu4      1.0000 0.84336  0.29610  0.86215  Biso   1.000  Cu
  Cu5      1.0000 0.65664  0.79610  0.86215  Biso   1.000  Cu
  Cu6      1.0000 0.84336  0.20390  0.36215  Biso   1.000  Cu
  Cu7      1.0000 0.34336  0.29610  0.63785  Biso   1.000  Cu
  Cu8      1.0000 0.15664  0.70390  0.13785  Biso   1.000  Cu
  Cu9      1.0000 0.27022  0.08321  0.16233  Biso   1.000  Cu
  Cu10     1.0000 0.22978  0.91679  0.66233  Biso   1.000  Cu
  Cu11     1.0000 0.72978  0.58321  0.33767  Biso   1.000  Cu
  Cu12     1.0000 0.77022  0.41679  0.83767  Biso   1.000  Cu
  Cu13     1.0000 0.72978  0.91679  0.83767  Biso   1.000  Cu
  Cu14     1.0000 0.77022  0.08321  0.33767  Biso   1.000  Cu
  Cu15     1.0000 0.27022  0.41679  0.66233  Biso   1.000  Cu
  Cu16     1.0000 0.22978  0.58321  0.16233  Biso   1.000  Cu
  Cu17     1.0000 0.15377  0.16318  0.10787  Biso   1.000  Cu
  Cu18     1.0000 0.34623  0.83682  0.60787  Biso   1.000  Cu
  Cu19     1.0000 0.84623  0.66318  0.39213  Biso   1.000  Cu
  Cu20     1.0000 0.65377  0.33682  0.89213  Biso   1.000  Cu
  Cu21     1.0000 0.84623  0.83682  0.89213  Biso   1.000  Cu
  Cu22     1.0000 0.65377  0.16318  0.39213  Biso   1.000  Cu
  Cu23     1.0000 0.15377  0.33682  0.60787  Biso   1.000  Cu
  Cu24     1.0000 0.34623  0.66318  0.10787  Biso   1.000  Cu
  Cu25     1.0000 0.32689  0.11181  0.07297  Biso   1.000  Cu
  Cu26     1.0000 0.17311  0.88819  0.57297  Biso   1.000  Cu
  Cu27     1.0000 0.67311  0.61181  0.42703  Biso   1.000  Cu
  Cu28     1.0000 0.82689  0.38819  0.92703  Biso   1.000  Cu
  Cu29     1.0000 0.67311  0.88819  0.92703  Biso   1.000  Cu
  Cu30     1.0000 0.82689  0.11181  0.42703  Biso   1.000  Cu
  Cu31     1.0000 0.32689  0.38819  0.57297  Biso   1.000  Cu
  Cu32     1.0000 0.17311  0.61181  0.07297  Biso   1.000  Cu
  I1       1.0000 0.19769  0.19090  0.20316  Biso   1.000  I
  I2       1.0000 0.30231  0.80910  0.70316  Biso   1.000  I
  I3       1.0000 0.80231  0.69090  0.29684  Biso   1.000  I
  I4       1.0000 0.69769  0.30910  0.79684  Biso   1.000  I
  I5       1.0000 0.80231  0.80910  0.79684  Biso   1.000  I
  I6       1.0000 0.69769  0.19090  0.29684  Biso   1.000  I
  I7       1.0000 0.19769  0.30910  0.70316  Biso   1.000  I
  I8       1.0000 0.30231  0.69090  0.20316  Biso   1.000  I
  I9       1.0000 0.46171  0.09989  0.14557  Biso   1.000  I
  I10      1.0000 0.03829  0.90011  0.64557  Biso   1.000  I
  I11      1.0000 0.53829  0.59989  0.35443  Biso   1.000  I
  I12      1.0000 0.96171  0.40011  0.85443  Biso   1.000  I
  I13      1.0000 0.53829  0.90011  0.85443  Biso   1.000  I
  I14      1.0000 0.96171  0.09989  0.35443  Biso   1.000  I
  I15      1.0000 0.46171  0.40011  0.64557  Biso   1.000  I
  I16      1.0000 0.03829  0.59989  0.14557  Biso   1.000  I
  I17      1.0000 0.27593  0.23110  0.04698  Biso   1.000  I
  I18      1.0000 0.22407  0.76890  0.54698  Biso   1.000  I
  I19      1.0000 0.72407  0.73110  0.45302  Biso   1.000  I
  I20      1.0000 0.77593  0.26890  0.95302  Biso   1.000  I
  I21      1.0000 0.72407  0.76890  0.95302  Biso   1.000  I
  I22      1.0000 0.77593  0.23110  0.45302  Biso   1.000  I
  I23      1.0000 0.27593  0.26890  0.54698  Biso   1.000  I
  I24      1.0000 0.22407  0.73110  0.04698  Biso   1.000  I
  I25      1.0000 0.16313  0.04146  0.08470  Biso   1.000  I
  I26      1.0000 0.33687  0.95854  0.58470  Biso   1.000  I
  I27      1.0000 0.83687  0.54146  0.41530  Biso   1.000  I
  I28      1.0000 0.66313  0.45854  0.91530  Biso   1.000  I
  I29      1.0000 0.83687  0.95854  0.91530  Biso   1.000  I
  I30      1.0000 0.66313  0.04146  0.41530  Biso   1.000  I
  I31      1.0000 0.16313  0.45854  0.58470  Biso   1.000  I
  I32      1.0000 0.33687  0.54146  0.08470  Biso   1.000  I
  S1       1.0000 0.42840  0.29423  0.16031  Biso   1.000  S
  S2       1.0000 0.07160  0.70577  0.66031  Biso   1.000  S
  S3       1.0000 0.57160  0.79423  0.33969  Biso   1.000  S
  S4       1.0000 0.92840  0.20577  0.83969  Biso   1.000  S
  S5       1.0000 0.57160  0.70577  0.83969  Biso   1.000  S
  S6       1.0000 0.92840  0.29423  0.33969  Biso   1.000  S
  S7       1.0000 0.42840  0.20577  0.66031  Biso   1.000  S
  S8       1.0000 0.07160  0.79423  0.16031  Biso   1.000  S
  S9       1.0000 0.25360  0.51075  0.22369  Biso   1.000  S
  S10      1.0000 0.24640  0.48925  0.72369  Biso   1.000  S
  S11      1.0000 0.74640  0.01075  0.27631  Biso   1.000  S
  S12      1.0000 0.75360  0.98925  0.77631  Biso   1.000  S
  S13      1.0000 0.74640  0.48925  0.77631  Biso   1.000  S
  S14      1.0000 0.75360  0.51075  0.27631  Biso   1.000  S
  S15      1.0000 0.25360  0.98925  0.72369  Biso   1.000  S
  S16      1.0000 0.24640  0.01075  0.22369  Biso   1.000  S
  S17      1.0000 0.01480  0.22280  0.08886  Biso   1.000  S
  S18      1.0000 0.48520  0.77720  0.58886  Biso   1.000  S
  S19      1.0000 0.98520  0.72280  0.41114  Biso   1.000  S
  S20      1.0000 0.51480  0.27720  0.91114  Biso   1.000  S
  S21      1.0000 0.98520  0.77720  0.91114  Biso   1.000  S
  S22      1.0000 0.51480  0.22280  0.41114  Biso   1.000  S
  S23      1.0000 0.01480  0.27720  0.58886  Biso   1.000  S
  S24      1.0000 0.48520  0.72280  0.08886  Biso   1.000  S
  S25      1.0000 0.91070  0.43308  0.99076  Biso   1.000  S
  S26      1.0000 0.58930  0.56692  0.49076  Biso   1.000  S
  S27      1.0000 0.08930  0.93308  0.50924  Biso   1.000  S
  S28      1.0000 0.41070  0.06692  0.00924  Biso   1.000  S
  S29      1.0000 0.08930  0.56692  0.00924  Biso   1.000  S
  S30      1.0000 0.41070  0.43308  0.50924  Biso   1.000  S
  S31      1.0000 0.91070  0.06692  0.49076  Biso   1.000  S
  S32      1.0000 0.58930  0.93308  0.99076  Biso   1.000  S
  O1       1.0000 0.54960  0.36550  0.26630  Biso   1.000  O
  O2       1.0000 0.95040  0.63450  0.76630  Biso   1.000  O
  O3       1.0000 0.45040  0.86550  0.23370  Biso   1.000  O
  O4       1.0000 0.04960  0.13450  0.73370  Biso   1.000  O
  O5       1.0000 0.45040  0.63450  0.73370  Biso   1.000  O
  O6       1.0000 0.04960  0.36550  0.23370  Biso   1.000  O
  O7       1.0000 0.54960  0.13450  0.76630  Biso   1.000  O
  O8       1.0000 0.95040  0.86550  0.26630  Biso   1.000  O
  O9       1.0000 0.87060  0.33310  0.15010  Biso   1.000  O
  O10      1.0000 0.62940  0.66690  0.65010  Biso   1.000  O
  O11      1.0000 0.12940  0.83310  0.34990  Biso   1.000  O
  O12      1.0000 0.37060  0.16690  0.84990  Biso   1.000  O
  O13      1.0000 0.12940  0.66690  0.84990  Biso   1.000  O
  O14      1.0000 0.37060  0.33310  0.34990  Biso   1.000  O
  O15      1.0000 0.87060  0.16690  0.65010  Biso   1.000  O
  O16      1.0000 0.62940  0.83310  0.15010  Biso   1.000  O
  N1       1.0000 0.39730  0.39750  0.24700  Biso   1.000  N
  N2       1.0000 0.10270  0.60250  0.74700  Biso   1.000  N
  N3       1.0000 0.60270  0.89750  0.25300  Biso   1.000  N
  N4       1.0000 0.89730  0.10250  0.75300  Biso   1.000  N
  N5       1.0000 0.60270  0.60250  0.75300  Biso   1.000  N
  N6       1.0000 0.89730  0.39750  0.25300  Biso   1.000  N
  N7       1.0000 0.39730  0.10250  0.74700  Biso   1.000  N
  N8       1.0000 0.10270  0.89750  0.24700  Biso   1.000  N
  N9       1.0000 0.96390  0.38820  0.09600  Biso   1.000  N
  N10      1.0000 0.53610  0.61180  0.59600  Biso   1.000  N
  N11      1.0000 0.03610  0.88820  0.40400  Biso   1.000  N
  N12      1.0000 0.46390  0.11180  0.90400  Biso   1.000  N
  N13      1.0000 0.03610  0.61180  0.90400  Biso   1.000  N
  N14      1.0000 0.46390  0.38820  0.40400  Biso   1.000  N
  N15      1.0000 0.96390  0.11180  0.59600  Biso   1.000  N
  N16      1.0000 0.53610  0.88820  0.09600  Biso   1.000  N
  C1       1.0000 0.61850  0.34250  0.14780  Biso   1.000  C
  C2       1.0000 0.88150  0.65750  0.64780  Biso   1.000  C
  C3       1.0000 0.38150  0.84250  0.35220  Biso   1.000  C
  C4       1.0000 0.11850  0.15750  0.85220  Biso   1.000  C
  C5       1.0000 0.38150  0.65750  0.85220  Biso   1.000  C
  C6       1.0000 0.11850  0.34250  0.35220  Biso   1.000  C
  C7       1.0000 0.61850  0.15750  0.64780  Biso   1.000  C
  C8       1.0000 0.88150  0.84250  0.14780  Biso   1.000  C
  H1       1.0000 0.68410  0.33520  0.13490  Biso   1.000  H
  H2       1.0000 0.81590  0.66480  0.63490  Biso   1.000  H
  H3       1.0000 0.31590  0.83520  0.36510  Biso   1.000  H
  H4       1.0000 0.18410  0.16480  0.86510  Biso   1.000  H
  H5       1.0000 0.31590  0.66480  0.86510  Biso   1.000  H
  H6       1.0000 0.18410  0.33520  0.36510  Biso   1.000  H
  H7       1.0000 0.68410  0.16480  0.63490  Biso   1.000  H
  H8       1.0000 0.81590  0.83520  0.13490  Biso   1.000  H
  H9       1.0000 0.62320  0.34440  0.18320  Biso   1.000  H
  H10      1.0000 0.87680  0.65560  0.68320  Biso   1.000  H
  H11      1.0000 0.37680  0.84440  0.31680  Biso   1.000  H
  H12      1.0000 0.12320  0.15560  0.81680  Biso   1.000  H
  H13      1.0000 0.37680  0.65560  0.81680  Biso   1.000  H
  H14      1.0000 0.12320  0.34440  0.31680  Biso   1.000  H
  H15      1.0000 0.62320  0.15560  0.68320  Biso   1.000  H
  H16      1.0000 0.87680  0.84440  0.18320  Biso   1.000  H
  C9       1.0000 0.57970  0.40550  0.12880  Biso   1.000  C
  C10      1.0000 0.92030  0.59450  0.62880  Biso   1.000  C
  C11      1.0000 0.42030  0.90550  0.37120  Biso   1.000  C
  C12      1.0000 0.07970  0.09450  0.87120  Biso   1.000  C
  C13      1.0000 0.42030  0.59450  0.87120  Biso   1.000  C
  C14      1.0000 0.07970  0.40550  0.37120  Biso   1.000  C
  C15      1.0000 0.57970  0.09450  0.62880  Biso   1.000  C
  C16      1.0000 0.92030  0.90550  0.12880  Biso   1.000  C
  H17      1.0000 0.62390  0.44000  0.13790  Biso   1.000  H
  H18      1.0000 0.87610  0.56000  0.63790  Biso   1.000  H
  H19      1.0000 0.37610  0.94000  0.36210  Biso   1.000  H
  H20      1.0000 0.12390  0.06000  0.86210  Biso   1.000  H
  H21      1.0000 0.37610  0.56000  0.86210  Biso   1.000  H
  H22      1.0000 0.12390  0.44000  0.36210  Biso   1.000  H
  H23      1.0000 0.62390  0.06000  0.63790  Biso   1.000  H
  H24      1.0000 0.87610  0.94000  0.13790  Biso   1.000  H
  H25      1.0000 0.51550  0.41430  0.14270  Biso   1.000  H
  H26      1.0000 0.98450  0.58570  0.64270  Biso   1.000  H
  H27      1.0000 0.48450  0.91430  0.35730  Biso   1.000  H
  H28      1.0000 0.01550  0.08570  0.85730  Biso   1.000  H
  H29      1.0000 0.48450  0.58570  0.85730  Biso   1.000  H
  H30      1.0000 0.01550  0.41430  0.35730  Biso   1.000  H
  H31      1.0000 0.51550  0.08570  0.64270  Biso   1.000  H
  H32      1.0000 0.98450  0.91430  0.14270  Biso   1.000  H
  C17      1.0000 0.57200  0.40080  0.07060  Biso   1.000  C
  C18      1.0000 0.92800  0.59920  0.57060  Biso   1.000  C
  C19      1.0000 0.42800  0.90080  0.42940  Biso   1.000  C
  C20      1.0000 0.07200  0.09920  0.92940  Biso   1.000  C
  C21      1.0000 0.42800  0.59920  0.92940  Biso   1.000  C
  C22      1.0000 0.07200  0.40080  0.42940  Biso   1.000  C
  C23      1.0000 0.57200  0.09920  0.57060  Biso   1.000  C
  C24      1.0000 0.92800  0.90080  0.07060  Biso   1.000  C
  H33      1.0000 0.54010  0.43890  0.05770  Biso   1.000  H
  H34      1.0000 0.95990  0.56110  0.55770  Biso   1.000  H
  H35      1.0000 0.45990  0.93890  0.44230  Biso   1.000  H
  H36      1.0000 0.04010  0.06110  0.94230  Biso   1.000  H
  H37      1.0000 0.45990  0.56110  0.94230  Biso   1.000  H
  H38      1.0000 0.04010  0.43890  0.44230  Biso   1.000  H
  H39      1.0000 0.54010  0.06110  0.55770  Biso   1.000  H
  H40      1.0000 0.95990  0.93890  0.05770  Biso   1.000  H
  H41      1.0000 0.63690  0.39750  0.05640  Biso   1.000  H
  H42      1.0000 0.86310  0.60250  0.55640  Biso   1.000  H
  H43      1.0000 0.36310  0.89750  0.44360  Biso   1.000  H
  H44      1.0000 0.13690  0.10250  0.94360  Biso   1.000  H
  H45      1.0000 0.36310  0.60250  0.94360  Biso   1.000  H
  H46      1.0000 0.13690  0.39750  0.44360  Biso   1.000  H
  H47      1.0000 0.63690  0.10250  0.55640  Biso   1.000  H
  H48      1.0000 0.86310  0.89750  0.05640  Biso   1.000  H
  C25      1.0000 0.51520  0.34530  0.05900  Biso   1.000  C
  C26      1.0000 0.98480  0.65470  0.55900  Biso   1.000  C
  C27      1.0000 0.48480  0.84530  0.44100  Biso   1.000  C
  C28      1.0000 0.01520  0.15470  0.94100  Biso   1.000  C
  C29      1.0000 0.48480  0.65470  0.94100  Biso   1.000  C
  C30      1.0000 0.01520  0.34530  0.44100  Biso   1.000  C
  C31      1.0000 0.51520  0.15470  0.55900  Biso   1.000  C
  C32      1.0000 0.98480  0.84530  0.05900  Biso   1.000  C
  H49      1.0000 0.51290  0.34110  0.02370  Biso   1.000  H
  H50      1.0000 0.98710  0.65890  0.52370  Biso   1.000  H
  H51      1.0000 0.48710  0.84110  0.47630  Biso   1.000  H
  H52      1.0000 0.01290  0.15890  0.97630  Biso   1.000  H
  H53      1.0000 0.48710  0.65890  0.97630  Biso   1.000  H
  H54      1.0000 0.01290  0.34110  0.47630  Biso   1.000  H
  H55      1.0000 0.51290  0.15890  0.52370  Biso   1.000  H
  H56      1.0000 0.98710  0.84110  0.02370  Biso   1.000  H
  H57      1.0000 0.44820  0.35220  0.07020  Biso   1.000  H
  H58      1.0000 0.05180  0.64780  0.57020  Biso   1.000  H
  H59      1.0000 0.55180  0.85220  0.42980  Biso   1.000  H
  H60      1.0000 0.94820  0.14780  0.92980  Biso   1.000  H
  H61      1.0000 0.55180  0.64780  0.92980  Biso   1.000  H
  H62      1.0000 0.94820  0.35220  0.42980  Biso   1.000  H
  H63      1.0000 0.44820  0.14780  0.57020  Biso   1.000  H
  H64      1.0000 0.05180  0.85220  0.07020  Biso   1.000  H
  C33      1.0000 0.55300  0.28040  0.08090  Biso   1.000  C
  C34      1.0000 0.94700  0.71960  0.58090  Biso   1.000  C
  C35      1.0000 0.44700  0.78040  0.41910  Biso   1.000  C
  C36      1.0000 0.05300  0.21960  0.91910  Biso   1.000  C
  C37      1.0000 0.44700  0.71960  0.91910  Biso   1.000  C
  C38      1.0000 0.05300  0.28040  0.41910  Biso   1.000  C
  C39      1.0000 0.55300  0.21960  0.58090  Biso   1.000  C
  C40      1.0000 0.94700  0.78040  0.08090  Biso   1.000  C
  H65      1.0000 0.50930  0.24560  0.07190  Biso   1.000  H
  H66      1.0000 0.99070  0.75440  0.57190  Biso   1.000  H
  H67      1.0000 0.49070  0.74560  0.42810  Biso   1.000  H
  H68      1.0000 0.00930  0.25440  0.92810  Biso   1.000  H
  H69      1.0000 0.49070  0.75440  0.92810  Biso   1.000  H
  H70      1.0000 0.00930  0.24560  0.42810  Biso   1.000  H
  H71      1.0000 0.50930  0.25440  0.57190  Biso   1.000  H
  H72      1.0000 0.99070  0.74560  0.07190  Biso   1.000  H
  H73      1.0000 0.61860  0.27080  0.06900  Biso   1.000  H
  H74      1.0000 0.88140  0.72920  0.56900  Biso   1.000  H
  H75      1.0000 0.38140  0.77080  0.43100  Biso   1.000  H
  H76      1.0000 0.11860  0.22920  0.93100  Biso   1.000  H
  H77      1.0000 0.38140  0.72920  0.93100  Biso   1.000  H
  H78      1.0000 0.11860  0.27080  0.43100  Biso   1.000  H
  H79      1.0000 0.61860  0.22920  0.56900  Biso   1.000  H
  H80      1.0000 0.88140  0.77080  0.06900  Biso   1.000  H
  C41      1.0000 0.55410  0.28890  0.13370  Biso   1.000  C
  C42      1.0000 0.94590  0.71110  0.63370  Biso   1.000  C
  C43      1.0000 0.44590  0.78890  0.36630  Biso   1.000  C
  C44      1.0000 0.05410  0.21110  0.86630  Biso   1.000  C
  C45      1.0000 0.44590  0.71110  0.86630  Biso   1.000  C
  C46      1.0000 0.05410  0.28890  0.36630  Biso   1.000  C
  C47      1.0000 0.55410  0.21110  0.63370  Biso   1.000  C
  C48      1.0000 0.94590  0.78890  0.13370  Biso   1.000  C
  H81      1.0000 0.58400  0.25010  0.14730  Biso   1.000  H
  H82      1.0000 0.91600  0.74990  0.64730  Biso   1.000  H
  H83      1.0000 0.41600  0.75010  0.35270  Biso   1.000  H
  H84      1.0000 0.08400  0.24990  0.85270  Biso   1.000  H
  H85      1.0000 0.41600  0.74990  0.85270  Biso   1.000  H
  H86      1.0000 0.08400  0.25010  0.35270  Biso   1.000  H
  H87      1.0000 0.58400  0.24990  0.64730  Biso   1.000  H
  H88      1.0000 0.91600  0.75010  0.14730  Biso   1.000  H
  C49      1.0000 0.45090  0.28960  0.22540  Biso   1.000  C
  C50      1.0000 0.04910  0.71040  0.72540  Biso   1.000  C
  C51      1.0000 0.54910  0.78960  0.27460  Biso   1.000  C
  C52      1.0000 0.95090  0.21040  0.77460  Biso   1.000  C
  C53      1.0000 0.54910  0.71040  0.77460  Biso   1.000  C
  C54      1.0000 0.95090  0.28960  0.27460  Biso   1.000  C
  C55      1.0000 0.45090  0.21040  0.72540  Biso   1.000  C
  C56      1.0000 0.04910  0.78960  0.22540  Biso   1.000  C
  H89      1.0000 0.39480  0.26920  0.24100  Biso   1.000  H
  H90      1.0000 0.10520  0.73080  0.74100  Biso   1.000  H
  H91      1.0000 0.60520  0.76920  0.25900  Biso   1.000  H
  H92      1.0000 0.89480  0.23080  0.75900  Biso   1.000  H
  H93      1.0000 0.60520  0.73080  0.75900  Biso   1.000  H
  H94      1.0000 0.89480  0.26920  0.25900  Biso   1.000  H
  H95      1.0000 0.39480  0.23080  0.74100  Biso   1.000  H
  H96      1.0000 0.10520  0.76920  0.24100  Biso   1.000  H
  H97      1.0000 0.50800  0.26270  0.23110  Biso   1.000  H
  H98      1.0000 0.99200  0.73730  0.73110  Biso   1.000  H
  H99      1.0000 0.49200  0.76270  0.26890  Biso   1.000  H
  H100     1.0000 0.00800  0.23730  0.76890  Biso   1.000  H
  H101     1.0000 0.49200  0.73730  0.76890  Biso   1.000  H
  H102     1.0000 0.00800  0.26270  0.26890  Biso   1.000  H
  H103     1.0000 0.50800  0.23730  0.73110  Biso   1.000  H
  H104     1.0000 0.99200  0.76270  0.23110  Biso   1.000  H
  C57      1.0000 0.46830  0.35490  0.24930  Biso   1.000  C
  C58      1.0000 0.03170  0.64510  0.74930  Biso   1.000  C
  C59      1.0000 0.53170  0.85490  0.25070  Biso   1.000  C
  C60      1.0000 0.96830  0.14510  0.75070  Biso   1.000  C
  C61      1.0000 0.53170  0.64510  0.75070  Biso   1.000  C
  C62      1.0000 0.96830  0.35490  0.25070  Biso   1.000  C
  C63      1.0000 0.46830  0.14510  0.74930  Biso   1.000  C
  C64      1.0000 0.03170  0.85490  0.24930  Biso   1.000  C
  C65      1.0000 0.29490  0.38390  0.23690  Biso   1.000  C
  C66      1.0000 0.20510  0.61610  0.73690  Biso   1.000  C
  C67      1.0000 0.70510  0.88390  0.26310  Biso   1.000  C
  C68      1.0000 0.79490  0.11610  0.76310  Biso   1.000  C
  C69      1.0000 0.70510  0.61610  0.76310  Biso   1.000  C
  C70      1.0000 0.79490  0.38390  0.26310  Biso   1.000  C
  C71      1.0000 0.29490  0.11610  0.73690  Biso   1.000  C
  C72      1.0000 0.20510  0.88390  0.23690  Biso   1.000  C
  H105     1.0000 0.25760  0.38640  0.26700  Biso   1.000  H
  H106     1.0000 0.24240  0.61360  0.76700  Biso   1.000  H
  H107     1.0000 0.74240  0.88640  0.23300  Biso   1.000  H
  H108     1.0000 0.75760  0.11360  0.73300  Biso   1.000  H
  H109     1.0000 0.74240  0.61360  0.73300  Biso   1.000  H
  H110     1.0000 0.75760  0.38640  0.23300  Biso   1.000  H
  H111     1.0000 0.25760  0.11360  0.76700  Biso   1.000  H
  H112     1.0000 0.24240  0.88640  0.26700  Biso   1.000  H
  H113     1.0000 0.28910  0.34050  0.22440  Biso   1.000  H
  H114     1.0000 0.21090  0.65950  0.72440  Biso   1.000  H
  H115     1.0000 0.71090  0.84050  0.27560  Biso   1.000  H
  H116     1.0000 0.78910  0.15950  0.77560  Biso   1.000  H
  H117     1.0000 0.71090  0.65950  0.77560  Biso   1.000  H
  H118     1.0000 0.78910  0.34050  0.27560  Biso   1.000  H
  H119     1.0000 0.28910  0.15950  0.72440  Biso   1.000  H
  H120     1.0000 0.21090  0.84050  0.22440  Biso   1.000  H
  C73      1.0000 0.25140  0.43030  0.19980  Biso   1.000  C
  C74      1.0000 0.24860  0.56970  0.69980  Biso   1.000  C
  C75      1.0000 0.74860  0.93030  0.30020  Biso   1.000  C
  C76      1.0000 0.75140  0.06970  0.80020  Biso   1.000  C
  C77      1.0000 0.74860  0.56970  0.80020  Biso   1.000  C
  C78      1.0000 0.75140  0.43030  0.30020  Biso   1.000  C
  C79      1.0000 0.25140  0.06970  0.69980  Biso   1.000  C
  C80      1.0000 0.24860  0.93030  0.19980  Biso   1.000  C
  H121     1.0000 0.18410  0.41810  0.19250  Biso   1.000  H
  H122     1.0000 0.31590  0.58190  0.69250  Biso   1.000  H
  H123     1.0000 0.81590  0.91810  0.30750  Biso   1.000  H
  H124     1.0000 0.68410  0.08190  0.80750  Biso   1.000  H
  H125     1.0000 0.81590  0.58190  0.80750  Biso   1.000  H
  H126     1.0000 0.68410  0.41810  0.30750  Biso   1.000  H
  H127     1.0000 0.18410  0.08190  0.69250  Biso   1.000  H
  H128     1.0000 0.31590  0.91810  0.19250  Biso   1.000  H
  H129     1.0000 0.28910  0.42850  0.16970  Biso   1.000  H
  H130     1.0000 0.21090  0.57150  0.66970  Biso   1.000  H
  H131     1.0000 0.71090  0.92850  0.33030  Biso   1.000  H
  H132     1.0000 0.78910  0.07150  0.83030  Biso   1.000  H
  H133     1.0000 0.71090  0.57150  0.83030  Biso   1.000  H
  H134     1.0000 0.78910  0.42850  0.33030  Biso   1.000  H
  H135     1.0000 0.28910  0.07150  0.66970  Biso   1.000  H
  H136     1.0000 0.21090  0.92850  0.16970  Biso   1.000  H
  C81      1.0000 0.38060  0.51350  0.23690  Biso   1.000  C
  C82      1.0000 0.11940  0.48650  0.73690  Biso   1.000  C
  C83      1.0000 0.61940  0.01350  0.26310  Biso   1.000  C
  C84      1.0000 0.88060  0.98650  0.76310  Biso   1.000  C
  C85      1.0000 0.61940  0.48650  0.76310  Biso   1.000  C
  C86      1.0000 0.88060  0.51350  0.26310  Biso   1.000  C
  C87      1.0000 0.38060  0.98650  0.73690  Biso   1.000  C
  C88      1.0000 0.11940  0.01350  0.23690  Biso   1.000  C
  H137     1.0000 0.41700  0.51100  0.20640  Biso   1.000  H
  H138     1.0000 0.08300  0.48900  0.70640  Biso   1.000  H
  H139     1.0000 0.58300  0.01100  0.29360  Biso   1.000  H
  H140     1.0000 0.91700  0.98900  0.79360  Biso   1.000  H
  H141     1.0000 0.58300  0.48900  0.79360  Biso   1.000  H
  H142     1.0000 0.91700  0.51100  0.29360  Biso   1.000  H
  H143     1.0000 0.41700  0.98900  0.70640  Biso   1.000  H
  H144     1.0000 0.08300  0.01100  0.20640  Biso   1.000  H
  H145     1.0000 0.39560  0.55450  0.25180  Biso   1.000  H
  H146     1.0000 0.10440  0.44550  0.75180  Biso   1.000  H
  H147     1.0000 0.60440  0.05450  0.24820  Biso   1.000  H
  H148     1.0000 0.89560  0.94550  0.74820  Biso   1.000  H
  H149     1.0000 0.60440  0.44550  0.74820  Biso   1.000  H
  H150     1.0000 0.89560  0.55450  0.24820  Biso   1.000  H
  H151     1.0000 0.39560  0.94550  0.75180  Biso   1.000  H
  H152     1.0000 0.10440  0.05450  0.25180  Biso   1.000  H
  C89      1.0000 0.41650  0.46050  0.27070  Biso   1.000  C
  C90      1.0000 0.08350  0.53950  0.77070  Biso   1.000  C
  C91      1.0000 0.58350  0.96050  0.22930  Biso   1.000  C
  C92      1.0000 0.91650  0.03950  0.72930  Biso   1.000  C
  C93      1.0000 0.58350  0.53950  0.72930  Biso   1.000  C
  C94      1.0000 0.91650  0.46050  0.22930  Biso   1.000  C
  C95      1.0000 0.41650  0.03950  0.77070  Biso   1.000  C
  C96      1.0000 0.08350  0.96050  0.27070  Biso   1.000  C
  H153     1.0000 0.48640  0.46550  0.27680  Biso   1.000  H
  H154     1.0000 0.01360  0.53450  0.77680  Biso   1.000  H
  H155     1.0000 0.51360  0.96550  0.22320  Biso   1.000  H
  H156     1.0000 0.98640  0.03450  0.72320  Biso   1.000  H
  H157     1.0000 0.51360  0.53450  0.72320  Biso   1.000  H
  H158     1.0000 0.98640  0.46550  0.22320  Biso   1.000  H
  H159     1.0000 0.48640  0.03450  0.77680  Biso   1.000  H
  H160     1.0000 0.01360  0.96550  0.27680  Biso   1.000  H
  H161     1.0000 0.38210  0.46290  0.30170  Biso   1.000  H
  H162     1.0000 0.11790  0.53710  0.80170  Biso   1.000  H
  H163     1.0000 0.61790  0.96290  0.19830  Biso   1.000  H
  H164     1.0000 0.88210  0.03710  0.69830  Biso   1.000  H
  H165     1.0000 0.61790  0.53710  0.69830  Biso   1.000  H
  H166     1.0000 0.88210  0.46290  0.19830  Biso   1.000  H
  H167     1.0000 0.38210  0.03710  0.80170  Biso   1.000  H
  H168     1.0000 0.11790  0.96290  0.30170  Biso   1.000  H
  C97      1.0000 0.86720  0.14030  0.06590  Biso   1.000  C
  C98      1.0000 0.63280  0.85970  0.56590  Biso   1.000  C
  C99      1.0000 0.13280  0.64030  0.43410  Biso   1.000  C
  C100     1.0000 0.36720  0.35970  0.93410  Biso   1.000  C
  C101     1.0000 0.13280  0.85970  0.93410  Biso   1.000  C
  C102     1.0000 0.36720  0.14030  0.43410  Biso   1.000  C
  C103     1.0000 0.86720  0.35970  0.56590  Biso   1.000  C
  C104     1.0000 0.63280  0.64030  0.06590  Biso   1.000  C
  H169     1.0000 0.91720  0.10800  0.06020  Biso   1.000  H
  H170     1.0000 0.58280  0.89200  0.56020  Biso   1.000  H
  H171     1.0000 0.08280  0.60800  0.43980  Biso   1.000  H
  H172     1.0000 0.41720  0.39200  0.93980  Biso   1.000  H
  H173     1.0000 0.08280  0.89200  0.93980  Biso   1.000  H
  H174     1.0000 0.41720  0.10800  0.43980  Biso   1.000  H
  H175     1.0000 0.91720  0.39200  0.56020  Biso   1.000  H
  H176     1.0000 0.58280  0.60800  0.06020  Biso   1.000  H
  H177     1.0000 0.85930  0.16510  0.03620  Biso   1.000  H
  H178     1.0000 0.64070  0.83490  0.53620  Biso   1.000  H
  H179     1.0000 0.14070  0.66510  0.46380  Biso   1.000  H
  H180     1.0000 0.35930  0.33490  0.96380  Biso   1.000  H
  H181     1.0000 0.14070  0.83490  0.96380  Biso   1.000  H
  H182     1.0000 0.35930  0.16510  0.46380  Biso   1.000  H
  H183     1.0000 0.85930  0.33490  0.53620  Biso   1.000  H
  H184     1.0000 0.64070  0.66510  0.03620  Biso   1.000  H
  C105     1.0000 0.76950  0.10780  0.07910  Biso   1.000  C
  C106     1.0000 0.73050  0.89220  0.57910  Biso   1.000  C
  C107     1.0000 0.23050  0.60780  0.42090  Biso   1.000  C
  C108     1.0000 0.26950  0.39220  0.92090  Biso   1.000  C
  C109     1.0000 0.23050  0.89220  0.92090  Biso   1.000  C
  C110     1.0000 0.26950  0.10780  0.42090  Biso   1.000  C
  C111     1.0000 0.76950  0.39220  0.57910  Biso   1.000  C
  C112     1.0000 0.73050  0.60780  0.07910  Biso   1.000  C
  H185     1.0000 0.75520  0.07450  0.05540  Biso   1.000  H
  H186     1.0000 0.74480  0.92550  0.55540  Biso   1.000  H
  H187     1.0000 0.24480  0.57450  0.44460  Biso   1.000  H
  H188     1.0000 0.25520  0.42550  0.94460  Biso   1.000  H
  H189     1.0000 0.24480  0.92550  0.94460  Biso   1.000  H
  H190     1.0000 0.25520  0.07450  0.44460  Biso   1.000  H
  H191     1.0000 0.75520  0.42550  0.55540  Biso   1.000  H
  H192     1.0000 0.74480  0.57450  0.05540  Biso   1.000  H
  H193     1.0000 0.71670  0.13910  0.07770  Biso   1.000  H
  H194     1.0000 0.78330  0.86090  0.57770  Biso   1.000  H
  H195     1.0000 0.28330  0.63910  0.42230  Biso   1.000  H
  H196     1.0000 0.21670  0.36090  0.92230  Biso   1.000  H
  H197     1.0000 0.28330  0.86090  0.92230  Biso   1.000  H
  H198     1.0000 0.21670  0.13910  0.42230  Biso   1.000  H
  H199     1.0000 0.71670  0.36090  0.57770  Biso   1.000  H
  H200     1.0000 0.78330  0.63910  0.07770  Biso   1.000  H
  C113     1.0000 0.77400  0.07800  0.13140  Biso   1.000  C
  C114     1.0000 0.72600  0.92200  0.63140  Biso   1.000  C
  C115     1.0000 0.22600  0.57800  0.36860  Biso   1.000  C
  C116     1.0000 0.27400  0.42200  0.86860  Biso   1.000  C
  C117     1.0000 0.22600  0.92200  0.86860  Biso   1.000  C
  C118     1.0000 0.27400  0.07800  0.36860  Biso   1.000  C
  C119     1.0000 0.77400  0.42200  0.63140  Biso   1.000  C
  C120     1.0000 0.72600  0.57800  0.13140  Biso   1.000  C
  H201     1.0000 0.71040  0.05950  0.13940  Biso   1.000  H
  H202     1.0000 0.78960  0.94050  0.63940  Biso   1.000  H
  H203     1.0000 0.28960  0.55950  0.36060  Biso   1.000  H
  H204     1.0000 0.21040  0.44050  0.86060  Biso   1.000  H
  H205     1.0000 0.28960  0.94050  0.86060  Biso   1.000  H
  H206     1.0000 0.21040  0.05950  0.36060  Biso   1.000  H
  H207     1.0000 0.71040  0.44050  0.63940  Biso   1.000  H
  H208     1.0000 0.78960  0.55950  0.13940  Biso   1.000  H
  H209     1.0000 0.82230  0.04370  0.13180  Biso   1.000  H
  H210     1.0000 0.67770  0.95630  0.63180  Biso   1.000  H
  H211     1.0000 0.17770  0.54370  0.36820  Biso   1.000  H
  H212     1.0000 0.32230  0.45630  0.86820  Biso   1.000  H
  H213     1.0000 0.17770  0.95630  0.86820  Biso   1.000  H
  H214     1.0000 0.32230  0.04370  0.36820  Biso   1.000  H
  H215     1.0000 0.82230  0.45630  0.63180  Biso   1.000  H
  H216     1.0000 0.67770  0.54370  0.13180  Biso   1.000  H
  C121     1.0000 0.79900  0.12350  0.16680  Biso   1.000  C
  C122     1.0000 0.70100  0.87650  0.66680  Biso   1.000  C
  C123     1.0000 0.20100  0.62350  0.33320  Biso   1.000  C
  C124     1.0000 0.29900  0.37650  0.83320  Biso   1.000  C
  C125     1.0000 0.20100  0.87650  0.83320  Biso   1.000  C
  C126     1.0000 0.29900  0.12350  0.33320  Biso   1.000  C
  C127     1.0000 0.79900  0.37650  0.66680  Biso   1.000  C
  C128     1.0000 0.70100  0.62350  0.16680  Biso   1.000  C
  H217     1.0000 0.80040  0.10330  0.19870  Biso   1.000  H
  H218     1.0000 0.69960  0.89670  0.69870  Biso   1.000  H
  H219     1.0000 0.19960  0.60330  0.30130  Biso   1.000  H
  H220     1.0000 0.30040  0.39670  0.80130  Biso   1.000  H
  H221     1.0000 0.19960  0.89670  0.80130  Biso   1.000  H
  H222     1.0000 0.30040  0.10330  0.30130  Biso   1.000  H
  H223     1.0000 0.80040  0.39670  0.69870  Biso   1.000  H
  H224     1.0000 0.69960  0.60330  0.19870  Biso   1.000  H
  H225     1.0000 0.74940  0.15690  0.16740  Biso   1.000  H
  H226     1.0000 0.75060  0.84310  0.66740  Biso   1.000  H
  H227     1.0000 0.25060  0.65690  0.33260  Biso   1.000  H
  H228     1.0000 0.24940  0.34310  0.83260  Biso   1.000  H
  H229     1.0000 0.25060  0.84310  0.83260  Biso   1.000  H
  H230     1.0000 0.24940  0.15690  0.33260  Biso   1.000  H
  H231     1.0000 0.74940  0.34310  0.66740  Biso   1.000  H
  H232     1.0000 0.75060  0.65690  0.16740  Biso   1.000  H
  C129     1.0000 0.90130  0.15370  0.15580  Biso   1.000  C
  C130     1.0000 0.59870  0.84630  0.65580  Biso   1.000  C
  C131     1.0000 0.09870  0.65370  0.34420  Biso   1.000  C
  C132     1.0000 0.40130  0.34630  0.84420  Biso   1.000  C
  C133     1.0000 0.09870  0.84630  0.84420  Biso   1.000  C
  C134     1.0000 0.40130  0.15370  0.34420  Biso   1.000  C
  C135     1.0000 0.90130  0.34630  0.65580  Biso   1.000  C
  C136     1.0000 0.59870  0.65370  0.15580  Biso   1.000  C
  H233     1.0000 0.91680  0.18560  0.18050  Biso   1.000  H
  H234     1.0000 0.58320  0.81440  0.68050  Biso   1.000  H
  H235     1.0000 0.08320  0.68560  0.31950  Biso   1.000  H
  H236     1.0000 0.41680  0.31440  0.81950  Biso   1.000  H
  H237     1.0000 0.08320  0.81440  0.81950  Biso   1.000  H
  H238     1.0000 0.41680  0.18560  0.31950  Biso   1.000  H
  H239     1.0000 0.91680  0.31440  0.68050  Biso   1.000  H
  H240     1.0000 0.58320  0.68560  0.18050  Biso   1.000  H
  H241     1.0000 0.95170  0.12080  0.15680  Biso   1.000  H
  H242     1.0000 0.54830  0.87920  0.65680  Biso   1.000  H
  H243     1.0000 0.04830  0.62080  0.34320  Biso   1.000  H
  H244     1.0000 0.45170  0.37920  0.84320  Biso   1.000  H
  H245     1.0000 0.04830  0.87920  0.84320  Biso   1.000  H
  H246     1.0000 0.45170  0.12080  0.34320  Biso   1.000  H
  H247     1.0000 0.95170  0.37920  0.65680  Biso   1.000  H
  H248     1.0000 0.54830  0.62080  0.15680  Biso   1.000  H
  C137     1.0000 0.89960  0.18400  0.10710  Biso   1.000  C
  C138     1.0000 0.60040  0.81600  0.60710  Biso   1.000  C
  C139     1.0000 0.10040  0.68400  0.39290  Biso   1.000  C
  C140     1.0000 0.39960  0.31600  0.89290  Biso   1.000  C
  C141     1.0000 0.10040  0.81600  0.89290  Biso   1.000  C
  C142     1.0000 0.39960  0.18400  0.39290  Biso   1.000  C
  C143     1.0000 0.89960  0.31600  0.60710  Biso   1.000  C
  C144     1.0000 0.60040  0.68400  0.10710  Biso   1.000  C
  H249     1.0000 0.85020  0.21820  0.10890  Biso   1.000  H
  H250     1.0000 0.64980  0.78180  0.60890  Biso   1.000  H
  H251     1.0000 0.14980  0.71820  0.39110  Biso   1.000  H
  H252     1.0000 0.35020  0.28180  0.89110  Biso   1.000  H
  H253     1.0000 0.14980  0.78180  0.89110  Biso   1.000  H
  H254     1.0000 0.35020  0.21820  0.39110  Biso   1.000  H
  H255     1.0000 0.85020  0.28180  0.60890  Biso   1.000  H
  H256     1.0000 0.64980  0.71820  0.10890  Biso   1.000  H
  C145     1.0000 0.02530  0.28730  0.13300  Biso   1.000  C
  C146     1.0000 0.47470  0.71270  0.63300  Biso   1.000  C
  C147     1.0000 0.97470  0.78730  0.36700  Biso   1.000  C
  C148     1.0000 0.52530  0.21270  0.86700  Biso   1.000  C
  C149     1.0000 0.97470  0.71270  0.86700  Biso   1.000  C
  C150     1.0000 0.52530  0.28730  0.36700  Biso   1.000  C
  C151     1.0000 0.02530  0.21270  0.63300  Biso   1.000  C
  C152     1.0000 0.47470  0.78730  0.13300  Biso   1.000  C
  H257     1.0000 0.02030  0.26960  0.16570  Biso   1.000  H
  H258     1.0000 0.47970  0.73040  0.66570  Biso   1.000  H
  H259     1.0000 0.97970  0.76960  0.33430  Biso   1.000  H
  H260     1.0000 0.52030  0.23040  0.83430  Biso   1.000  H
  H261     1.0000 0.97970  0.73040  0.83430  Biso   1.000  H
  H262     1.0000 0.52030  0.26960  0.33430  Biso   1.000  H
  H263     1.0000 0.02030  0.23040  0.66570  Biso   1.000  H
  H264     1.0000 0.47970  0.76960  0.16570  Biso   1.000  H
  H265     1.0000 0.08960  0.30700  0.12980  Biso   1.000  H
  H266     1.0000 0.41040  0.69300  0.62980  Biso   1.000  H
  H267     1.0000 0.91040  0.80700  0.37020  Biso   1.000  H
  H268     1.0000 0.58960  0.19300  0.87020  Biso   1.000  H
  H269     1.0000 0.91040  0.69300  0.87020  Biso   1.000  H
  H270     1.0000 0.58960  0.30700  0.37020  Biso   1.000  H
  H271     1.0000 0.08960  0.19300  0.62980  Biso   1.000  H
  H272     1.0000 0.41040  0.80700  0.12980  Biso   1.000  H
  C153     1.0000 0.94800  0.33730  0.12650  Biso   1.000  C
  C154     1.0000 0.55200  0.66270  0.62650  Biso   1.000  C
  C155     1.0000 0.05200  0.83730  0.37350  Biso   1.000  C
  C156     1.0000 0.44800  0.16270  0.87350  Biso   1.000  C
  C157     1.0000 0.05200  0.66270  0.87350  Biso   1.000  C
  C158     1.0000 0.44800  0.33730  0.37350  Biso   1.000  C
  C159     1.0000 0.94800  0.16270  0.62650  Biso   1.000  C
  C160     1.0000 0.55200  0.83730  0.12650  Biso   1.000  C
  C161     1.0000 0.88840  0.43560  0.09020  Biso   1.000  C
  C162     1.0000 0.61160  0.56440  0.59020  Biso   1.000  C
  C163     1.0000 0.11160  0.93560  0.40980  Biso   1.000  C
  C164     1.0000 0.38840  0.06440  0.90980  Biso   1.000  C
  C165     1.0000 0.11160  0.56440  0.90980  Biso   1.000  C
  C166     1.0000 0.38840  0.43560  0.40980  Biso   1.000  C
  C167     1.0000 0.88840  0.06440  0.59020  Biso   1.000  C
  C168     1.0000 0.61160  0.93560  0.09020  Biso   1.000  C
  H273     1.0000 0.91760  0.47800  0.08940  Biso   1.000  H
  H274     1.0000 0.58240  0.52200  0.58940  Biso   1.000  H
  H275     1.0000 0.08240  0.97800  0.41060  Biso   1.000  H
  H276     1.0000 0.41760  0.02200  0.91060  Biso   1.000  H
  H277     1.0000 0.08240  0.52200  0.91060  Biso   1.000  H
  H278     1.0000 0.41760  0.47800  0.41060  Biso   1.000  H
  H279     1.0000 0.91760  0.02200  0.58940  Biso   1.000  H
  H280     1.0000 0.58240  0.97800  0.08940  Biso   1.000  H
  H281     1.0000 0.84340  0.43370  0.11770  Biso   1.000  H
  H282     1.0000 0.65660  0.56630  0.61770  Biso   1.000  H
  H283     1.0000 0.15660  0.93370  0.38230  Biso   1.000  H
  H284     1.0000 0.34340  0.06630  0.88230  Biso   1.000  H
  H285     1.0000 0.15660  0.56630  0.88230  Biso   1.000  H
  H286     1.0000 0.34340  0.43370  0.38230  Biso   1.000  H
  H287     1.0000 0.84340  0.06630  0.61770  Biso   1.000  H
  H288     1.0000 0.65660  0.93370  0.11770  Biso   1.000  H
  C169     1.0000 0.83220  0.42310  0.04270  Biso   1.000  C
  C170     1.0000 0.66780  0.57690  0.54270  Biso   1.000  C
  C171     1.0000 0.16780  0.92310  0.45730  Biso   1.000  C
  C172     1.0000 0.33220  0.07690  0.95730  Biso   1.000  C
  C173     1.0000 0.16780  0.57690  0.95730  Biso   1.000  C
  C174     1.0000 0.33220  0.42310  0.45730  Biso   1.000  C
  C175     1.0000 0.83220  0.07690  0.54270  Biso   1.000  C
  C176     1.0000 0.66780  0.92310  0.04270  Biso   1.000  C
  H289     1.0000 0.77720  0.45260  0.04030  Biso   1.000  H
  H290     1.0000 0.72280  0.54740  0.54030  Biso   1.000  H
  H291     1.0000 0.22280  0.95260  0.45970  Biso   1.000  H
  H292     1.0000 0.27720  0.04740  0.95970  Biso   1.000  H
  H293     1.0000 0.22280  0.54740  0.95970  Biso   1.000  H
  H294     1.0000 0.27720  0.45260  0.45970  Biso   1.000  H
  H295     1.0000 0.77720  0.04740  0.54030  Biso   1.000  H
  H296     1.0000 0.72280  0.95260  0.04030  Biso   1.000  H
  H297     1.0000 0.80620  0.37980  0.04300  Biso   1.000  H
  H298     1.0000 0.69380  0.62020  0.54300  Biso   1.000  H
  H299     1.0000 0.19380  0.87980  0.45700  Biso   1.000  H
  H300     1.0000 0.30620  0.12020  0.95700  Biso   1.000  H
  H301     1.0000 0.19380  0.62020  0.95700  Biso   1.000  H
  H302     1.0000 0.30620  0.37980  0.45700  Biso   1.000  H
  H303     1.0000 0.80620  0.12020  0.54300  Biso   1.000  H
  H304     1.0000 0.69380  0.87980  0.04300  Biso   1.000  H
  C177     1.0000 0.00580  0.37790  0.00850  Biso   1.000  C
  C178     1.0000 0.49420  0.62210  0.50850  Biso   1.000  C
  C179     1.0000 0.99420  0.87790  0.49150  Biso   1.000  C
  C180     1.0000 0.50580  0.12210  0.99150  Biso   1.000  C
  C181     1.0000 0.99420  0.62210  0.99150  Biso   1.000  C
  C182     1.0000 0.50580  0.37790  0.49150  Biso   1.000  C
  C183     1.0000 0.00580  0.12210  0.50850  Biso   1.000  C
  C184     1.0000 0.49420  0.87790  0.00850  Biso   1.000  C
  H305     1.0000 0.98030  0.33460  0.00700  Biso   1.000  H
  H306     1.0000 0.51970  0.66540  0.50700  Biso   1.000  H
  H307     1.0000 0.01970  0.83460  0.49300  Biso   1.000  H
  H308     1.0000 0.48030  0.16540  0.99300  Biso   1.000  H
  H309     1.0000 0.01970  0.66540  0.99300  Biso   1.000  H
  H310     1.0000 0.48030  0.33460  0.49300  Biso   1.000  H
  H311     1.0000 0.98030  0.16540  0.50700  Biso   1.000  H
  H312     1.0000 0.51970  0.83460  0.00700  Biso   1.000  H
  H313     1.0000 0.06020  0.38110  0.98560  Biso   1.000  H
  H314     1.0000 0.43980  0.61890  0.48560  Biso   1.000  H
  H315     1.0000 0.93980  0.88110  0.51440  Biso   1.000  H
  H316     1.0000 0.56020  0.11890  0.01440  Biso   1.000  H
  H317     1.0000 0.93980  0.61890  0.01440  Biso   1.000  H
  H318     1.0000 0.56020  0.38110  0.51440  Biso   1.000  H
  H319     1.0000 0.06020  0.11890  0.48560  Biso   1.000  H
  H320     1.0000 0.43980  0.88110  0.98560  Biso   1.000  H
  C185     1.0000 0.04320  0.39120  0.05980  Biso   1.000  C
  C186     1.0000 0.45680  0.60880  0.55980  Biso   1.000  C
  C187     1.0000 0.95680  0.89120  0.44020  Biso   1.000  C
  C188     1.0000 0.54320  0.10880  0.94020  Biso   1.000  C
  C189     1.0000 0.95680  0.60880  0.94020  Biso   1.000  C
  C190     1.0000 0.54320  0.39120  0.44020  Biso   1.000  C
  C191     1.0000 0.04320  0.10880  0.55980  Biso   1.000  C
  C192     1.0000 0.45680  0.89120  0.05980  Biso   1.000  C
  H321     1.0000 0.09350  0.36010  0.06820  Biso   1.000  H
  H322     1.0000 0.40650  0.63990  0.56820  Biso   1.000  H
  H323     1.0000 0.90650  0.86010  0.43180  Biso   1.000  H
  H324     1.0000 0.59350  0.13990  0.93180  Biso   1.000  H
  H325     1.0000 0.90650  0.63990  0.93180  Biso   1.000  H
  H326     1.0000 0.59350  0.36010  0.43180  Biso   1.000  H
  H327     1.0000 0.09350  0.13990  0.56820  Biso   1.000  H
  H328     1.0000 0.40650  0.86010  0.06820  Biso   1.000  H
  H329     1.0000 0.07300  0.43340  0.06070  Biso   1.000  H
  H330     1.0000 0.42700  0.56660  0.56070  Biso   1.000  H
  H331     1.0000 0.92700  0.93340  0.43930  Biso   1.000  H
  H332     1.0000 0.57300  0.06660  0.93930  Biso   1.000  H
  H333     1.0000 0.92700  0.56660  0.93930  Biso   1.000  H
  H334     1.0000 0.57300  0.43340  0.43930  Biso   1.000  H
  H335     1.0000 0.07300  0.06660  0.56070  Biso   1.000  H
  H336     1.0000 0.42700  0.93340  0.06070  Biso   1.000  H
