data_image0
_cell_length_a       13.4885
_cell_length_b       20.6679
_cell_length_c       27.2103
_cell_angle_alpha    90
_cell_angle_beta     90
_cell_angle_gamma    90

_symmetry_space_group_name_H-M    "P 1"
_symmetry_int_tables_number       1

loop_
  _symmetry_equiv_pos_as_xyz
  'x, y, z'

loop_
  _atom_site_label
  _atom_site_occupancy
  _atom_site_fract_x
  _atom_site_fract_y
  _atom_site_fract_z
  _atom_site_thermal_displace_type
  _atom_site_B_iso_or_equiv
  _atom_site_type_symbol
  Cu1      1.0000 0.33785  0.19826  0.13377  Biso   1.000  Cu
  Cu2      1.0000 0.16215  0.80174  0.63377  Biso   1.000  Cu
  Cu3      1.0000 0.66215  0.69826  0.36623  Biso   1.000  Cu
  Cu4      1.0000 0.83785  0.30174  0.86623  Biso   1.000  Cu
  Cu5      1.0000 0.66215  0.80174  0.86623  Biso   1.000  Cu
  Cu6      1.0000 0.83785  0.19826  0.36623  Biso   1.000  Cu
  Cu7      1.0000 0.33785  0.30174  0.63377  Biso   1.000  Cu
  Cu8      1.0000 0.16215  0.69826  0.13377  Biso   1.000  Cu
  Cu9      1.0000 0.26502  0.07901  0.15898  Biso   1.000  Cu
  Cu10     1.0000 0.23498  0.92099  0.65898  Biso   1.000  Cu
  Cu11     1.0000 0.73498  0.57901  0.34102  Biso   1.000  Cu
  Cu12     1.0000 0.76502  0.42099  0.84102  Biso   1.000  Cu
  Cu13     1.0000 0.73498  0.92099  0.84102  Biso   1.000  Cu
  Cu14     1.0000 0.76502  0.07901  0.34102  Biso   1.000  Cu
  Cu15     1.0000 0.26502  0.42099  0.65898  Biso   1.000  Cu
  Cu16     1.0000 0.23498  0.57901  0.15898  Biso   1.000  Cu
  Cu17     1.0000 0.14851  0.16041  0.10635  Biso   1.000  Cu
  Cu18     1.0000 0.35149  0.83959  0.60635  Biso   1.000  Cu
  Cu19     1.0000 0.85149  0.66041  0.39365  Biso   1.000  Cu
  Cu20     1.0000 0.64851  0.33959  0.89365  Biso   1.000  Cu
  Cu21     1.0000 0.85149  0.83959  0.89365  Biso   1.000  Cu
  Cu22     1.0000 0.64851  0.16041  0.39365  Biso   1.000  Cu
  Cu23     1.0000 0.14851  0.33959  0.60635  Biso   1.000  Cu
  Cu24     1.0000 0.35149  0.66041  0.10635  Biso   1.000  Cu
  Cu25     1.0000 0.31694  0.10509  0.06880  Biso   1.000  Cu
  Cu26     1.0000 0.18306  0.89491  0.56880  Biso   1.000  Cu
  Cu27     1.0000 0.68306  0.60509  0.43120  Biso   1.000  Cu
  Cu28     1.0000 0.81694  0.39491  0.93120  Biso   1.000  Cu
  Cu29     1.0000 0.68306  0.89491  0.93120  Biso   1.000  Cu
  Cu30     1.0000 0.81694  0.10509  0.43120  Biso   1.000  Cu
  Cu31     1.0000 0.31694  0.39491  0.56880  Biso   1.000  Cu
  Cu32     1.0000 0.18306  0.60509  0.06880  Biso   1.000  Cu
  I1       1.0000 0.19589  0.18740  0.20127  Biso   1.000  I
  I2       1.0000 0.30411  0.81260  0.70127  Biso   1.000  I
  I3       1.0000 0.80411  0.68740  0.29873  Biso   1.000  I
  I4       1.0000 0.69589  0.31260  0.79873  Biso   1.000  I
  I5       1.0000 0.80411  0.81260  0.79873  Biso   1.000  I
  I6       1.0000 0.69589  0.18740  0.29873  Biso   1.000  I
  I7       1.0000 0.19589  0.31260  0.70127  Biso   1.000  I
  I8       1.0000 0.30411  0.68740  0.20127  Biso   1.000  I
  I9       1.0000 0.45680  0.09333  0.14016  Biso   1.000  I
  I10      1.0000 0.04320  0.90667  0.64016  Biso   1.000  I
  I11      1.0000 0.54320  0.59333  0.35984  Biso   1.000  I
  I12      1.0000 0.95680  0.40667  0.85984  Biso   1.000  I
  I13      1.0000 0.54320  0.90667  0.85984  Biso   1.000  I
  I14      1.0000 0.95680  0.09333  0.35984  Biso   1.000  I
  I15      1.0000 0.45680  0.40667  0.64016  Biso   1.000  I
  I16      1.0000 0.04320  0.59333  0.14016  Biso   1.000  I
  I17      1.0000 0.26877  0.22612  0.04288  Biso   1.000  I
  I18      1.0000 0.23123  0.77388  0.54288  Biso   1.000  I
  I19      1.0000 0.73123  0.72612  0.45712  Biso   1.000  I
  I20      1.0000 0.76877  0.27388  0.95712  Biso   1.000  I
  I21      1.0000 0.73123  0.77388  0.95712  Biso   1.000  I
  I22      1.0000 0.76877  0.22612  0.45712  Biso   1.000  I
  I23      1.0000 0.26877  0.27388  0.54288  Biso   1.000  I
  I24      1.0000 0.23123  0.72612  0.04288  Biso   1.000  I
  I25      1.0000 0.15138  0.03711  0.08330  Biso   1.000  I
  I26      1.0000 0.34862  0.96289  0.58330  Biso   1.000  I
  I27      1.0000 0.84862  0.53711  0.41670  Biso   1.000  I
  I28      1.0000 0.65138  0.46289  0.91670  Biso   1.000  I
  I29      1.0000 0.84862  0.96289  0.91670  Biso   1.000  I
  I30      1.0000 0.65138  0.03711  0.41670  Biso   1.000  I
  I31      1.0000 0.15138  0.46289  0.58330  Biso   1.000  I
  I32      1.0000 0.34862  0.53711  0.08330  Biso   1.000  I
  S1       1.0000 0.42783  0.28787  0.15596  Biso   1.000  S
  S2       1.0000 0.07217  0.71213  0.65596  Biso   1.000  S
  S3       1.0000 0.57217  0.78787  0.34404  Biso   1.000  S
  S4       1.0000 0.92783  0.21213  0.84404  Biso   1.000  S
  S5       1.0000 0.57217  0.71213  0.84404  Biso   1.000  S
  S6       1.0000 0.92783  0.28787  0.34404  Biso   1.000  S
  S7       1.0000 0.42783  0.21213  0.65596  Biso   1.000  S
  S8       1.0000 0.07217  0.78787  0.15596  Biso   1.000  S
  S9       1.0000 0.25826  0.50648  0.22125  Biso   1.000  S
  S10      1.0000 0.24174  0.49352  0.72125  Biso   1.000  S
  S11      1.0000 0.74174  0.00648  0.27875  Biso   1.000  S
  S12      1.0000 0.75826  0.99352  0.77875  Biso   1.000  S
  S13      1.0000 0.74174  0.49352  0.77875  Biso   1.000  S
  S14      1.0000 0.75826  0.50648  0.27875  Biso   1.000  S
  S15      1.0000 0.25826  0.99352  0.72125  Biso   1.000  S
  S16      1.0000 0.24174  0.00648  0.22125  Biso   1.000  S
  S17      1.0000 0.00977  0.22279  0.08903  Biso   1.000  S
  S18      1.0000 0.49023  0.77721  0.58903  Biso   1.000  S
  S19      1.0000 0.99023  0.72279  0.41097  Biso   1.000  S
  S20      1.0000 0.50977  0.27721  0.91097  Biso   1.000  S
  S21      1.0000 0.99023  0.77721  0.91097  Biso   1.000  S
  S22      1.0000 0.50977  0.22279  0.41097  Biso   1.000  S
  S23      1.0000 0.00977  0.27721  0.58903  Biso   1.000  S
  S24      1.0000 0.49023  0.72279  0.08903  Biso   1.000  S
  S25      1.0000 0.89928  0.44034  0.99620  Biso   1.000  S
  S26      1.0000 0.60072  0.55966  0.49620  Biso   1.000  S
  S27      1.0000 0.10072  0.94034  0.50380  Biso   1.000  S
  S28      1.0000 0.39928  0.05966  0.00380  Biso   1.000  S
  S29      1.0000 0.10072  0.55966  0.00380  Biso   1.000  S
  S30      1.0000 0.39928  0.44034  0.50380  Biso   1.000  S
  S31      1.0000 0.89928  0.05966  0.49620  Biso   1.000  S
  S32      1.0000 0.60072  0.94034  0.99620  Biso   1.000  S
  O1       1.0000 0.55830  0.35650  0.26312  Biso   1.000  O
  O2       1.0000 0.94170  0.64350  0.76312  Biso   1.000  O
  O3       1.0000 0.44170  0.85650  0.23688  Biso   1.000  O
  O4       1.0000 0.05830  0.14350  0.73688  Biso   1.000  O
  O5       1.0000 0.44170  0.64350  0.73688  Biso   1.000  O
  O6       1.0000 0.05830  0.35650  0.23688  Biso   1.000  O
  O7       1.0000 0.55830  0.14350  0.76312  Biso   1.000  O
  O8       1.0000 0.94170  0.85650  0.26312  Biso   1.000  O
  O9       1.0000 0.86960  0.33090  0.15559  Biso   1.000  O
  O10      1.0000 0.63040  0.66910  0.65559  Biso   1.000  O
  O11      1.0000 0.13040  0.83090  0.34441  Biso   1.000  O
  O12      1.0000 0.36960  0.16910  0.84441  Biso   1.000  O
  O13      1.0000 0.13040  0.66910  0.84441  Biso   1.000  O
  O14      1.0000 0.36960  0.33090  0.34441  Biso   1.000  O
  O15      1.0000 0.86960  0.16910  0.65559  Biso   1.000  O
  O16      1.0000 0.63040  0.83090  0.15559  Biso   1.000  O
  N1       1.0000 0.40280  0.39210  0.24422  Biso   1.000  N
  N2       1.0000 0.09720  0.60790  0.74422  Biso   1.000  N
  N3       1.0000 0.59720  0.89210  0.25578  Biso   1.000  N
  N4       1.0000 0.90280  0.10790  0.75578  Biso   1.000  N
  N5       1.0000 0.59720  0.60790  0.75578  Biso   1.000  N
  N6       1.0000 0.90280  0.39210  0.25578  Biso   1.000  N
  N7       1.0000 0.40280  0.10790  0.74422  Biso   1.000  N
  N8       1.0000 0.09720  0.89210  0.24422  Biso   1.000  N
  N9       1.0000 0.95840  0.38910  0.10079  Biso   1.000  N
  N10      1.0000 0.54160  0.61090  0.60079  Biso   1.000  N
  N11      1.0000 0.04160  0.88910  0.39921  Biso   1.000  N
  N12      1.0000 0.45840  0.11090  0.89921  Biso   1.000  N
  N13      1.0000 0.04160  0.61090  0.89921  Biso   1.000  N
  N14      1.0000 0.45840  0.38910  0.39921  Biso   1.000  N
  N15      1.0000 0.95840  0.11090  0.60079  Biso   1.000  N
  N16      1.0000 0.54160  0.88910  0.10079  Biso   1.000  N
  C1       1.0000 0.61590  0.34140  0.14140  Biso   1.000  C
  C2       1.0000 0.88410  0.65860  0.64140  Biso   1.000  C
  C3       1.0000 0.38410  0.84140  0.35860  Biso   1.000  C
  C4       1.0000 0.11590  0.15860  0.85860  Biso   1.000  C
  C5       1.0000 0.38410  0.65860  0.85860  Biso   1.000  C
  C6       1.0000 0.11590  0.34140  0.35860  Biso   1.000  C
  C7       1.0000 0.61590  0.15860  0.64140  Biso   1.000  C
  C8       1.0000 0.88410  0.84140  0.14140  Biso   1.000  C
  H1       1.0000 0.68520  0.33380  0.13090  Biso   1.000  H
  H2       1.0000 0.81480  0.66620  0.63090  Biso   1.000  H
  H3       1.0000 0.31480  0.83380  0.36910  Biso   1.000  H
  H4       1.0000 0.18520  0.16620  0.86910  Biso   1.000  H
  H5       1.0000 0.31480  0.66620  0.86910  Biso   1.000  H
  H6       1.0000 0.18520  0.33380  0.36910  Biso   1.000  H
  H7       1.0000 0.68520  0.16620  0.63090  Biso   1.000  H
  H8       1.0000 0.81480  0.83380  0.13090  Biso   1.000  H
  H9       1.0000 0.61580  0.34790  0.17740  Biso   1.000  H
  H10      1.0000 0.88420  0.65210  0.67740  Biso   1.000  H
  H11      1.0000 0.38420  0.84790  0.32260  Biso   1.000  H
  H12      1.0000 0.11580  0.15210  0.82260  Biso   1.000  H
  H13      1.0000 0.38420  0.65210  0.82260  Biso   1.000  H
  H14      1.0000 0.11580  0.34790  0.32260  Biso   1.000  H
  H15      1.0000 0.61580  0.15210  0.67740  Biso   1.000  H
  H16      1.0000 0.88420  0.84790  0.17740  Biso   1.000  H
  C9       1.0000 0.57550  0.40310  0.11590  Biso   1.000  C
  C10      1.0000 0.92450  0.59690  0.61590  Biso   1.000  C
  C11      1.0000 0.42450  0.90310  0.38410  Biso   1.000  C
  C12      1.0000 0.07550  0.09690  0.88410  Biso   1.000  C
  C13      1.0000 0.42450  0.59690  0.88410  Biso   1.000  C
  C14      1.0000 0.07550  0.40310  0.38410  Biso   1.000  C
  C15      1.0000 0.57550  0.09690  0.61590  Biso   1.000  C
  C16      1.0000 0.92450  0.90310  0.11590  Biso   1.000  C
  H17      1.0000 0.51130  0.41500  0.13100  Biso   1.000  H
  H18      1.0000 0.98870  0.58500  0.63100  Biso   1.000  H
  H19      1.0000 0.48870  0.91500  0.36900  Biso   1.000  H
  H20      1.0000 0.01130  0.08500  0.86900  Biso   1.000  H
  H21      1.0000 0.48870  0.58500  0.86900  Biso   1.000  H
  H22      1.0000 0.01130  0.41500  0.36900  Biso   1.000  H
  H23      1.0000 0.51130  0.08500  0.63100  Biso   1.000  H
  H24      1.0000 0.98870  0.91500  0.13100  Biso   1.000  H
  H25      1.0000 0.62230  0.43920  0.12150  Biso   1.000  H
  H26      1.0000 0.87770  0.56080  0.62150  Biso   1.000  H
  H27      1.0000 0.37770  0.93920  0.37850  Biso   1.000  H
  H28      1.0000 0.12230  0.06080  0.87850  Biso   1.000  H
  H29      1.0000 0.37770  0.56080  0.87850  Biso   1.000  H
  H30      1.0000 0.12230  0.43920  0.37850  Biso   1.000  H
  H31      1.0000 0.62230  0.06080  0.62150  Biso   1.000  H
  H32      1.0000 0.87770  0.93920  0.12150  Biso   1.000  H
  C17      1.0000 0.56070  0.39450  0.06080  Biso   1.000  C
  C18      1.0000 0.93930  0.60550  0.56080  Biso   1.000  C
  C19      1.0000 0.43930  0.89450  0.43920  Biso   1.000  C
  C20      1.0000 0.06070  0.10550  0.93920  Biso   1.000  C
  C21      1.0000 0.43930  0.60550  0.93920  Biso   1.000  C
  C22      1.0000 0.06070  0.39450  0.43920  Biso   1.000  C
  C23      1.0000 0.56070  0.10550  0.56080  Biso   1.000  C
  C24      1.0000 0.93930  0.89450  0.06080  Biso   1.000  C
  H33      1.0000 0.52760  0.43330  0.04720  Biso   1.000  H
  H34      1.0000 0.97240  0.56670  0.54720  Biso   1.000  H
  H35      1.0000 0.47240  0.93330  0.45280  Biso   1.000  H
  H36      1.0000 0.02760  0.06670  0.95280  Biso   1.000  H
  H37      1.0000 0.47240  0.56670  0.95280  Biso   1.000  H
  H38      1.0000 0.02760  0.43330  0.45280  Biso   1.000  H
  H39      1.0000 0.52760  0.06670  0.54720  Biso   1.000  H
  H40      1.0000 0.97240  0.93330  0.04720  Biso   1.000  H
  H41      1.0000 0.62610  0.39010  0.04460  Biso   1.000  H
  H42      1.0000 0.87390  0.60990  0.54460  Biso   1.000  H
  H43      1.0000 0.37390  0.89010  0.45540  Biso   1.000  H
  H44      1.0000 0.12610  0.10990  0.95540  Biso   1.000  H
  H45      1.0000 0.37390  0.60990  0.95540  Biso   1.000  H
  H46      1.0000 0.12610  0.39010  0.45540  Biso   1.000  H
  H47      1.0000 0.62610  0.10990  0.54460  Biso   1.000  H
  H48      1.0000 0.87390  0.89010  0.04460  Biso   1.000  H
  C25      1.0000 0.49920  0.33590  0.05010  Biso   1.000  C
  C26      1.0000 0.00080  0.66410  0.55010  Biso   1.000  C
  C27      1.0000 0.50080  0.83590  0.44990  Biso   1.000  C
  C28      1.0000 0.99920  0.16410  0.94990  Biso   1.000  C
  C29      1.0000 0.50080  0.66410  0.94990  Biso   1.000  C
  C30      1.0000 0.99920  0.33590  0.44990  Biso   1.000  C
  C31      1.0000 0.49920  0.16410  0.55010  Biso   1.000  C
  C32      1.0000 0.00080  0.83590  0.05010  Biso   1.000  C
  H49      1.0000 0.49550  0.32950  0.01410  Biso   1.000  H
  H50      1.0000 0.00450  0.67050  0.51410  Biso   1.000  H
  H51      1.0000 0.50450  0.82950  0.48590  Biso   1.000  H
  H52      1.0000 0.99550  0.17050  0.98590  Biso   1.000  H
  H53      1.0000 0.50450  0.67050  0.98590  Biso   1.000  H
  H54      1.0000 0.99550  0.32950  0.48590  Biso   1.000  H
  H55      1.0000 0.49550  0.17050  0.51410  Biso   1.000  H
  H56      1.0000 0.00450  0.82950  0.01410  Biso   1.000  H
  H57      1.0000 0.43110  0.34290  0.06240  Biso   1.000  H
  H58      1.0000 0.06890  0.65710  0.56240  Biso   1.000  H
  H59      1.0000 0.56890  0.84290  0.43760  Biso   1.000  H
  H60      1.0000 0.93110  0.15710  0.93760  Biso   1.000  H
  H61      1.0000 0.56890  0.65710  0.93760  Biso   1.000  H
  H62      1.0000 0.93110  0.34290  0.43760  Biso   1.000  H
  H63      1.0000 0.43110  0.15710  0.56240  Biso   1.000  H
  H64      1.0000 0.06890  0.84290  0.06240  Biso   1.000  H
  C33      1.0000 0.54200  0.27550  0.07370  Biso   1.000  C
  C34      1.0000 0.95800  0.72450  0.57370  Biso   1.000  C
  C35      1.0000 0.45800  0.77550  0.42630  Biso   1.000  C
  C36      1.0000 0.04200  0.22450  0.92630  Biso   1.000  C
  C37      1.0000 0.45800  0.72450  0.92630  Biso   1.000  C
  C38      1.0000 0.04200  0.27550  0.42630  Biso   1.000  C
  C39      1.0000 0.54200  0.22450  0.57370  Biso   1.000  C
  C40      1.0000 0.95800  0.77550  0.07370  Biso   1.000  C
  H65      1.0000 0.49810  0.23830  0.06660  Biso   1.000  H
  H66      1.0000 0.00190  0.76170  0.56660  Biso   1.000  H
  H67      1.0000 0.50190  0.73830  0.43340  Biso   1.000  H
  H68      1.0000 0.99810  0.26170  0.93340  Biso   1.000  H
  H69      1.0000 0.50190  0.76170  0.93340  Biso   1.000  H
  H70      1.0000 0.99810  0.23830  0.43340  Biso   1.000  H
  H71      1.0000 0.49810  0.26170  0.56660  Biso   1.000  H
  H72      1.0000 0.00190  0.73830  0.06660  Biso   1.000  H
  H73      1.0000 0.60770  0.26630  0.05910  Biso   1.000  H
  H74      1.0000 0.89230  0.73370  0.55910  Biso   1.000  H
  H75      1.0000 0.39230  0.76630  0.44090  Biso   1.000  H
  H76      1.0000 0.10770  0.23370  0.94090  Biso   1.000  H
  H77      1.0000 0.39230  0.73370  0.94090  Biso   1.000  H
  H78      1.0000 0.10770  0.26630  0.44090  Biso   1.000  H
  H79      1.0000 0.60770  0.23370  0.55910  Biso   1.000  H
  H80      1.0000 0.89230  0.76630  0.05910  Biso   1.000  H
  C41      1.0000 0.55320  0.28250  0.12860  Biso   1.000  C
  C42      1.0000 0.94680  0.71750  0.62860  Biso   1.000  C
  C43      1.0000 0.44680  0.78250  0.37140  Biso   1.000  C
  C44      1.0000 0.05320  0.21750  0.87140  Biso   1.000  C
  C45      1.0000 0.44680  0.71750  0.87140  Biso   1.000  C
  C46      1.0000 0.05320  0.28250  0.37140  Biso   1.000  C
  C47      1.0000 0.55320  0.21750  0.62860  Biso   1.000  C
  C48      1.0000 0.94680  0.78250  0.12860  Biso   1.000  C
  H81      1.0000 0.58680  0.24300  0.14170  Biso   1.000  H
  H82      1.0000 0.91320  0.75700  0.64170  Biso   1.000  H
  H83      1.0000 0.41320  0.74300  0.35830  Biso   1.000  H
  H84      1.0000 0.08680  0.25700  0.85830  Biso   1.000  H
  H85      1.0000 0.41320  0.75700  0.85830  Biso   1.000  H
  H86      1.0000 0.08680  0.24300  0.35830  Biso   1.000  H
  H87      1.0000 0.58680  0.25700  0.64170  Biso   1.000  H
  H88      1.0000 0.91320  0.74300  0.14170  Biso   1.000  H
  C49      1.0000 0.45560  0.28160  0.22160  Biso   1.000  C
  C50      1.0000 0.04440  0.71840  0.72160  Biso   1.000  C
  C51      1.0000 0.54440  0.78160  0.27840  Biso   1.000  C
  C52      1.0000 0.95560  0.21840  0.77840  Biso   1.000  C
  C53      1.0000 0.54440  0.71840  0.77840  Biso   1.000  C
  C54      1.0000 0.95560  0.28160  0.27840  Biso   1.000  C
  C55      1.0000 0.45560  0.21840  0.72160  Biso   1.000  C
  C56      1.0000 0.04440  0.78160  0.22160  Biso   1.000  C
  H89      1.0000 0.39910  0.26070  0.23840  Biso   1.000  H
  H90      1.0000 0.10090  0.73930  0.73840  Biso   1.000  H
  H91      1.0000 0.60090  0.76070  0.26160  Biso   1.000  H
  H92      1.0000 0.89910  0.23930  0.76160  Biso   1.000  H
  H93      1.0000 0.60090  0.73930  0.76160  Biso   1.000  H
  H94      1.0000 0.89910  0.26070  0.26160  Biso   1.000  H
  H95      1.0000 0.39910  0.23930  0.73840  Biso   1.000  H
  H96      1.0000 0.10090  0.76070  0.23840  Biso   1.000  H
  H97      1.0000 0.51440  0.25350  0.22600  Biso   1.000  H
  H98      1.0000 0.98560  0.74650  0.72600  Biso   1.000  H
  H99      1.0000 0.48560  0.75350  0.27400  Biso   1.000  H
  H100     1.0000 0.01440  0.24650  0.77400  Biso   1.000  H
  H101     1.0000 0.48560  0.74650  0.77400  Biso   1.000  H
  H102     1.0000 0.01440  0.25350  0.27400  Biso   1.000  H
  H103     1.0000 0.51440  0.24650  0.72600  Biso   1.000  H
  H104     1.0000 0.98560  0.75350  0.22600  Biso   1.000  H
  C57      1.0000 0.47550  0.34620  0.24550  Biso   1.000  C
  C58      1.0000 0.02450  0.65380  0.74550  Biso   1.000  C
  C59      1.0000 0.52450  0.84620  0.25450  Biso   1.000  C
  C60      1.0000 0.97550  0.15380  0.75450  Biso   1.000  C
  C61      1.0000 0.52450  0.65380  0.75450  Biso   1.000  C
  C62      1.0000 0.97550  0.34620  0.25450  Biso   1.000  C
  C63      1.0000 0.47550  0.15380  0.74550  Biso   1.000  C
  C64      1.0000 0.02450  0.84620  0.24550  Biso   1.000  C
  C65      1.0000 0.29800  0.37740  0.23430  Biso   1.000  C
  C66      1.0000 0.20200  0.62260  0.73430  Biso   1.000  C
  C67      1.0000 0.70200  0.87740  0.26570  Biso   1.000  C
  C68      1.0000 0.79800  0.12260  0.76570  Biso   1.000  C
  C69      1.0000 0.70200  0.62260  0.76570  Biso   1.000  C
  C70      1.0000 0.79800  0.37740  0.26570  Biso   1.000  C
  C71      1.0000 0.29800  0.12260  0.73430  Biso   1.000  C
  C72      1.0000 0.20200  0.87740  0.23430  Biso   1.000  C
  H105     1.0000 0.25980  0.37990  0.26530  Biso   1.000  H
  H106     1.0000 0.24020  0.62010  0.76530  Biso   1.000  H
  H107     1.0000 0.74020  0.87990  0.23470  Biso   1.000  H
  H108     1.0000 0.75980  0.12010  0.73470  Biso   1.000  H
  H109     1.0000 0.74020  0.62010  0.73470  Biso   1.000  H
  H110     1.0000 0.75980  0.37990  0.23470  Biso   1.000  H
  H111     1.0000 0.25980  0.12010  0.76530  Biso   1.000  H
  H112     1.0000 0.24020  0.87990  0.26530  Biso   1.000  H
  H113     1.0000 0.29220  0.33280  0.22130  Biso   1.000  H
  H114     1.0000 0.20780  0.66720  0.72130  Biso   1.000  H
  H115     1.0000 0.70780  0.83280  0.27870  Biso   1.000  H
  H116     1.0000 0.79220  0.16720  0.77870  Biso   1.000  H
  H117     1.0000 0.70780  0.66720  0.77870  Biso   1.000  H
  H118     1.0000 0.79220  0.33280  0.27870  Biso   1.000  H
  H119     1.0000 0.29220  0.16720  0.72130  Biso   1.000  H
  H120     1.0000 0.20780  0.83280  0.22130  Biso   1.000  H
  C73      1.0000 0.25520  0.42470  0.19740  Biso   1.000  C
  C74      1.0000 0.24480  0.57530  0.69740  Biso   1.000  C
  C75      1.0000 0.74480  0.92470  0.30260  Biso   1.000  C
  C76      1.0000 0.75520  0.07530  0.80260  Biso   1.000  C
  C77      1.0000 0.74480  0.57530  0.80260  Biso   1.000  C
  C78      1.0000 0.75520  0.42470  0.30260  Biso   1.000  C
  C79      1.0000 0.25520  0.07530  0.69740  Biso   1.000  C
  C80      1.0000 0.24480  0.92470  0.19740  Biso   1.000  C
  H121     1.0000 0.18580  0.41250  0.18990  Biso   1.000  H
  H122     1.0000 0.31420  0.58750  0.68990  Biso   1.000  H
  H123     1.0000 0.81420  0.91250  0.31010  Biso   1.000  H
  H124     1.0000 0.68580  0.08750  0.81010  Biso   1.000  H
  H125     1.0000 0.81420  0.58750  0.81010  Biso   1.000  H
  H126     1.0000 0.68580  0.41250  0.31010  Biso   1.000  H
  H127     1.0000 0.18580  0.08750  0.68990  Biso   1.000  H
  H128     1.0000 0.31420  0.91250  0.18990  Biso   1.000  H
  H129     1.0000 0.29380  0.42260  0.16650  Biso   1.000  H
  H130     1.0000 0.20620  0.57740  0.66650  Biso   1.000  H
  H131     1.0000 0.70620  0.92260  0.33350  Biso   1.000  H
  H132     1.0000 0.79380  0.07740  0.83350  Biso   1.000  H
  H133     1.0000 0.70620  0.57740  0.83350  Biso   1.000  H
  H134     1.0000 0.79380  0.42260  0.33350  Biso   1.000  H
  H135     1.0000 0.29380  0.07740  0.66650  Biso   1.000  H
  H136     1.0000 0.20620  0.92260  0.16650  Biso   1.000  H
  C81      1.0000 0.39020  0.50940  0.23330  Biso   1.000  C
  C82      1.0000 0.10980  0.49060  0.73330  Biso   1.000  C
  C83      1.0000 0.60980  0.00940  0.26670  Biso   1.000  C
  C84      1.0000 0.89020  0.99060  0.76670  Biso   1.000  C
  C85      1.0000 0.60980  0.49060  0.76670  Biso   1.000  C
  C86      1.0000 0.89020  0.50940  0.26670  Biso   1.000  C
  C87      1.0000 0.39020  0.99060  0.73330  Biso   1.000  C
  C88      1.0000 0.10980  0.00940  0.23330  Biso   1.000  C
  H137     1.0000 0.42670  0.50680  0.20180  Biso   1.000  H
  H138     1.0000 0.07330  0.49320  0.70180  Biso   1.000  H
  H139     1.0000 0.57330  0.00680  0.29820  Biso   1.000  H
  H140     1.0000 0.92670  0.99320  0.79820  Biso   1.000  H
  H141     1.0000 0.57330  0.49320  0.79820  Biso   1.000  H
  H142     1.0000 0.92670  0.50680  0.29820  Biso   1.000  H
  H143     1.0000 0.42670  0.99320  0.70180  Biso   1.000  H
  H144     1.0000 0.07330  0.00680  0.20180  Biso   1.000  H
  H145     1.0000 0.40680  0.55120  0.24900  Biso   1.000  H
  H146     1.0000 0.09320  0.44880  0.74900  Biso   1.000  H
  H147     1.0000 0.59320  0.05120  0.25100  Biso   1.000  H
  H148     1.0000 0.90680  0.94880  0.75100  Biso   1.000  H
  H149     1.0000 0.59320  0.44880  0.75100  Biso   1.000  H
  H150     1.0000 0.90680  0.55120  0.25100  Biso   1.000  H
  H151     1.0000 0.40680  0.94880  0.74900  Biso   1.000  H
  H152     1.0000 0.09320  0.05120  0.24900  Biso   1.000  H
  C89      1.0000 0.42260  0.45470  0.26650  Biso   1.000  C
  C90      1.0000 0.07740  0.54530  0.76650  Biso   1.000  C
  C91      1.0000 0.57740  0.95470  0.23350  Biso   1.000  C
  C92      1.0000 0.92260  0.04530  0.73350  Biso   1.000  C
  C93      1.0000 0.57740  0.54530  0.73350  Biso   1.000  C
  C94      1.0000 0.92260  0.45470  0.23350  Biso   1.000  C
  C95      1.0000 0.42260  0.04530  0.76650  Biso   1.000  C
  C96      1.0000 0.07740  0.95470  0.26650  Biso   1.000  C
  H153     1.0000 0.49450  0.45870  0.27320  Biso   1.000  H
  H154     1.0000 0.00550  0.54130  0.77320  Biso   1.000  H
  H155     1.0000 0.50550  0.95870  0.22680  Biso   1.000  H
  H156     1.0000 0.99450  0.04130  0.72680  Biso   1.000  H
  H157     1.0000 0.50550  0.54130  0.72680  Biso   1.000  H
  H158     1.0000 0.99450  0.45870  0.22680  Biso   1.000  H
  H159     1.0000 0.49450  0.04130  0.77320  Biso   1.000  H
  H160     1.0000 0.00550  0.95870  0.27320  Biso   1.000  H
  H161     1.0000 0.38700  0.45770  0.29820  Biso   1.000  H
  H162     1.0000 0.11300  0.54230  0.79820  Biso   1.000  H
  H163     1.0000 0.61300  0.95770  0.20180  Biso   1.000  H
  H164     1.0000 0.88700  0.04230  0.70180  Biso   1.000  H
  H165     1.0000 0.61300  0.54230  0.70180  Biso   1.000  H
  H166     1.0000 0.88700  0.45770  0.20180  Biso   1.000  H
  H167     1.0000 0.38700  0.04230  0.79820  Biso   1.000  H
  H168     1.0000 0.11300  0.95770  0.29820  Biso   1.000  H
  C97      1.0000 0.85650  0.14110  0.06950  Biso   1.000  C
  C98      1.0000 0.64350  0.85890  0.56950  Biso   1.000  C
  C99      1.0000 0.14350  0.64110  0.43050  Biso   1.000  C
  C100     1.0000 0.35650  0.35890  0.93050  Biso   1.000  C
  C101     1.0000 0.14350  0.85890  0.93050  Biso   1.000  C
  C102     1.0000 0.35650  0.14110  0.43050  Biso   1.000  C
  C103     1.0000 0.85650  0.35890  0.56950  Biso   1.000  C
  C104     1.0000 0.64350  0.64110  0.06950  Biso   1.000  C
  H169     1.0000 0.90530  0.10610  0.06370  Biso   1.000  H
  H170     1.0000 0.59470  0.89390  0.56370  Biso   1.000  H
  H171     1.0000 0.09470  0.60610  0.43630  Biso   1.000  H
  H172     1.0000 0.40530  0.39390  0.93630  Biso   1.000  H
  H173     1.0000 0.09470  0.89390  0.93630  Biso   1.000  H
  H174     1.0000 0.40530  0.10610  0.43630  Biso   1.000  H
  H175     1.0000 0.90530  0.39390  0.56370  Biso   1.000  H
  H176     1.0000 0.59470  0.60610  0.06370  Biso   1.000  H
  H177     1.0000 0.84820  0.16570  0.03850  Biso   1.000  H
  H178     1.0000 0.65180  0.83430  0.53850  Biso   1.000  H
  H179     1.0000 0.15180  0.66570  0.46150  Biso   1.000  H
  H180     1.0000 0.34820  0.33430  0.96150  Biso   1.000  H
  H181     1.0000 0.15180  0.83430  0.96150  Biso   1.000  H
  H182     1.0000 0.34820  0.16570  0.46150  Biso   1.000  H
  H183     1.0000 0.84820  0.33430  0.53850  Biso   1.000  H
  H184     1.0000 0.65180  0.66570  0.03850  Biso   1.000  H
  C105     1.0000 0.75580  0.11180  0.08550  Biso   1.000  C
  C106     1.0000 0.74420  0.88820  0.58550  Biso   1.000  C
  C107     1.0000 0.24420  0.61180  0.41450  Biso   1.000  C
  C108     1.0000 0.25580  0.38820  0.91450  Biso   1.000  C
  C109     1.0000 0.24420  0.88820  0.91450  Biso   1.000  C
  C110     1.0000 0.25580  0.11180  0.41450  Biso   1.000  C
  C111     1.0000 0.75580  0.38820  0.58550  Biso   1.000  C
  C112     1.0000 0.74420  0.61180  0.08550  Biso   1.000  C
  H185     1.0000 0.70540  0.14650  0.08690  Biso   1.000  H
  H186     1.0000 0.79460  0.85350  0.58690  Biso   1.000  H
  H187     1.0000 0.29460  0.64650  0.41310  Biso   1.000  H
  H188     1.0000 0.20540  0.35350  0.91310  Biso   1.000  H
  H189     1.0000 0.29460  0.85350  0.91310  Biso   1.000  H
  H190     1.0000 0.20540  0.14650  0.41310  Biso   1.000  H
  H191     1.0000 0.70540  0.35350  0.58690  Biso   1.000  H
  H192     1.0000 0.79460  0.64650  0.08690  Biso   1.000  H
  H193     1.0000 0.73410  0.07980  0.06070  Biso   1.000  H
  H194     1.0000 0.76590  0.92020  0.56070  Biso   1.000  H
  H195     1.0000 0.26590  0.57980  0.43930  Biso   1.000  H
  H196     1.0000 0.23410  0.42020  0.93930  Biso   1.000  H
  H197     1.0000 0.26590  0.92020  0.93930  Biso   1.000  H
  H198     1.0000 0.23410  0.07980  0.43930  Biso   1.000  H
  H199     1.0000 0.73410  0.42020  0.56070  Biso   1.000  H
  H200     1.0000 0.76590  0.57980  0.06070  Biso   1.000  H
  C113     1.0000 0.76220  0.07960  0.13460  Biso   1.000  C
  C114     1.0000 0.73780  0.92040  0.63460  Biso   1.000  C
  C115     1.0000 0.23780  0.57960  0.36540  Biso   1.000  C
  C116     1.0000 0.26220  0.42040  0.86540  Biso   1.000  C
  C117     1.0000 0.23780  0.92040  0.86540  Biso   1.000  C
  C118     1.0000 0.26220  0.07960  0.36540  Biso   1.000  C
  C119     1.0000 0.76220  0.42040  0.63460  Biso   1.000  C
  C120     1.0000 0.73780  0.57960  0.13460  Biso   1.000  C
  H201     1.0000 0.69540  0.06440  0.14430  Biso   1.000  H
  H202     1.0000 0.80460  0.93560  0.64430  Biso   1.000  H
  H203     1.0000 0.30460  0.56440  0.35570  Biso   1.000  H
  H204     1.0000 0.19540  0.43560  0.85570  Biso   1.000  H
  H205     1.0000 0.30460  0.93560  0.85570  Biso   1.000  H
  H206     1.0000 0.19540  0.06440  0.35570  Biso   1.000  H
  H207     1.0000 0.69540  0.43560  0.64430  Biso   1.000  H
  H208     1.0000 0.80460  0.56440  0.14430  Biso   1.000  H
  H209     1.0000 0.80590  0.04120  0.13200  Biso   1.000  H
  H210     1.0000 0.69410  0.95880  0.63200  Biso   1.000  H
  H211     1.0000 0.19410  0.54120  0.36800  Biso   1.000  H
  H212     1.0000 0.30590  0.45880  0.86800  Biso   1.000  H
  H213     1.0000 0.19410  0.95880  0.86800  Biso   1.000  H
  H214     1.0000 0.30590  0.04120  0.36800  Biso   1.000  H
  H215     1.0000 0.80590  0.45880  0.63200  Biso   1.000  H
  H216     1.0000 0.69410  0.54120  0.13200  Biso   1.000  H
  C121     1.0000 0.80110  0.12340  0.17310  Biso   1.000  C
  C122     1.0000 0.69890  0.87660  0.67310  Biso   1.000  C
  C123     1.0000 0.19890  0.62340  0.32690  Biso   1.000  C
  C124     1.0000 0.30110  0.37660  0.82690  Biso   1.000  C
  C125     1.0000 0.19890  0.87660  0.82690  Biso   1.000  C
  C126     1.0000 0.30110  0.12340  0.32690  Biso   1.000  C
  C127     1.0000 0.80110  0.37660  0.67310  Biso   1.000  C
  C128     1.0000 0.69890  0.62340  0.17310  Biso   1.000  C
  H217     1.0000 0.80820  0.09900  0.20420  Biso   1.000  H
  H218     1.0000 0.69180  0.90100  0.70420  Biso   1.000  H
  H219     1.0000 0.19180  0.59900  0.29580  Biso   1.000  H
  H220     1.0000 0.30820  0.40100  0.79580  Biso   1.000  H
  H221     1.0000 0.19180  0.90100  0.79580  Biso   1.000  H
  H222     1.0000 0.30820  0.09900  0.29580  Biso   1.000  H
  H223     1.0000 0.80820  0.40100  0.70420  Biso   1.000  H
  H224     1.0000 0.69180  0.59900  0.20420  Biso   1.000  H
  H225     1.0000 0.75290  0.15870  0.17880  Biso   1.000  H
  H226     1.0000 0.74710  0.84130  0.67880  Biso   1.000  H
  H227     1.0000 0.24710  0.65870  0.32120  Biso   1.000  H
  H228     1.0000 0.25290  0.34130  0.82120  Biso   1.000  H
  H229     1.0000 0.24710  0.84130  0.82120  Biso   1.000  H
  H230     1.0000 0.25290  0.15870  0.32120  Biso   1.000  H
  H231     1.0000 0.75290  0.34130  0.67880  Biso   1.000  H
  H232     1.0000 0.74710  0.65870  0.17880  Biso   1.000  H
  C129     1.0000 0.90240  0.15290  0.15910  Biso   1.000  C
  C130     1.0000 0.59760  0.84710  0.65910  Biso   1.000  C
  C131     1.0000 0.09760  0.65290  0.34090  Biso   1.000  C
  C132     1.0000 0.40240  0.34710  0.84090  Biso   1.000  C
  C133     1.0000 0.09760  0.84710  0.84090  Biso   1.000  C
  C134     1.0000 0.40240  0.15290  0.34090  Biso   1.000  C
  C135     1.0000 0.90240  0.34710  0.65910  Biso   1.000  C
  C136     1.0000 0.59760  0.65290  0.15910  Biso   1.000  C
  H233     1.0000 0.92290  0.18490  0.18420  Biso   1.000  H
  H234     1.0000 0.57710  0.81510  0.68420  Biso   1.000  H
  H235     1.0000 0.07710  0.68490  0.31580  Biso   1.000  H
  H236     1.0000 0.42290  0.31510  0.81580  Biso   1.000  H
  H237     1.0000 0.07710  0.81510  0.81580  Biso   1.000  H
  H238     1.0000 0.42290  0.18490  0.31580  Biso   1.000  H
  H239     1.0000 0.92290  0.31510  0.68420  Biso   1.000  H
  H240     1.0000 0.57710  0.68490  0.18420  Biso   1.000  H
  H241     1.0000 0.95330  0.11850  0.15760  Biso   1.000  H
  H242     1.0000 0.54670  0.88150  0.65760  Biso   1.000  H
  H243     1.0000 0.04670  0.61850  0.34240  Biso   1.000  H
  H244     1.0000 0.45330  0.38150  0.84240  Biso   1.000  H
  H245     1.0000 0.04670  0.88150  0.84240  Biso   1.000  H
  H246     1.0000 0.45330  0.11850  0.34240  Biso   1.000  H
  H247     1.0000 0.95330  0.38150  0.65760  Biso   1.000  H
  H248     1.0000 0.54670  0.61850  0.15760  Biso   1.000  H
  C137     1.0000 0.89320  0.18540  0.10960  Biso   1.000  C
  C138     1.0000 0.60680  0.81460  0.60960  Biso   1.000  C
  C139     1.0000 0.10680  0.68540  0.39040  Biso   1.000  C
  C140     1.0000 0.39320  0.31460  0.89040  Biso   1.000  C
  C141     1.0000 0.10680  0.81460  0.89040  Biso   1.000  C
  C142     1.0000 0.39320  0.18540  0.39040  Biso   1.000  C
  C143     1.0000 0.89320  0.31460  0.60960  Biso   1.000  C
  C144     1.0000 0.60680  0.68540  0.10960  Biso   1.000  C
  H249     1.0000 0.84340  0.22090  0.11310  Biso   1.000  H
  H250     1.0000 0.65660  0.77910  0.61310  Biso   1.000  H
  H251     1.0000 0.15660  0.72090  0.38690  Biso   1.000  H
  H252     1.0000 0.34340  0.27910  0.88690  Biso   1.000  H
  H253     1.0000 0.15660  0.77910  0.88690  Biso   1.000  H
  H254     1.0000 0.34340  0.22090  0.38690  Biso   1.000  H
  H255     1.0000 0.84340  0.27910  0.61310  Biso   1.000  H
  H256     1.0000 0.65660  0.72090  0.11310  Biso   1.000  H
  C145     1.0000 0.02630  0.28740  0.13420  Biso   1.000  C
  C146     1.0000 0.47370  0.71260  0.63420  Biso   1.000  C
  C147     1.0000 0.97370  0.78740  0.36580  Biso   1.000  C
  C148     1.0000 0.52630  0.21260  0.86580  Biso   1.000  C
  C149     1.0000 0.97370  0.71260  0.86580  Biso   1.000  C
  C150     1.0000 0.52630  0.28740  0.36580  Biso   1.000  C
  C151     1.0000 0.02630  0.21260  0.63420  Biso   1.000  C
  C152     1.0000 0.47370  0.78740  0.13420  Biso   1.000  C
  H257     1.0000 0.02690  0.26850  0.16760  Biso   1.000  H
  H258     1.0000 0.47310  0.73150  0.66760  Biso   1.000  H
  H259     1.0000 0.97310  0.76850  0.33240  Biso   1.000  H
  H260     1.0000 0.52690  0.23150  0.83240  Biso   1.000  H
  H261     1.0000 0.97310  0.73150  0.83240  Biso   1.000  H
  H262     1.0000 0.52690  0.26850  0.33240  Biso   1.000  H
  H263     1.0000 0.02690  0.23150  0.66760  Biso   1.000  H
  H264     1.0000 0.47310  0.76850  0.16760  Biso   1.000  H
  H265     1.0000 0.09100  0.30870  0.12870  Biso   1.000  H
  H266     1.0000 0.40900  0.69130  0.62870  Biso   1.000  H
  H267     1.0000 0.90900  0.80870  0.37130  Biso   1.000  H
  H268     1.0000 0.59100  0.19130  0.87130  Biso   1.000  H
  H269     1.0000 0.90900  0.69130  0.87130  Biso   1.000  H
  H270     1.0000 0.59100  0.30870  0.37130  Biso   1.000  H
  H271     1.0000 0.09100  0.19130  0.62870  Biso   1.000  H
  H272     1.0000 0.40900  0.80870  0.12870  Biso   1.000  H
  C153     1.0000 0.94440  0.33730  0.13080  Biso   1.000  C
  C154     1.0000 0.55560  0.66270  0.63080  Biso   1.000  C
  C155     1.0000 0.05560  0.83730  0.36920  Biso   1.000  C
  C156     1.0000 0.44440  0.16270  0.86920  Biso   1.000  C
  C157     1.0000 0.05560  0.66270  0.86920  Biso   1.000  C
  C158     1.0000 0.44440  0.33730  0.36920  Biso   1.000  C
  C159     1.0000 0.94440  0.16270  0.63080  Biso   1.000  C
  C160     1.0000 0.55560  0.83730  0.13080  Biso   1.000  C
  C161     1.0000 0.87780  0.43620  0.09650  Biso   1.000  C
  C162     1.0000 0.62220  0.56380  0.59650  Biso   1.000  C
  C163     1.0000 0.12220  0.93620  0.40350  Biso   1.000  C
  C164     1.0000 0.37780  0.06380  0.90350  Biso   1.000  C
  C165     1.0000 0.12220  0.56380  0.90350  Biso   1.000  C
  C166     1.0000 0.37780  0.43620  0.40350  Biso   1.000  C
  C167     1.0000 0.87780  0.06380  0.59650  Biso   1.000  C
  C168     1.0000 0.62220  0.93620  0.09650  Biso   1.000  C
  H273     1.0000 0.90540  0.48060  0.09670  Biso   1.000  H
  H274     1.0000 0.59460  0.51940  0.59670  Biso   1.000  H
  H275     1.0000 0.09460  0.98060  0.40330  Biso   1.000  H
  H276     1.0000 0.40540  0.01940  0.90330  Biso   1.000  H
  H277     1.0000 0.09460  0.51940  0.90330  Biso   1.000  H
  H278     1.0000 0.40540  0.48060  0.40330  Biso   1.000  H
  H279     1.0000 0.90540  0.01940  0.59670  Biso   1.000  H
  H280     1.0000 0.59460  0.98060  0.09670  Biso   1.000  H
  H281     1.0000 0.83240  0.43190  0.12490  Biso   1.000  H
  H282     1.0000 0.66760  0.56810  0.62490  Biso   1.000  H
  H283     1.0000 0.16760  0.93190  0.37510  Biso   1.000  H
  H284     1.0000 0.33240  0.06810  0.87510  Biso   1.000  H
  H285     1.0000 0.16760  0.56810  0.87510  Biso   1.000  H
  H286     1.0000 0.33240  0.43190  0.37510  Biso   1.000  H
  H287     1.0000 0.83240  0.06810  0.62490  Biso   1.000  H
  H288     1.0000 0.66760  0.93190  0.12490  Biso   1.000  H
  C169     1.0000 0.82080  0.42490  0.04900  Biso   1.000  C
  C170     1.0000 0.67920  0.57510  0.54900  Biso   1.000  C
  C171     1.0000 0.17920  0.92490  0.45100  Biso   1.000  C
  C172     1.0000 0.32080  0.07510  0.95100  Biso   1.000  C
  C173     1.0000 0.17920  0.57510  0.95100  Biso   1.000  C
  C174     1.0000 0.32080  0.42490  0.45100  Biso   1.000  C
  C175     1.0000 0.82080  0.07510  0.54900  Biso   1.000  C
  C176     1.0000 0.67920  0.92490  0.04900  Biso   1.000  C
  H289     1.0000 0.76240  0.45390  0.04790  Biso   1.000  H
  H290     1.0000 0.73760  0.54610  0.54790  Biso   1.000  H
  H291     1.0000 0.23760  0.95390  0.45210  Biso   1.000  H
  H292     1.0000 0.26240  0.04610  0.95210  Biso   1.000  H
  H293     1.0000 0.23760  0.54610  0.95210  Biso   1.000  H
  H294     1.0000 0.26240  0.45390  0.45210  Biso   1.000  H
  H295     1.0000 0.76240  0.04610  0.54790  Biso   1.000  H
  H296     1.0000 0.73760  0.95390  0.04790  Biso   1.000  H
  H297     1.0000 0.79680  0.37970  0.04790  Biso   1.000  H
  H298     1.0000 0.70320  0.62030  0.54790  Biso   1.000  H
  H299     1.0000 0.20320  0.87970  0.45210  Biso   1.000  H
  H300     1.0000 0.29680  0.12030  0.95210  Biso   1.000  H
  H301     1.0000 0.20320  0.62030  0.95210  Biso   1.000  H
  H302     1.0000 0.29680  0.37970  0.45210  Biso   1.000  H
  H303     1.0000 0.79680  0.12030  0.54790  Biso   1.000  H
  H304     1.0000 0.70320  0.87970  0.04790  Biso   1.000  H
  C177     1.0000 0.99790  0.38480  0.01190  Biso   1.000  C
  C178     1.0000 0.50210  0.61520  0.51190  Biso   1.000  C
  C179     1.0000 0.00210  0.88480  0.48810  Biso   1.000  C
  C180     1.0000 0.49790  0.11520  0.98810  Biso   1.000  C
  C181     1.0000 0.00210  0.61520  0.98810  Biso   1.000  C
  C182     1.0000 0.49790  0.38480  0.48810  Biso   1.000  C
  C183     1.0000 0.99790  0.11520  0.51190  Biso   1.000  C
  C184     1.0000 0.50210  0.88480  0.01190  Biso   1.000  C
  H305     1.0000 0.97280  0.33990  0.00940  Biso   1.000  H
  H306     1.0000 0.52720  0.66010  0.50940  Biso   1.000  H
  H307     1.0000 0.02720  0.83990  0.49060  Biso   1.000  H
  H308     1.0000 0.47280  0.16010  0.99060  Biso   1.000  H
  H309     1.0000 0.02720  0.66010  0.99060  Biso   1.000  H
  H310     1.0000 0.47280  0.33990  0.49060  Biso   1.000  H
  H311     1.0000 0.97280  0.16010  0.50940  Biso   1.000  H
  H312     1.0000 0.52720  0.83990  0.00940  Biso   1.000  H
  H313     1.0000 0.05270  0.38970  0.98810  Biso   1.000  H
  H314     1.0000 0.44730  0.61030  0.48810  Biso   1.000  H
  H315     1.0000 0.94730  0.88970  0.51190  Biso   1.000  H
  H316     1.0000 0.55270  0.11030  0.01190  Biso   1.000  H
  H317     1.0000 0.94730  0.61030  0.01190  Biso   1.000  H
  H318     1.0000 0.55270  0.38970  0.51190  Biso   1.000  H
  H319     1.0000 0.05270  0.11030  0.48810  Biso   1.000  H
  H320     1.0000 0.44730  0.88970  0.98810  Biso   1.000  H
  C185     1.0000 0.03740  0.39620  0.06360  Biso   1.000  C
  C186     1.0000 0.46260  0.60380  0.56360  Biso   1.000  C
  C187     1.0000 0.96260  0.89620  0.43640  Biso   1.000  C
  C188     1.0000 0.53740  0.10380  0.93640  Biso   1.000  C
  C189     1.0000 0.96260  0.60380  0.93640  Biso   1.000  C
  C190     1.0000 0.53740  0.39620  0.43640  Biso   1.000  C
  C191     1.0000 0.03740  0.10380  0.56360  Biso   1.000  C
  C192     1.0000 0.46260  0.89620  0.06360  Biso   1.000  C
  H321     1.0000 0.09100  0.36480  0.07050  Biso   1.000  H
  H322     1.0000 0.40900  0.63520  0.57050  Biso   1.000  H
  H323     1.0000 0.90900  0.86480  0.42950  Biso   1.000  H
  H324     1.0000 0.59100  0.13520  0.92950  Biso   1.000  H
  H325     1.0000 0.90900  0.63520  0.92950  Biso   1.000  H
  H326     1.0000 0.59100  0.36480  0.42950  Biso   1.000  H
  H327     1.0000 0.09100  0.13520  0.57050  Biso   1.000  H
  H328     1.0000 0.40900  0.86480  0.07050  Biso   1.000  H
  H329     1.0000 0.06580  0.44020  0.06570  Biso   1.000  H
  H330     1.0000 0.43420  0.55980  0.56570  Biso   1.000  H
  H331     1.0000 0.93420  0.94020  0.43430  Biso   1.000  H
  H332     1.0000 0.56580  0.05980  0.93430  Biso   1.000  H
  H333     1.0000 0.93420  0.55980  0.93430  Biso   1.000  H
  H334     1.0000 0.56580  0.44020  0.43430  Biso   1.000  H
  H335     1.0000 0.06580  0.05980  0.56570  Biso   1.000  H
  H336     1.0000 0.43420  0.94020  0.06570  Biso   1.000  H
