data_image0
_cell_length_a       9.459
_cell_length_b       29.785
_cell_length_c       34.465
_cell_angle_alpha    90
_cell_angle_beta     90
_cell_angle_gamma    90

_symmetry_space_group_name_H-M    "P 1"
_symmetry_int_tables_number       1

loop_
  _symmetry_equiv_pos_as_xyz
  'x, y, z'

loop_
  _atom_site_label
  _atom_site_occupancy
  _atom_site_fract_x
  _atom_site_fract_y
  _atom_site_fract_z
  _atom_site_thermal_displace_type
  _atom_site_B_iso_or_equiv
  _atom_site_type_symbol
  Cu1      1.0000 0.70998  0.64153  0.45080  Biso   1.000  Cu
  Cu2      1.0000 0.79002  0.35847  0.95080  Biso   1.000  Cu
  Cu3      1.0000 0.20998  0.85847  0.54920  Biso   1.000  Cu
  Cu4      1.0000 0.29002  0.14153  0.04920  Biso   1.000  Cu
  Cu5      1.0000 0.29002  0.35847  0.54920  Biso   1.000  Cu
  Cu6      1.0000 0.20998  0.64153  0.04920  Biso   1.000  Cu
  Cu7      1.0000 0.79002  0.14153  0.45080  Biso   1.000  Cu
  Cu8      1.0000 0.70998  0.85847  0.95080  Biso   1.000  Cu
  O1       1.0000 0.33190  0.93575  0.38354  Biso   1.000  O
  O2       1.0000 0.16810  0.06425  0.88354  Biso   1.000  O
  O3       1.0000 0.83190  0.56425  0.61646  Biso   1.000  O
  O4       1.0000 0.66810  0.43575  0.11646  Biso   1.000  O
  O5       1.0000 0.66810  0.06425  0.61646  Biso   1.000  O
  O6       1.0000 0.83190  0.93575  0.11646  Biso   1.000  O
  O7       1.0000 0.16810  0.43575  0.38354  Biso   1.000  O
  O8       1.0000 0.33190  0.56425  0.88354  Biso   1.000  O
  N1       1.0000 0.64980  0.10958  0.41684  Biso   1.000  N
  N2       1.0000 0.85020  0.89042  0.91684  Biso   1.000  N
  N3       1.0000 0.14980  0.39042  0.58316  Biso   1.000  N
  N4       1.0000 0.35020  0.60958  0.08316  Biso   1.000  N
  N5       1.0000 0.35020  0.89042  0.58316  Biso   1.000  N
  N6       1.0000 0.14980  0.10958  0.08316  Biso   1.000  N
  N7       1.0000 0.85020  0.60958  0.41684  Biso   1.000  N
  N8       1.0000 0.64980  0.39042  0.91684  Biso   1.000  N
  C1       1.0000 0.07770  0.94679  0.28454  Biso   1.000  C
  C2       1.0000 0.42230  0.05321  0.78454  Biso   1.000  C
  C3       1.0000 0.57770  0.55321  0.71546  Biso   1.000  C
  C4       1.0000 0.92230  0.44679  0.21546  Biso   1.000  C
  C5       1.0000 0.92230  0.05321  0.71546  Biso   1.000  C
  C6       1.0000 0.57770  0.94679  0.21546  Biso   1.000  C
  C7       1.0000 0.42230  0.44679  0.28454  Biso   1.000  C
  C8       1.0000 0.07770  0.55321  0.78454  Biso   1.000  C
  O9       1.0000 0.35420  0.00607  0.34103  Biso   1.000  O
  O10      1.0000 0.14580  0.99393  0.84103  Biso   1.000  O
  O11      1.0000 0.85420  0.49393  0.65897  Biso   1.000  O
  O12      1.0000 0.64580  0.50607  0.15897  Biso   1.000  O
  O13      1.0000 0.64580  0.99393  0.65897  Biso   1.000  O
  O14      1.0000 0.85420  0.00607  0.15897  Biso   1.000  O
  O15      1.0000 0.14580  0.50607  0.34103  Biso   1.000  O
  O16      1.0000 0.35420  0.49393  0.84103  Biso   1.000  O
  N9       1.0000 0.57560  0.66597  0.40921  Biso   1.000  N
  N10      1.0000 0.92440  0.33403  0.90921  Biso   1.000  N
  N11      1.0000 0.07560  0.83403  0.59079  Biso   1.000  N
  N12      1.0000 0.42440  0.16597  0.09079  Biso   1.000  N
  N13      1.0000 0.42440  0.33403  0.59079  Biso   1.000  N
  N14      1.0000 0.07560  0.66597  0.09079  Biso   1.000  N
  N15      1.0000 0.92440  0.16597  0.40921  Biso   1.000  N
  N16      1.0000 0.57560  0.83403  0.90921  Biso   1.000  N
  C9       1.0000 0.16910  0.98081  0.29640  Biso   1.000  C
  C10      1.0000 0.33090  0.01919  0.79640  Biso   1.000  C
  C11      1.0000 0.66910  0.51919  0.70360  Biso   1.000  C
  C12      1.0000 0.83090  0.48081  0.20360  Biso   1.000  C
  C13      1.0000 0.83090  0.01919  0.70360  Biso   1.000  C
  C14      1.0000 0.66910  0.98081  0.20360  Biso   1.000  C
  C15      1.0000 0.33090  0.48081  0.29640  Biso   1.000  C
  C16      1.0000 0.16910  0.51919  0.79640  Biso   1.000  C
  H1       1.0000 0.17490  0.00780  0.28180  Biso   1.000  H
  H2       1.0000 0.32510  0.99220  0.78180  Biso   1.000  H
  H3       1.0000 0.67490  0.49220  0.71820  Biso   1.000  H
  H4       1.0000 0.82510  0.50780  0.21820  Biso   1.000  H
  H5       1.0000 0.82510  0.99220  0.71820  Biso   1.000  H
  H6       1.0000 0.67490  0.00780  0.21820  Biso   1.000  H
  H7       1.0000 0.32510  0.50780  0.28180  Biso   1.000  H
  H8       1.0000 0.17490  0.49220  0.78180  Biso   1.000  H
  O17      1.0000 0.25860  0.06880  0.32050  Biso   1.000  O
  O18      1.0000 0.24140  0.93120  0.82050  Biso   1.000  O
  O19      1.0000 0.75860  0.43120  0.67950  Biso   1.000  O
  O20      1.0000 0.74140  0.56880  0.17950  Biso   1.000  O
  O21      1.0000 0.74140  0.93120  0.67950  Biso   1.000  O
  O22      1.0000 0.75860  0.06880  0.17950  Biso   1.000  O
  O23      1.0000 0.24140  0.56880  0.32050  Biso   1.000  O
  O24      1.0000 0.25860  0.43120  0.82050  Biso   1.000  O
  N17      1.0000 0.59540  0.88814  0.99250  Biso   1.000  N
  N18      1.0000 0.90460  0.11186  0.49250  Biso   1.000  N
  N19      1.0000 0.09540  0.61186  0.00750  Biso   1.000  N
  N20      1.0000 0.40460  0.38814  0.50750  Biso   1.000  N
  N21      1.0000 0.40460  0.11186  0.00750  Biso   1.000  N
  N22      1.0000 0.09540  0.88814  0.50750  Biso   1.000  N
  N23      1.0000 0.90460  0.38814  0.99250  Biso   1.000  N
  N24      1.0000 0.59540  0.61186  0.49250  Biso   1.000  N
  C17      1.0000 0.25070  0.97556  0.32891  Biso   1.000  C
  C18      1.0000 0.24930  0.02444  0.82891  Biso   1.000  C
  C19      1.0000 0.75070  0.52444  0.67109  Biso   1.000  C
  C20      1.0000 0.74930  0.47556  0.17109  Biso   1.000  C
  C21      1.0000 0.74930  0.02444  0.67109  Biso   1.000  C
  C22      1.0000 0.75070  0.97556  0.17109  Biso   1.000  C
  C23      1.0000 0.24930  0.47556  0.32891  Biso   1.000  C
  C24      1.0000 0.25070  0.52444  0.82891  Biso   1.000  C
  O25      1.0000 0.34670  0.73799  0.22791  Biso   1.000  O
  O26      1.0000 0.15330  0.26201  0.72791  Biso   1.000  O
  O27      1.0000 0.84670  0.76201  0.77209  Biso   1.000  O
  O28      1.0000 0.65330  0.23799  0.27209  Biso   1.000  O
  O29      1.0000 0.65330  0.26201  0.77209  Biso   1.000  O
  O30      1.0000 0.84670  0.73799  0.27209  Biso   1.000  O
  O31      1.0000 0.15330  0.23799  0.22791  Biso   1.000  O
  O32      1.0000 0.34670  0.76201  0.72791  Biso   1.000  O
  N25      1.0000 0.80110  0.69463  0.47633  Biso   1.000  N
  N26      1.0000 0.69890  0.30537  0.97633  Biso   1.000  N
  N27      1.0000 0.30110  0.80537  0.52367  Biso   1.000  N
  N28      1.0000 0.19890  0.19463  0.02367  Biso   1.000  N
  N29      1.0000 0.19890  0.30537  0.52367  Biso   1.000  N
  N30      1.0000 0.30110  0.69463  0.02367  Biso   1.000  N
  N31      1.0000 0.69890  0.19463  0.47633  Biso   1.000  N
  N32      1.0000 0.80110  0.80537  0.97633  Biso   1.000  N
  C25      1.0000 0.24500  0.93680  0.35176  Biso   1.000  C
  C26      1.0000 0.25500  0.06320  0.85176  Biso   1.000  C
  C27      1.0000 0.74500  0.56320  0.64824  Biso   1.000  C
  C28      1.0000 0.75500  0.43680  0.14824  Biso   1.000  C
  C29      1.0000 0.75500  0.06320  0.64824  Biso   1.000  C
  C30      1.0000 0.74500  0.93680  0.14824  Biso   1.000  C
  C31      1.0000 0.25500  0.43680  0.35176  Biso   1.000  C
  C32      1.0000 0.24500  0.56320  0.85176  Biso   1.000  C
  O33      1.0000 0.33980  0.75279  0.30600  Biso   1.000  O
  O34      1.0000 0.16020  0.24721  0.80600  Biso   1.000  O
  O35      1.0000 0.83980  0.74721  0.69400  Biso   1.000  O
  O36      1.0000 0.66020  0.25279  0.19400  Biso   1.000  O
  O37      1.0000 0.66020  0.24721  0.69400  Biso   1.000  O
  O38      1.0000 0.83980  0.75279  0.19400  Biso   1.000  O
  O39      1.0000 0.16020  0.25279  0.30600  Biso   1.000  O
  O40      1.0000 0.33980  0.74721  0.80600  Biso   1.000  O
  C33      1.0000 0.15180  0.90376  0.34126  Biso   1.000  C
  C34      1.0000 0.34820  0.09624  0.84126  Biso   1.000  C
  C35      1.0000 0.65180  0.59624  0.65874  Biso   1.000  C
  C36      1.0000 0.84820  0.40376  0.15874  Biso   1.000  C
  C37      1.0000 0.84820  0.09624  0.65874  Biso   1.000  C
  C38      1.0000 0.65180  0.90376  0.15874  Biso   1.000  C
  C39      1.0000 0.34820  0.40376  0.34126  Biso   1.000  C
  C40      1.0000 0.15180  0.59624  0.84126  Biso   1.000  C
  H9       1.0000 0.14310  0.87780  0.35700  Biso   1.000  H
  H10      1.0000 0.35690  0.12220  0.85700  Biso   1.000  H
  H11      1.0000 0.64310  0.62220  0.64300  Biso   1.000  H
  H12      1.0000 0.85690  0.37780  0.14300  Biso   1.000  H
  H13      1.0000 0.85690  0.12220  0.64300  Biso   1.000  H
  H14      1.0000 0.64310  0.87780  0.14300  Biso   1.000  H
  H15      1.0000 0.35690  0.37780  0.35700  Biso   1.000  H
  H16      1.0000 0.14310  0.62220  0.85700  Biso   1.000  H
  O41      1.0000 0.21070  0.68919  0.30527  Biso   1.000  O
  O42      1.0000 0.28930  0.31081  0.80527  Biso   1.000  O
  O43      1.0000 0.71070  0.81081  0.69473  Biso   1.000  O
  O44      1.0000 0.78930  0.18919  0.19473  Biso   1.000  O
  O45      1.0000 0.78930  0.31081  0.69473  Biso   1.000  O
  O46      1.0000 0.71070  0.68919  0.19473  Biso   1.000  O
  O47      1.0000 0.28930  0.18919  0.30527  Biso   1.000  O
  O48      1.0000 0.21070  0.81081  0.80527  Biso   1.000  O
  C41      1.0000 0.06880  0.90761  0.30750  Biso   1.000  C
  C42      1.0000 0.43120  0.09239  0.80750  Biso   1.000  C
  C43      1.0000 0.56880  0.59239  0.69250  Biso   1.000  C
  C44      1.0000 0.93120  0.40761  0.19250  Biso   1.000  C
  C45      1.0000 0.93120  0.09239  0.69250  Biso   1.000  C
  C46      1.0000 0.56880  0.90761  0.19250  Biso   1.000  C
  C47      1.0000 0.43120  0.40761  0.30750  Biso   1.000  C
  C48      1.0000 0.06880  0.59239  0.80750  Biso   1.000  C
  O49      1.0000 0.34330  0.99999  0.14892  Biso   1.000  O
  O50      1.0000 0.15670  0.00001  0.64892  Biso   1.000  O
  O51      1.0000 0.84330  0.50001  0.85108  Biso   1.000  O
  O52      1.0000 0.65670  0.49999  0.35108  Biso   1.000  O
  O53      1.0000 0.65670  0.00001  0.85108  Biso   1.000  O
  O54      1.0000 0.84330  0.99999  0.35108  Biso   1.000  O
  O55      1.0000 0.15670  0.49999  0.14892  Biso   1.000  O
  O56      1.0000 0.34330  0.50001  0.64892  Biso   1.000  O
  C49      1.0000 0.97900  0.86752  0.29625  Biso   1.000  C
  C50      1.0000 0.52100  0.13248  0.79625  Biso   1.000  C
  C51      1.0000 0.47900  0.63248  0.70375  Biso   1.000  C
  C52      1.0000 0.02100  0.36752  0.20375  Biso   1.000  C
  C53      1.0000 0.02100  0.13248  0.70375  Biso   1.000  C
  C54      1.0000 0.47900  0.86752  0.20375  Biso   1.000  C
  C55      1.0000 0.52100  0.36752  0.29625  Biso   1.000  C
  C56      1.0000 0.97900  0.63248  0.79625  Biso   1.000  C
  H17      1.0000 0.90010  0.87750  0.27940  Biso   1.000  H
  H18      1.0000 0.59990  0.12250  0.77940  Biso   1.000  H
  H19      1.0000 0.40010  0.62250  0.72060  Biso   1.000  H
  H20      1.0000 0.09990  0.37750  0.22060  Biso   1.000  H
  H21      1.0000 0.09990  0.12250  0.72060  Biso   1.000  H
  H22      1.0000 0.40010  0.87750  0.22060  Biso   1.000  H
  H23      1.0000 0.59990  0.37750  0.27940  Biso   1.000  H
  H24      1.0000 0.90010  0.62250  0.77940  Biso   1.000  H
  H25      1.0000 0.93810  0.85380  0.31990  Biso   1.000  H
  H26      1.0000 0.56190  0.14620  0.81990  Biso   1.000  H
  H27      1.0000 0.43810  0.64620  0.68010  Biso   1.000  H
  H28      1.0000 0.06190  0.35380  0.18010  Biso   1.000  H
  H29      1.0000 0.06190  0.14620  0.68010  Biso   1.000  H
  H30      1.0000 0.43810  0.85380  0.18010  Biso   1.000  H
  H31      1.0000 0.56190  0.35380  0.31990  Biso   1.000  H
  H32      1.0000 0.93810  0.64620  0.81990  Biso   1.000  H
  O57      1.0000 0.33610  0.91785  0.11407  Biso   1.000  O
  O58      1.0000 0.16390  0.08215  0.61407  Biso   1.000  O
  O59      1.0000 0.83610  0.58215  0.88593  Biso   1.000  O
  O60      1.0000 0.66390  0.41785  0.38593  Biso   1.000  O
  O61      1.0000 0.66390  0.08215  0.88593  Biso   1.000  O
  O62      1.0000 0.83610  0.91785  0.38593  Biso   1.000  O
  O63      1.0000 0.16390  0.41785  0.11407  Biso   1.000  O
  O64      1.0000 0.33610  0.58215  0.61407  Biso   1.000  O
  C57      1.0000 0.06800  0.83285  0.27475  Biso   1.000  C
  C58      1.0000 0.43200  0.16715  0.77475  Biso   1.000  C
  C59      1.0000 0.56800  0.66715  0.72525  Biso   1.000  C
  C60      1.0000 0.93200  0.33285  0.22525  Biso   1.000  C
  C61      1.0000 0.93200  0.16715  0.72525  Biso   1.000  C
  C62      1.0000 0.56800  0.83285  0.22525  Biso   1.000  C
  C63      1.0000 0.43200  0.33285  0.27475  Biso   1.000  C
  C64      1.0000 0.06800  0.66715  0.77475  Biso   1.000  C
  O65      1.0000 0.21240  0.96176  0.07319  Biso   1.000  O
  O66      1.0000 0.28760  0.03824  0.57319  Biso   1.000  O
  O67      1.0000 0.71240  0.53824  0.92681  Biso   1.000  O
  O68      1.0000 0.78760  0.46176  0.42681  Biso   1.000  O
  O69      1.0000 0.78760  0.03824  0.92681  Biso   1.000  O
  O70      1.0000 0.71240  0.96176  0.42681  Biso   1.000  O
  O71      1.0000 0.28760  0.46176  0.07319  Biso   1.000  O
  O72      1.0000 0.21240  0.53824  0.57319  Biso   1.000  O
  C65      1.0000 0.15330  0.80503  0.29749  Biso   1.000  C
  C66      1.0000 0.34670  0.19497  0.79749  Biso   1.000  C
  C67      1.0000 0.65330  0.69497  0.70251  Biso   1.000  C
  C68      1.0000 0.84670  0.30503  0.20251  Biso   1.000  C
  C69      1.0000 0.84670  0.19497  0.70251  Biso   1.000  C
  C70      1.0000 0.65330  0.80503  0.20251  Biso   1.000  C
  C71      1.0000 0.34670  0.30503  0.29749  Biso   1.000  C
  C72      1.0000 0.15330  0.69497  0.79749  Biso   1.000  C
  H33      1.0000 0.14720  0.80690  0.32500  Biso   1.000  H
  H34      1.0000 0.35280  0.19310  0.82500  Biso   1.000  H
  H35      1.0000 0.64720  0.69310  0.67500  Biso   1.000  H
  H36      1.0000 0.85280  0.30690  0.17500  Biso   1.000  H
  H37      1.0000 0.85280  0.19310  0.67500  Biso   1.000  H
  H38      1.0000 0.64720  0.80690  0.17500  Biso   1.000  H
  H39      1.0000 0.35280  0.30690  0.32500  Biso   1.000  H
  H40      1.0000 0.14720  0.69310  0.82500  Biso   1.000  H
  C73      1.0000 0.24590  0.77504  0.28100  Biso   1.000  C
  C74      1.0000 0.25410  0.22496  0.78100  Biso   1.000  C
  C75      1.0000 0.74590  0.72496  0.71900  Biso   1.000  C
  C76      1.0000 0.75410  0.27504  0.21900  Biso   1.000  C
  C77      1.0000 0.75410  0.22496  0.71900  Biso   1.000  C
  C78      1.0000 0.74590  0.77504  0.21900  Biso   1.000  C
  C79      1.0000 0.25410  0.27504  0.28100  Biso   1.000  C
  C80      1.0000 0.24590  0.72496  0.78100  Biso   1.000  C
  C81      1.0000 0.25390  0.76956  0.24130  Biso   1.000  C
  C82      1.0000 0.24610  0.23044  0.74130  Biso   1.000  C
  C83      1.0000 0.75390  0.73044  0.75870  Biso   1.000  C
  C84      1.0000 0.74610  0.26956  0.25870  Biso   1.000  C
  C85      1.0000 0.74610  0.23044  0.75870  Biso   1.000  C
  C86      1.0000 0.75390  0.76956  0.25870  Biso   1.000  C
  C87      1.0000 0.24610  0.26956  0.24130  Biso   1.000  C
  C88      1.0000 0.25390  0.73044  0.74130  Biso   1.000  C
  C89      1.0000 0.16800  0.79717  0.21819  Biso   1.000  C
  C90      1.0000 0.33200  0.20283  0.71819  Biso   1.000  C
  C91      1.0000 0.66800  0.70283  0.78181  Biso   1.000  C
  C92      1.0000 0.83200  0.29717  0.28181  Biso   1.000  C
  C93      1.0000 0.83200  0.20283  0.78181  Biso   1.000  C
  C94      1.0000 0.66800  0.79717  0.28181  Biso   1.000  C
  C95      1.0000 0.33200  0.29717  0.21819  Biso   1.000  C
  C96      1.0000 0.16800  0.70283  0.71819  Biso   1.000  C
  H41      1.0000 0.17190  0.79440  0.19080  Biso   1.000  H
  H42      1.0000 0.32810  0.20560  0.69080  Biso   1.000  H
  H43      1.0000 0.67190  0.70560  0.80920  Biso   1.000  H
  H44      1.0000 0.82810  0.29440  0.30920  Biso   1.000  H
  H45      1.0000 0.82810  0.20560  0.80920  Biso   1.000  H
  H46      1.0000 0.67190  0.79440  0.30920  Biso   1.000  H
  H47      1.0000 0.32810  0.29440  0.19080  Biso   1.000  H
  H48      1.0000 0.17190  0.70560  0.69080  Biso   1.000  H
  C97      1.0000 0.07600  0.82902  0.23496  Biso   1.000  C
  C98      1.0000 0.42400  0.17098  0.73496  Biso   1.000  C
  C99      1.0000 0.57600  0.67098  0.76504  Biso   1.000  C
  C100     1.0000 0.92400  0.32902  0.26504  Biso   1.000  C
  C101     1.0000 0.92400  0.17098  0.76504  Biso   1.000  C
  C102     1.0000 0.57600  0.82902  0.26504  Biso   1.000  C
  C103     1.0000 0.42400  0.32902  0.23496  Biso   1.000  C
  C104     1.0000 0.07600  0.67098  0.73496  Biso   1.000  C
  C105     1.0000 0.99400  0.85908  0.20745  Biso   1.000  C
  C106     1.0000 0.50600  0.14092  0.70745  Biso   1.000  C
  C107     1.0000 0.49400  0.64092  0.79255  Biso   1.000  C
  C108     1.0000 0.00600  0.35908  0.29255  Biso   1.000  C
  C109     1.0000 0.00600  0.14092  0.79255  Biso   1.000  C
  C110     1.0000 0.49400  0.85908  0.29255  Biso   1.000  C
  C111     1.0000 0.50600  0.35908  0.20745  Biso   1.000  C
  C112     1.0000 0.99400  0.64092  0.70745  Biso   1.000  C
  H49      1.0000 0.90810  0.87010  0.22090  Biso   1.000  H
  H50      1.0000 0.59190  0.12990  0.72090  Biso   1.000  H
  H51      1.0000 0.40810  0.62990  0.77910  Biso   1.000  H
  H52      1.0000 0.09190  0.37010  0.27910  Biso   1.000  H
  H53      1.0000 0.09190  0.12990  0.77910  Biso   1.000  H
  H54      1.0000 0.40810  0.87010  0.27910  Biso   1.000  H
  H55      1.0000 0.59190  0.37010  0.22090  Biso   1.000  H
  H56      1.0000 0.90810  0.62990  0.72090  Biso   1.000  H
  H57      1.0000 0.96300  0.84110  0.18490  Biso   1.000  H
  H58      1.0000 0.53700  0.15890  0.68490  Biso   1.000  H
  H59      1.0000 0.46300  0.65890  0.81510  Biso   1.000  H
  H60      1.0000 0.03700  0.34110  0.31510  Biso   1.000  H
  H61      1.0000 0.03700  0.15890  0.81510  Biso   1.000  H
  H62      1.0000 0.46300  0.84110  0.31510  Biso   1.000  H
  H63      1.0000 0.53700  0.34110  0.18490  Biso   1.000  H
  H64      1.0000 0.96300  0.65890  0.68490  Biso   1.000  H
  C113     1.0000 0.07870  0.89950  0.19287  Biso   1.000  C
  C114     1.0000 0.42130  0.10050  0.69287  Biso   1.000  C
  C115     1.0000 0.57870  0.60050  0.80713  Biso   1.000  C
  C116     1.0000 0.92130  0.39950  0.30713  Biso   1.000  C
  C117     1.0000 0.92130  0.10050  0.80713  Biso   1.000  C
  C118     1.0000 0.57870  0.89950  0.30713  Biso   1.000  C
  C119     1.0000 0.42130  0.39950  0.19287  Biso   1.000  C
  C120     1.0000 0.07870  0.60050  0.69287  Biso   1.000  C
  C121     1.0000 0.16190  0.89382  0.15967  Biso   1.000  C
  C122     1.0000 0.33810  0.10618  0.65967  Biso   1.000  C
  C123     1.0000 0.66190  0.60618  0.84033  Biso   1.000  C
  C124     1.0000 0.83810  0.39382  0.34033  Biso   1.000  C
  C125     1.0000 0.83810  0.10618  0.84033  Biso   1.000  C
  C126     1.0000 0.66190  0.89382  0.34033  Biso   1.000  C
  C127     1.0000 0.33810  0.39382  0.15967  Biso   1.000  C
  C128     1.0000 0.16190  0.60618  0.65967  Biso   1.000  C
  H65      1.0000 0.15970  0.86590  0.14630  Biso   1.000  H
  H66      1.0000 0.34030  0.13410  0.64630  Biso   1.000  H
  H67      1.0000 0.65970  0.63410  0.85370  Biso   1.000  H
  H68      1.0000 0.84030  0.36590  0.35370  Biso   1.000  H
  H69      1.0000 0.84030  0.13410  0.85370  Biso   1.000  H
  H70      1.0000 0.65970  0.86590  0.35370  Biso   1.000  H
  H71      1.0000 0.34030  0.36590  0.14630  Biso   1.000  H
  H72      1.0000 0.15970  0.63410  0.64630  Biso   1.000  H
  C129     1.0000 0.24650  0.92765  0.14604  Biso   1.000  C
  C130     1.0000 0.25350  0.07235  0.64604  Biso   1.000  C
  C131     1.0000 0.74650  0.57235  0.85396  Biso   1.000  C
  C132     1.0000 0.75350  0.42765  0.35396  Biso   1.000  C
  C133     1.0000 0.75350  0.07235  0.85396  Biso   1.000  C
  C134     1.0000 0.74650  0.92765  0.35396  Biso   1.000  C
  C135     1.0000 0.25350  0.42765  0.14604  Biso   1.000  C
  C136     1.0000 0.24650  0.57235  0.64604  Biso   1.000  C
  C137     1.0000 0.25360  0.96901  0.16422  Biso   1.000  C
  C138     1.0000 0.24640  0.03099  0.66422  Biso   1.000  C
  C139     1.0000 0.75360  0.53099  0.83578  Biso   1.000  C
  C140     1.0000 0.74640  0.46901  0.33578  Biso   1.000  C
  C141     1.0000 0.74640  0.03099  0.83578  Biso   1.000  C
  C142     1.0000 0.75360  0.96901  0.33578  Biso   1.000  C
  C143     1.0000 0.24640  0.46901  0.16422  Biso   1.000  C
  C144     1.0000 0.25360  0.53099  0.66422  Biso   1.000  C
  C145     1.0000 0.16760  0.97534  0.19618  Biso   1.000  C
  C146     1.0000 0.33240  0.02466  0.69618  Biso   1.000  C
  C147     1.0000 0.66760  0.52466  0.80382  Biso   1.000  C
  C148     1.0000 0.83240  0.47534  0.30382  Biso   1.000  C
  C149     1.0000 0.83240  0.02466  0.80382  Biso   1.000  C
  C150     1.0000 0.66760  0.97534  0.30382  Biso   1.000  C
  C151     1.0000 0.33240  0.47534  0.19618  Biso   1.000  C
  C152     1.0000 0.16760  0.52466  0.69618  Biso   1.000  C
  H73      1.0000 0.16670  0.00400  0.20820  Biso   1.000  H
  H74      1.0000 0.33330  0.99600  0.70820  Biso   1.000  H
  H75      1.0000 0.66670  0.49600  0.79180  Biso   1.000  H
  H76      1.0000 0.83330  0.50400  0.29180  Biso   1.000  H
  H77      1.0000 0.83330  0.99600  0.79180  Biso   1.000  H
  H78      1.0000 0.66670  0.00400  0.29180  Biso   1.000  H
  H79      1.0000 0.33330  0.50400  0.20820  Biso   1.000  H
  H80      1.0000 0.16670  0.49600  0.70820  Biso   1.000  H
  C153     1.0000 0.08140  0.94145  0.21167  Biso   1.000  C
  C154     1.0000 0.41860  0.05855  0.71167  Biso   1.000  C
  C155     1.0000 0.58140  0.55855  0.78833  Biso   1.000  C
  C156     1.0000 0.91860  0.44145  0.28833  Biso   1.000  C
  C157     1.0000 0.91860  0.05855  0.78833  Biso   1.000  C
  C158     1.0000 0.58140  0.94145  0.28833  Biso   1.000  C
  C159     1.0000 0.41860  0.44145  0.21167  Biso   1.000  C
  C160     1.0000 0.08140  0.55855  0.71167  Biso   1.000  C
  C161     1.0000 0.99610  0.95279  0.24747  Biso   1.000  C
  C162     1.0000 0.50390  0.04721  0.74747  Biso   1.000  C
  C163     1.0000 0.49610  0.54721  0.75253  Biso   1.000  C
  C164     1.0000 0.00390  0.45279  0.25253  Biso   1.000  C
  C165     1.0000 0.00390  0.04721  0.75253  Biso   1.000  C
  C166     1.0000 0.49610  0.95279  0.25253  Biso   1.000  C
  C167     1.0000 0.50390  0.45279  0.24747  Biso   1.000  C
  C168     1.0000 0.99610  0.54721  0.74747  Biso   1.000  C
  H81      1.0000 0.96380  0.98430  0.24570  Biso   1.000  H
  H82      1.0000 0.53620  0.01570  0.74570  Biso   1.000  H
  H83      1.0000 0.46380  0.51570  0.75430  Biso   1.000  H
  H84      1.0000 0.03620  0.48430  0.25430  Biso   1.000  H
  H85      1.0000 0.03620  0.01570  0.75430  Biso   1.000  H
  H86      1.0000 0.46380  0.98430  0.25430  Biso   1.000  H
  H87      1.0000 0.53620  0.48430  0.24570  Biso   1.000  H
  H88      1.0000 0.96380  0.51570  0.74570  Biso   1.000  H
  H89      1.0000 0.91110  0.93340  0.24820  Biso   1.000  H
  H90      1.0000 0.58890  0.06660  0.74820  Biso   1.000  H
  H91      1.0000 0.41110  0.56660  0.75180  Biso   1.000  H
  H92      1.0000 0.08890  0.43340  0.25180  Biso   1.000  H
  H93      1.0000 0.08890  0.06660  0.75180  Biso   1.000  H
  H94      1.0000 0.41110  0.93340  0.25180  Biso   1.000  H
  H95      1.0000 0.58890  0.43340  0.24820  Biso   1.000  H
  H96      1.0000 0.91110  0.56660  0.74820  Biso   1.000  H
  C169     1.0000 0.35650  0.89390  0.40102  Biso   1.000  C
  C170     1.0000 0.14350  0.10610  0.90102  Biso   1.000  C
  C171     1.0000 0.85650  0.60610  0.59898  Biso   1.000  C
  C172     1.0000 0.64350  0.39390  0.09898  Biso   1.000  C
  C173     1.0000 0.64350  0.10610  0.59898  Biso   1.000  C
  C174     1.0000 0.85650  0.89390  0.09898  Biso   1.000  C
  C175     1.0000 0.14350  0.39390  0.40102  Biso   1.000  C
  C176     1.0000 0.35650  0.60610  0.90102  Biso   1.000  C
  H97      1.0000 0.27080  0.88410  0.41450  Biso   1.000  H
  H98      1.0000 0.22920  0.11590  0.91450  Biso   1.000  H
  H99      1.0000 0.77080  0.61590  0.58550  Biso   1.000  H
  H100     1.0000 0.72920  0.38410  0.08550  Biso   1.000  H
  H101     1.0000 0.72920  0.11590  0.58550  Biso   1.000  H
  H102     1.0000 0.77080  0.88410  0.08550  Biso   1.000  H
  H103     1.0000 0.22920  0.38410  0.41450  Biso   1.000  H
  H104     1.0000 0.27080  0.61590  0.91450  Biso   1.000  H
  H105     1.0000 0.43420  0.89660  0.41970  Biso   1.000  H
  H106     1.0000 0.06580  0.10340  0.91970  Biso   1.000  H
  H107     1.0000 0.93420  0.60340  0.58030  Biso   1.000  H
  H108     1.0000 0.56580  0.39660  0.08030  Biso   1.000  H
  H109     1.0000 0.56580  0.10340  0.58030  Biso   1.000  H
  H110     1.0000 0.93420  0.89660  0.08030  Biso   1.000  H
  H111     1.0000 0.06580  0.39660  0.41970  Biso   1.000  H
  H112     1.0000 0.43420  0.60340  0.91970  Biso   1.000  H
  H113     1.0000 0.38150  0.87190  0.38110  Biso   1.000  H
  H114     1.0000 0.11850  0.12810  0.88110  Biso   1.000  H
  H115     1.0000 0.88150  0.62810  0.61890  Biso   1.000  H
  H116     1.0000 0.61850  0.37190  0.11890  Biso   1.000  H
  H117     1.0000 0.61850  0.12810  0.61890  Biso   1.000  H
  H118     1.0000 0.88150  0.87190  0.11890  Biso   1.000  H
  H119     1.0000 0.11850  0.37190  0.38110  Biso   1.000  H
  H120     1.0000 0.38150  0.62810  0.88110  Biso   1.000  H
  C177     1.0000 0.34600  0.04750  0.33970  Biso   1.000  C
  C178     1.0000 0.15400  0.95250  0.83970  Biso   1.000  C
  C179     1.0000 0.84600  0.45250  0.66030  Biso   1.000  C
  C180     1.0000 0.65400  0.54750  0.16030  Biso   1.000  C
  C181     1.0000 0.65400  0.95250  0.66030  Biso   1.000  C
  C182     1.0000 0.84600  0.04750  0.16030  Biso   1.000  C
  C183     1.0000 0.15400  0.54750  0.33970  Biso   1.000  C
  C184     1.0000 0.34600  0.45250  0.83970  Biso   1.000  C
  C185     1.0000 0.45480  0.06900  0.36540  Biso   1.000  C
  C186     1.0000 0.04520  0.93100  0.86540  Biso   1.000  C
  C187     1.0000 0.95480  0.43100  0.63460  Biso   1.000  C
  C188     1.0000 0.54520  0.56900  0.13460  Biso   1.000  C
  C189     1.0000 0.54520  0.93100  0.63460  Biso   1.000  C
  C190     1.0000 0.95480  0.06900  0.13460  Biso   1.000  C
  C191     1.0000 0.04520  0.56900  0.36540  Biso   1.000  C
  C192     1.0000 0.45480  0.43100  0.86540  Biso   1.000  C
  C193     1.0000 0.47490  0.11560  0.36410  Biso   1.000  C
  C194     1.0000 0.02510  0.88440  0.86410  Biso   1.000  C
  C195     1.0000 0.97490  0.38440  0.63590  Biso   1.000  C
  C196     1.0000 0.52510  0.61560  0.13590  Biso   1.000  C
  C197     1.0000 0.52510  0.88440  0.63590  Biso   1.000  C
  C198     1.0000 0.97490  0.11560  0.13590  Biso   1.000  C
  C199     1.0000 0.02510  0.61560  0.36410  Biso   1.000  C
  C200     1.0000 0.47490  0.38440  0.86410  Biso   1.000  C
  H121     1.0000 0.42740  0.13400  0.34570  Biso   1.000  H
  H122     1.0000 0.07260  0.86600  0.84570  Biso   1.000  H
  H123     1.0000 0.92740  0.36600  0.65430  Biso   1.000  H
  H124     1.0000 0.57260  0.63400  0.15430  Biso   1.000  H
  H125     1.0000 0.57260  0.86600  0.65430  Biso   1.000  H
  H126     1.0000 0.92740  0.13400  0.15430  Biso   1.000  H
  H127     1.0000 0.07260  0.63400  0.34570  Biso   1.000  H
  H128     1.0000 0.42740  0.36600  0.84570  Biso   1.000  H
  C201     1.0000 0.57030  0.13370  0.39180  Biso   1.000  C
  C202     1.0000 0.92970  0.86630  0.89180  Biso   1.000  C
  C203     1.0000 0.07030  0.36630  0.60820  Biso   1.000  C
  C204     1.0000 0.42970  0.63370  0.10820  Biso   1.000  C
  C205     1.0000 0.42970  0.86630  0.60820  Biso   1.000  C
  C206     1.0000 0.07030  0.13370  0.10820  Biso   1.000  C
  C207     1.0000 0.92970  0.63370  0.39180  Biso   1.000  C
  C208     1.0000 0.57030  0.36630  0.89180  Biso   1.000  C
  H129     1.0000 0.57900  0.16540  0.39280  Biso   1.000  H
  H130     1.0000 0.92100  0.83460  0.89280  Biso   1.000  H
  H131     1.0000 0.07900  0.33460  0.60720  Biso   1.000  H
  H132     1.0000 0.42100  0.66540  0.10720  Biso   1.000  H
  H133     1.0000 0.42100  0.83460  0.60720  Biso   1.000  H
  H134     1.0000 0.07900  0.16540  0.10720  Biso   1.000  H
  H135     1.0000 0.92100  0.66540  0.39280  Biso   1.000  H
  H136     1.0000 0.57900  0.33460  0.89280  Biso   1.000  H
  C209     1.0000 0.63910  0.06552  0.41278  Biso   1.000  C
  C210     1.0000 0.86090  0.93448  0.91278  Biso   1.000  C
  C211     1.0000 0.13910  0.43448  0.58722  Biso   1.000  C
  C212     1.0000 0.36090  0.56552  0.08722  Biso   1.000  C
  C213     1.0000 0.36090  0.93448  0.58722  Biso   1.000  C
  C214     1.0000 0.13910  0.06552  0.08722  Biso   1.000  C
  C215     1.0000 0.86090  0.56552  0.41278  Biso   1.000  C
  C216     1.0000 0.63910  0.43448  0.91278  Biso   1.000  C
  H137     1.0000 0.70310  0.04740  0.42710  Biso   1.000  H
  H138     1.0000 0.79690  0.95260  0.92710  Biso   1.000  H
  H139     1.0000 0.20310  0.45260  0.57290  Biso   1.000  H
  H140     1.0000 0.29690  0.54740  0.07290  Biso   1.000  H
  H141     1.0000 0.29690  0.95260  0.57290  Biso   1.000  H
  H142     1.0000 0.20310  0.04740  0.07290  Biso   1.000  H
  H143     1.0000 0.79690  0.54740  0.42710  Biso   1.000  H
  H144     1.0000 0.70310  0.45260  0.92710  Biso   1.000  H
  C217     1.0000 0.54280  0.04408  0.38957  Biso   1.000  C
  C218     1.0000 0.95720  0.95592  0.88957  Biso   1.000  C
  C219     1.0000 0.04280  0.45592  0.61043  Biso   1.000  C
  C220     1.0000 0.45720  0.54408  0.11043  Biso   1.000  C
  C221     1.0000 0.45720  0.95592  0.61043  Biso   1.000  C
  C222     1.0000 0.04280  0.04408  0.11043  Biso   1.000  C
  C223     1.0000 0.95720  0.54408  0.38957  Biso   1.000  C
  C224     1.0000 0.54280  0.45592  0.88957  Biso   1.000  C
  H145     1.0000 0.53600  0.01230  0.39000  Biso   1.000  H
  H146     1.0000 0.96400  0.98770  0.89000  Biso   1.000  H
  H147     1.0000 0.03600  0.48770  0.61000  Biso   1.000  H
  H148     1.0000 0.46400  0.51230  0.11000  Biso   1.000  H
  H149     1.0000 0.46400  0.98770  0.61000  Biso   1.000  H
  H150     1.0000 0.03600  0.01230  0.11000  Biso   1.000  H
  H151     1.0000 0.96400  0.51230  0.39000  Biso   1.000  H
  H152     1.0000 0.53600  0.48770  0.89000  Biso   1.000  H
  C225     1.0000 0.36140  0.73330  0.18723  Biso   1.000  C
  C226     1.0000 0.13860  0.26670  0.68723  Biso   1.000  C
  C227     1.0000 0.86140  0.76670  0.81277  Biso   1.000  C
  C228     1.0000 0.63860  0.23330  0.31277  Biso   1.000  C
  C229     1.0000 0.63860  0.26670  0.81277  Biso   1.000  C
  C230     1.0000 0.86140  0.73330  0.31277  Biso   1.000  C
  C231     1.0000 0.13860  0.23330  0.18723  Biso   1.000  C
  C232     1.0000 0.36140  0.76670  0.68723  Biso   1.000  C
  H153     1.0000 0.27210  0.72270  0.17610  Biso   1.000  H
  H154     1.0000 0.22790  0.27730  0.67610  Biso   1.000  H
  H155     1.0000 0.77210  0.77730  0.82390  Biso   1.000  H
  H156     1.0000 0.72790  0.22270  0.32390  Biso   1.000  H
  H157     1.0000 0.72790  0.27730  0.82390  Biso   1.000  H
  H158     1.0000 0.77210  0.72270  0.32390  Biso   1.000  H
  H159     1.0000 0.22790  0.22270  0.17610  Biso   1.000  H
  H160     1.0000 0.27210  0.77730  0.67610  Biso   1.000  H
  H161     1.0000 0.43640  0.71160  0.18160  Biso   1.000  H
  H162     1.0000 0.06360  0.28840  0.68160  Biso   1.000  H
  H163     1.0000 0.93640  0.78840  0.81840  Biso   1.000  H
  H164     1.0000 0.56360  0.21160  0.31840  Biso   1.000  H
  H165     1.0000 0.56360  0.28840  0.81840  Biso   1.000  H
  H166     1.0000 0.93640  0.71160  0.31840  Biso   1.000  H
  H167     1.0000 0.06360  0.21160  0.18160  Biso   1.000  H
  H168     1.0000 0.43640  0.78840  0.68160  Biso   1.000  H
  H169     1.0000 0.38600  0.76240  0.17580  Biso   1.000  H
  H170     1.0000 0.11400  0.23760  0.67580  Biso   1.000  H
  H171     1.0000 0.88600  0.73760  0.82420  Biso   1.000  H
  H172     1.0000 0.61400  0.26240  0.32420  Biso   1.000  H
  H173     1.0000 0.61400  0.23760  0.82420  Biso   1.000  H
  H174     1.0000 0.88600  0.76240  0.32420  Biso   1.000  H
  H175     1.0000 0.11400  0.26240  0.17580  Biso   1.000  H
  H176     1.0000 0.38600  0.73760  0.67580  Biso   1.000  H
  C233     1.0000 0.30710  0.71126  0.31800  Biso   1.000  C
  C234     1.0000 0.19290  0.28874  0.81800  Biso   1.000  C
  C235     1.0000 0.80710  0.78874  0.68200  Biso   1.000  C
  C236     1.0000 0.69290  0.21126  0.18200  Biso   1.000  C
  C237     1.0000 0.69290  0.28874  0.68200  Biso   1.000  C
  C238     1.0000 0.80710  0.71126  0.18200  Biso   1.000  C
  C239     1.0000 0.19290  0.21126  0.31800  Biso   1.000  C
  C240     1.0000 0.30710  0.78874  0.81800  Biso   1.000  C
  C241     1.0000 0.40410  0.69642  0.34956  Biso   1.000  C
  C242     1.0000 0.09590  0.30358  0.84956  Biso   1.000  C
  C243     1.0000 0.90410  0.80358  0.65044  Biso   1.000  C
  C244     1.0000 0.59590  0.19642  0.15044  Biso   1.000  C
  C245     1.0000 0.59590  0.30358  0.65044  Biso   1.000  C
  C246     1.0000 0.90410  0.69642  0.15044  Biso   1.000  C
  C247     1.0000 0.09590  0.19642  0.34956  Biso   1.000  C
  C248     1.0000 0.40410  0.80358  0.84956  Biso   1.000  C
  C249     1.0000 0.49480  0.72496  0.36803  Biso   1.000  C
  C250     1.0000 0.00520  0.27504  0.86803  Biso   1.000  C
  C251     1.0000 0.99480  0.77504  0.63197  Biso   1.000  C
  C252     1.0000 0.50520  0.22496  0.13197  Biso   1.000  C
  C253     1.0000 0.50520  0.27504  0.63197  Biso   1.000  C
  C254     1.0000 0.99480  0.72496  0.13197  Biso   1.000  C
  C255     1.0000 0.00520  0.22496  0.36803  Biso   1.000  C
  C256     1.0000 0.49480  0.77504  0.86803  Biso   1.000  C
  H177     1.0000 0.49980  0.75560  0.36060  Biso   1.000  H
  H178     1.0000 0.00020  0.24440  0.86060  Biso   1.000  H
  H179     1.0000 0.99980  0.74440  0.63940  Biso   1.000  H
  H180     1.0000 0.50020  0.25560  0.13940  Biso   1.000  H
  H181     1.0000 0.50020  0.24440  0.63940  Biso   1.000  H
  H182     1.0000 0.99980  0.75560  0.13940  Biso   1.000  H
  H183     1.0000 0.00020  0.25560  0.36060  Biso   1.000  H
  H184     1.0000 0.49980  0.74440  0.86060  Biso   1.000  H
  C257     1.0000 0.58040  0.70860  0.39800  Biso   1.000  C
  C258     1.0000 0.91960  0.29140  0.89800  Biso   1.000  C
  C259     1.0000 0.08040  0.79140  0.60200  Biso   1.000  C
  C260     1.0000 0.41960  0.20860  0.10200  Biso   1.000  C
  C261     1.0000 0.41960  0.29140  0.60200  Biso   1.000  C
  C262     1.0000 0.08040  0.70860  0.10200  Biso   1.000  C
  C263     1.0000 0.91960  0.20860  0.39800  Biso   1.000  C
  C264     1.0000 0.58040  0.79140  0.89800  Biso   1.000  C
  H185     1.0000 0.64370  0.72860  0.41070  Biso   1.000  H
  H186     1.0000 0.85630  0.27140  0.91070  Biso   1.000  H
  H187     1.0000 0.14370  0.77140  0.58930  Biso   1.000  H
  H188     1.0000 0.35630  0.22860  0.08930  Biso   1.000  H
  H189     1.0000 0.35630  0.27140  0.58930  Biso   1.000  H
  H190     1.0000 0.14370  0.72860  0.08930  Biso   1.000  H
  H191     1.0000 0.85630  0.22860  0.41070  Biso   1.000  H
  H192     1.0000 0.64370  0.77140  0.91070  Biso   1.000  H
  C265     1.0000 0.48670  0.63816  0.39059  Biso   1.000  C
  C266     1.0000 0.01330  0.36184  0.89059  Biso   1.000  C
  C267     1.0000 0.98670  0.86184  0.60941  Biso   1.000  C
  C268     1.0000 0.51330  0.13816  0.10941  Biso   1.000  C
  C269     1.0000 0.51330  0.36184  0.60941  Biso   1.000  C
  C270     1.0000 0.98670  0.63816  0.10941  Biso   1.000  C
  C271     1.0000 0.01330  0.13816  0.39059  Biso   1.000  C
  C272     1.0000 0.48670  0.86184  0.89059  Biso   1.000  C
  H193     1.0000 0.48320  0.60760  0.39850  Biso   1.000  H
  H194     1.0000 0.01680  0.39240  0.89850  Biso   1.000  H
  H195     1.0000 0.98320  0.89240  0.60150  Biso   1.000  H
  H196     1.0000 0.51680  0.10760  0.10150  Biso   1.000  H
  H197     1.0000 0.51680  0.39240  0.60150  Biso   1.000  H
  H198     1.0000 0.98320  0.60760  0.10150  Biso   1.000  H
  H199     1.0000 0.01680  0.10760  0.39850  Biso   1.000  H
  H200     1.0000 0.48320  0.89240  0.89850  Biso   1.000  H
  C273     1.0000 0.40120  0.65162  0.36094  Biso   1.000  C
  C274     1.0000 0.09880  0.34838  0.86094  Biso   1.000  C
  C275     1.0000 0.90120  0.84838  0.63906  Biso   1.000  C
  C276     1.0000 0.59880  0.15162  0.13906  Biso   1.000  C
  C277     1.0000 0.59880  0.34838  0.63906  Biso   1.000  C
  C278     1.0000 0.90120  0.65162  0.13906  Biso   1.000  C
  C279     1.0000 0.09880  0.15162  0.36094  Biso   1.000  C
  C280     1.0000 0.40120  0.84838  0.86094  Biso   1.000  C
  H201     1.0000 0.34080  0.63080  0.34830  Biso   1.000  H
  H202     1.0000 0.15920  0.36920  0.84830  Biso   1.000  H
  H203     1.0000 0.84080  0.86920  0.65170  Biso   1.000  H
  H204     1.0000 0.65920  0.13080  0.15170  Biso   1.000  H
  H205     1.0000 0.65920  0.36920  0.65170  Biso   1.000  H
  H206     1.0000 0.84080  0.63080  0.15170  Biso   1.000  H
  H207     1.0000 0.15920  0.13080  0.34830  Biso   1.000  H
  H208     1.0000 0.34080  0.86920  0.84830  Biso   1.000  H
  C281     1.0000 0.36210  0.04068  0.17129  Biso   1.000  C
  C282     1.0000 0.13790  0.95932  0.67129  Biso   1.000  C
  C283     1.0000 0.86210  0.45932  0.82871  Biso   1.000  C
  C284     1.0000 0.63790  0.54068  0.32871  Biso   1.000  C
  C285     1.0000 0.63790  0.95932  0.82871  Biso   1.000  C
  C286     1.0000 0.86210  0.04068  0.32871  Biso   1.000  C
  C287     1.0000 0.13790  0.54068  0.17129  Biso   1.000  C
  C288     1.0000 0.36210  0.45932  0.67129  Biso   1.000  C
  H209     1.0000 0.27550  0.05870  0.17010  Biso   1.000  H
  H210     1.0000 0.22450  0.94130  0.67010  Biso   1.000  H
  H211     1.0000 0.77550  0.44130  0.82990  Biso   1.000  H
  H212     1.0000 0.72450  0.55870  0.32990  Biso   1.000  H
  H213     1.0000 0.72450  0.94130  0.82990  Biso   1.000  H
  H214     1.0000 0.77550  0.05870  0.32990  Biso   1.000  H
  H215     1.0000 0.22450  0.55870  0.17010  Biso   1.000  H
  H216     1.0000 0.27550  0.44130  0.67010  Biso   1.000  H
  H217     1.0000 0.44100  0.05800  0.16050  Biso   1.000  H
  H218     1.0000 0.05900  0.94200  0.66050  Biso   1.000  H
  H219     1.0000 0.94100  0.44200  0.83950  Biso   1.000  H
  H220     1.0000 0.55900  0.55800  0.33950  Biso   1.000  H
  H221     1.0000 0.55900  0.94200  0.83950  Biso   1.000  H
  H222     1.0000 0.94100  0.05800  0.33950  Biso   1.000  H
  H223     1.0000 0.05900  0.55800  0.16050  Biso   1.000  H
  H224     1.0000 0.44100  0.44200  0.66050  Biso   1.000  H
  H225     1.0000 0.38270  0.03290  0.19830  Biso   1.000  H
  H226     1.0000 0.11730  0.96710  0.69830  Biso   1.000  H
  H227     1.0000 0.88270  0.46710  0.80170  Biso   1.000  H
  H228     1.0000 0.61730  0.53290  0.30170  Biso   1.000  H
  H229     1.0000 0.61730  0.96710  0.80170  Biso   1.000  H
  H230     1.0000 0.88270  0.03290  0.30170  Biso   1.000  H
  H231     1.0000 0.11730  0.53290  0.19830  Biso   1.000  H
  H232     1.0000 0.38270  0.46710  0.69830  Biso   1.000  H
  C289     1.0000 0.30790  0.93622  0.07957  Biso   1.000  C
  C290     1.0000 0.19210  0.06378  0.57957  Biso   1.000  C
  C291     1.0000 0.80790  0.56378  0.92043  Biso   1.000  C
  C292     1.0000 0.69210  0.43622  0.42043  Biso   1.000  C
  C293     1.0000 0.69210  0.06378  0.92043  Biso   1.000  C
  C294     1.0000 0.80790  0.93622  0.42043  Biso   1.000  C
  C295     1.0000 0.19210  0.43622  0.07957  Biso   1.000  C
  C296     1.0000 0.30790  0.56378  0.57957  Biso   1.000  C
  C297     1.0000 0.41030  0.92010  0.04997  Biso   1.000  C
  C298     1.0000 0.08970  0.07990  0.54997  Biso   1.000  C
  C299     1.0000 0.91030  0.57990  0.95003  Biso   1.000  C
  C300     1.0000 0.58970  0.42010  0.45003  Biso   1.000  C
  C301     1.0000 0.58970  0.07990  0.95003  Biso   1.000  C
  C302     1.0000 0.91030  0.92010  0.45003  Biso   1.000  C
  C303     1.0000 0.08970  0.42010  0.04997  Biso   1.000  C
  C304     1.0000 0.41030  0.57990  0.54997  Biso   1.000  C
  C305     1.0000 0.42660  0.94253  0.01443  Biso   1.000  C
  C306     1.0000 0.07340  0.05747  0.51443  Biso   1.000  C
  C307     1.0000 0.92660  0.55747  0.98557  Biso   1.000  C
  C308     1.0000 0.57340  0.44253  0.48557  Biso   1.000  C
  C309     1.0000 0.57340  0.05747  0.98557  Biso   1.000  C
  C310     1.0000 0.92660  0.94253  0.48557  Biso   1.000  C
  C311     1.0000 0.07340  0.44253  0.01443  Biso   1.000  C
  C312     1.0000 0.42660  0.55747  0.51443  Biso   1.000  C
  H233     1.0000 0.37380  0.96900  0.00930  Biso   1.000  H
  H234     1.0000 0.12620  0.03100  0.50930  Biso   1.000  H
  H235     1.0000 0.87380  0.53100  0.99070  Biso   1.000  H
  H236     1.0000 0.62620  0.46900  0.49070  Biso   1.000  H
  H237     1.0000 0.62620  0.03100  0.99070  Biso   1.000  H
  H238     1.0000 0.87380  0.96900  0.49070  Biso   1.000  H
  H239     1.0000 0.12620  0.46900  0.00930  Biso   1.000  H
  H240     1.0000 0.37380  0.53100  0.50930  Biso   1.000  H
  C313     1.0000 0.51800  0.92629  0.98737  Biso   1.000  C
  C314     1.0000 0.98200  0.07371  0.48737  Biso   1.000  C
  C315     1.0000 0.01800  0.57371  0.01263  Biso   1.000  C
  C316     1.0000 0.48200  0.42629  0.51263  Biso   1.000  C
  C317     1.0000 0.48200  0.07371  0.01263  Biso   1.000  C
  C318     1.0000 0.01800  0.92629  0.51263  Biso   1.000  C
  C319     1.0000 0.98200  0.42629  0.98737  Biso   1.000  C
  C320     1.0000 0.51800  0.57371  0.48737  Biso   1.000  C
  H241     1.0000 0.52840  0.94230  0.96370  Biso   1.000  H
  H242     1.0000 0.97160  0.05770  0.46370  Biso   1.000  H
  H243     1.0000 0.02840  0.55770  0.03630  Biso   1.000  H
  H244     1.0000 0.47160  0.44230  0.53630  Biso   1.000  H
  H245     1.0000 0.47160  0.05770  0.03630  Biso   1.000  H
  H246     1.0000 0.02840  0.94230  0.53630  Biso   1.000  H
  H247     1.0000 0.97160  0.44230  0.96370  Biso   1.000  H
  H248     1.0000 0.52840  0.55770  0.46370  Biso   1.000  H
  C321     1.0000 0.57960  0.86691  0.02643  Biso   1.000  C
  C322     1.0000 0.92040  0.13309  0.52643  Biso   1.000  C
  C323     1.0000 0.07960  0.63309  0.97357  Biso   1.000  C
  C324     1.0000 0.42040  0.36691  0.47357  Biso   1.000  C
  C325     1.0000 0.42040  0.13309  0.97357  Biso   1.000  C
  C326     1.0000 0.07960  0.86691  0.47357  Biso   1.000  C
  C327     1.0000 0.92040  0.36691  0.02643  Biso   1.000  C
  C328     1.0000 0.57960  0.63309  0.52643  Biso   1.000  C
  H249     1.0000 0.63220  0.84020  0.03070  Biso   1.000  H
  H250     1.0000 0.86780  0.15980  0.53070  Biso   1.000  H
  H251     1.0000 0.13220  0.65980  0.96930  Biso   1.000  H
  H252     1.0000 0.36780  0.34020  0.46930  Biso   1.000  H
  H253     1.0000 0.36780  0.15980  0.96930  Biso   1.000  H
  H254     1.0000 0.13220  0.84020  0.46930  Biso   1.000  H
  H255     1.0000 0.86780  0.34020  0.03070  Biso   1.000  H
  H256     1.0000 0.63220  0.65980  0.53070  Biso   1.000  H
  C329     1.0000 0.49110  0.88169  0.05558  Biso   1.000  C
  C330     1.0000 0.00890  0.11831  0.55558  Biso   1.000  C
  C331     1.0000 0.99110  0.61831  0.94442  Biso   1.000  C
  C332     1.0000 0.50890  0.38169  0.44442  Biso   1.000  C
  C333     1.0000 0.50890  0.11831  0.94442  Biso   1.000  C
  C334     1.0000 0.99110  0.88169  0.44442  Biso   1.000  C
  C335     1.0000 0.00890  0.38169  0.05558  Biso   1.000  C
  C336     1.0000 0.49110  0.61831  0.55558  Biso   1.000  C
  H257     1.0000 0.48540  0.86570  0.07940  Biso   1.000  H
  H258     1.0000 0.01460  0.13430  0.57940  Biso   1.000  H
  H259     1.0000 0.98540  0.63430  0.92060  Biso   1.000  H
  H260     1.0000 0.51460  0.36570  0.42060  Biso   1.000  H
  H261     1.0000 0.51460  0.13430  0.92060  Biso   1.000  H
  H262     1.0000 0.98540  0.86570  0.42060  Biso   1.000  H
  H263     1.0000 0.01460  0.36570  0.07940  Biso   1.000  H
  H264     1.0000 0.48540  0.63430  0.57940  Biso   1.000  H
  C337     1.0000 0.85040  0.72220  0.49380  Biso   1.000  C
  C338     1.0000 0.64960  0.27780  0.99380  Biso   1.000  C
  C339     1.0000 0.35040  0.77780  0.50620  Biso   1.000  C
  C340     1.0000 0.14960  0.22220  0.00620  Biso   1.000  C
  C341     1.0000 0.14960  0.27780  0.50620  Biso   1.000  C
  C342     1.0000 0.35040  0.72220  0.00620  Biso   1.000  C
  C343     1.0000 0.64960  0.22220  0.49380  Biso   1.000  C
  C344     1.0000 0.85040  0.77780  0.99380  Biso   1.000  C
  C345     1.0000 0.91750  0.75770  0.51710  Biso   1.000  C
  C346     1.0000 0.58250  0.24230  0.01710  Biso   1.000  C
  C347     1.0000 0.41750  0.74230  0.48290  Biso   1.000  C
  C348     1.0000 0.08250  0.25770  0.98290  Biso   1.000  C
  C349     1.0000 0.08250  0.24230  0.48290  Biso   1.000  C
  C350     1.0000 0.41750  0.75770  0.98290  Biso   1.000  C
  C351     1.0000 0.58250  0.25770  0.51710  Biso   1.000  C
  C352     1.0000 0.91750  0.74230  0.01710  Biso   1.000  C
  H265     1.0000 0.86240  0.78540  0.51490  Biso   1.000  H
  H266     1.0000 0.63760  0.21460  0.01490  Biso   1.000  H
  H267     1.0000 0.36240  0.71460  0.48510  Biso   1.000  H
  H268     1.0000 0.13760  0.28540  0.98510  Biso   1.000  H
  H269     1.0000 0.13760  0.21460  0.48510  Biso   1.000  H
  H270     1.0000 0.36240  0.78540  0.98510  Biso   1.000  H
  H271     1.0000 0.63760  0.28540  0.51490  Biso   1.000  H
  H272     1.0000 0.86240  0.71460  0.01490  Biso   1.000  H
  H273     1.0000 0.01380  0.76300  0.50760  Biso   1.000  H
  H274     1.0000 0.48620  0.23700  0.00760  Biso   1.000  H
  H275     1.0000 0.51380  0.73700  0.49240  Biso   1.000  H
  H276     1.0000 0.98620  0.26300  0.99240  Biso   1.000  H
  H277     1.0000 0.98620  0.23700  0.49240  Biso   1.000  H
  H278     1.0000 0.51380  0.76300  0.99240  Biso   1.000  H
  H279     1.0000 0.48620  0.26300  0.50760  Biso   1.000  H
  H280     1.0000 0.01380  0.73700  0.00760  Biso   1.000  H
  H281     1.0000 0.92100  0.74830  0.54440  Biso   1.000  H
  H282     1.0000 0.57900  0.25170  0.04440  Biso   1.000  H
  H283     1.0000 0.42100  0.75170  0.45560  Biso   1.000  H
  H284     1.0000 0.07900  0.24830  0.95560  Biso   1.000  H
  H285     1.0000 0.07900  0.25170  0.45560  Biso   1.000  H
  H286     1.0000 0.42100  0.74830  0.95560  Biso   1.000  H
  H287     1.0000 0.57900  0.24830  0.54440  Biso   1.000  H
  H288     1.0000 0.92100  0.75170  0.04440  Biso   1.000  H
  F1       1.0000 0.10440  0.75533  0.44685  Biso   1.000  F
  F2       1.0000 0.39560  0.24467  0.94685  Biso   1.000  F
  F3       1.0000 0.60440  0.74467  0.55315  Biso   1.000  F
  F4       1.0000 0.89560  0.25533  0.05315  Biso   1.000  F
  F5       1.0000 0.89560  0.24467  0.55315  Biso   1.000  F
  F6       1.0000 0.60440  0.75533  0.05315  Biso   1.000  F
  F7       1.0000 0.39560  0.25533  0.44685  Biso   1.000  F
  F8       1.0000 0.10440  0.74467  0.94685  Biso   1.000  F
  B1       1.0000 0.09360  0.76240  0.40850  Biso   1.000  B
  B2       1.0000 0.40640  0.23760  0.90850  Biso   1.000  B
  B3       1.0000 0.59360  0.73760  0.59150  Biso   1.000  B
  B4       1.0000 0.90640  0.26240  0.09150  Biso   1.000  B
  B5       1.0000 0.90640  0.23760  0.59150  Biso   1.000  B
  B6       1.0000 0.59360  0.76240  0.09150  Biso   1.000  B
  B7       1.0000 0.40640  0.26240  0.40850  Biso   1.000  B
  B8       1.0000 0.09360  0.73760  0.90850  Biso   1.000  B
  F9       1.0000 0.12130  0.72688  0.38578  Biso   1.000  F
  F10      1.0000 0.37870  0.27312  0.88578  Biso   1.000  F
  F11      1.0000 0.62130  0.77312  0.61422  Biso   1.000  F
  F12      1.0000 0.87870  0.22688  0.11422  Biso   1.000  F
  F13      1.0000 0.87870  0.27312  0.61422  Biso   1.000  F
  F14      1.0000 0.62130  0.72688  0.11422  Biso   1.000  F
  F15      1.0000 0.37870  0.22688  0.38578  Biso   1.000  F
  F16      1.0000 0.12130  0.77312  0.88578  Biso   1.000  F
  F17      1.0000 0.23310  0.78830  0.40170  Biso   1.000  F
  F18      1.0000 0.26690  0.21170  0.90170  Biso   1.000  F
  F19      1.0000 0.73310  0.71170  0.59830  Biso   1.000  F
  F20      1.0000 0.76690  0.28830  0.09830  Biso   1.000  F
  F21      1.0000 0.76690  0.21170  0.59830  Biso   1.000  F
  F22      1.0000 0.73310  0.78830  0.09830  Biso   1.000  F
  F23      1.0000 0.26690  0.28830  0.40170  Biso   1.000  F
  F24      1.0000 0.23310  0.71170  0.90170  Biso   1.000  F
  F25      1.0000 0.99600  0.78990  0.39380  Biso   1.000  F
  F26      1.0000 0.50400  0.21010  0.89380  Biso   1.000  F
  F27      1.0000 0.49600  0.71010  0.60620  Biso   1.000  F
  F28      1.0000 0.00400  0.28990  0.10620  Biso   1.000  F
  F29      1.0000 0.00400  0.21010  0.60620  Biso   1.000  F
  F30      1.0000 0.49600  0.78990  0.10620  Biso   1.000  F
  F31      1.0000 0.50400  0.28990  0.39380  Biso   1.000  F
  F32      1.0000 0.99600  0.71010  0.89380  Biso   1.000  F
  F33      1.0000 0.13400  0.80080  0.39650  Biso   1.000  F
  F34      1.0000 0.36600  0.19920  0.89650  Biso   1.000  F
  F35      1.0000 0.63400  0.69920  0.60350  Biso   1.000  F
  F36      1.0000 0.86600  0.30080  0.10350  Biso   1.000  F
  F37      1.0000 0.86600  0.19920  0.60350  Biso   1.000  F
  F38      1.0000 0.63400  0.80080  0.10350  Biso   1.000  F
  F39      1.0000 0.36600  0.30080  0.39650  Biso   1.000  F
  F40      1.0000 0.13400  0.69920  0.89650  Biso   1.000  F
  F41      1.0000 0.93380  0.76470  0.40860  Biso   1.000  F
  F42      1.0000 0.56620  0.23530  0.90860  Biso   1.000  F
  F43      1.0000 0.43380  0.73530  0.59140  Biso   1.000  F
  F44      1.0000 0.06620  0.26470  0.09140  Biso   1.000  F
  F45      1.0000 0.06620  0.23530  0.59140  Biso   1.000  F
  F46      1.0000 0.43380  0.76470  0.09140  Biso   1.000  F
  F47      1.0000 0.56620  0.26470  0.40860  Biso   1.000  F
  F48      1.0000 0.93380  0.73530  0.90860  Biso   1.000  F
  N33      1.0000 0.58390  0.08430  0.26440  Biso   1.000  N
  N34      1.0000 0.91610  0.91570  0.76440  Biso   1.000  N
  N35      1.0000 0.08390  0.41570  0.73560  Biso   1.000  N
  N36      1.0000 0.41610  0.58430  0.23560  Biso   1.000  N
  N37      1.0000 0.41610  0.91570  0.73560  Biso   1.000  N
  N38      1.0000 0.08390  0.08430  0.23560  Biso   1.000  N
  N39      1.0000 0.91610  0.58430  0.26440  Biso   1.000  N
  N40      1.0000 0.58390  0.41570  0.76440  Biso   1.000  N
  C353     1.0000 0.51040  0.11030  0.25300  Biso   1.000  C
  C354     1.0000 0.98960  0.88970  0.75300  Biso   1.000  C
  C355     1.0000 0.01040  0.38970  0.74700  Biso   1.000  C
  C356     1.0000 0.48960  0.61030  0.24700  Biso   1.000  C
  C357     1.0000 0.48960  0.88970  0.74700  Biso   1.000  C
  C358     1.0000 0.01040  0.11030  0.24700  Biso   1.000  C
  C359     1.0000 0.98960  0.61030  0.25300  Biso   1.000  C
  C360     1.0000 0.51040  0.38970  0.75300  Biso   1.000  C
  C361     1.0000 0.42610  0.14390  0.23580  Biso   1.000  C
  C362     1.0000 0.07390  0.85610  0.73580  Biso   1.000  C
  C363     1.0000 0.92610  0.35610  0.76420  Biso   1.000  C
  C364     1.0000 0.57390  0.64390  0.26420  Biso   1.000  C
  C365     1.0000 0.57390  0.85610  0.76420  Biso   1.000  C
  C366     1.0000 0.92610  0.14390  0.26420  Biso   1.000  C
  C367     1.0000 0.07390  0.64390  0.23580  Biso   1.000  C
  C368     1.0000 0.42610  0.35610  0.73580  Biso   1.000  C
  H289     1.0000 0.46030  0.17360  0.24380  Biso   1.000  H
  H290     1.0000 0.03970  0.82640  0.74380  Biso   1.000  H
  H291     1.0000 0.96030  0.32640  0.75620  Biso   1.000  H
  H292     1.0000 0.53970  0.67360  0.25620  Biso   1.000  H
  H293     1.0000 0.53970  0.82640  0.75620  Biso   1.000  H
  H294     1.0000 0.96030  0.17360  0.25620  Biso   1.000  H
  H295     1.0000 0.03970  0.67360  0.24380  Biso   1.000  H
  H296     1.0000 0.46030  0.32640  0.74380  Biso   1.000  H
  H297     1.0000 0.32770  0.14020  0.24410  Biso   1.000  H
  H298     1.0000 0.17230  0.85980  0.74410  Biso   1.000  H
  H299     1.0000 0.82770  0.35980  0.75590  Biso   1.000  H
  H300     1.0000 0.67230  0.64020  0.25590  Biso   1.000  H
  H301     1.0000 0.67230  0.85980  0.75590  Biso   1.000  H
  H302     1.0000 0.82770  0.14020  0.25590  Biso   1.000  H
  H303     1.0000 0.17230  0.64020  0.24410  Biso   1.000  H
  H304     1.0000 0.32770  0.35980  0.74410  Biso   1.000  H
  H305     1.0000 0.43160  0.14140  0.20740  Biso   1.000  H
  H306     1.0000 0.06840  0.85860  0.70740  Biso   1.000  H
  H307     1.0000 0.93160  0.35860  0.79260  Biso   1.000  H
  H308     1.0000 0.56840  0.64140  0.29260  Biso   1.000  H
  H309     1.0000 0.56840  0.85860  0.79260  Biso   1.000  H
  H310     1.0000 0.93160  0.14140  0.29260  Biso   1.000  H
  H311     1.0000 0.06840  0.64140  0.20740  Biso   1.000  H
  H312     1.0000 0.43160  0.35860  0.70740  Biso   1.000  H
  N41      1.0000 0.63460  0.84360  0.46850  Biso   1.000  N
  N42      1.0000 0.86540  0.15640  0.96850  Biso   1.000  N
  N43      1.0000 0.13460  0.65640  0.53150  Biso   1.000  N
  N44      1.0000 0.36540  0.34360  0.03150  Biso   1.000  N
  N45      1.0000 0.36540  0.15640  0.53150  Biso   1.000  N
  N46      1.0000 0.13460  0.84360  0.03150  Biso   1.000  N
  N47      1.0000 0.86540  0.34360  0.46850  Biso   1.000  N
  N48      1.0000 0.63460  0.65640  0.96850  Biso   1.000  N
  C369     1.0000 0.66000  0.85240  0.50000  Biso   1.000  C
  C370     1.0000 0.84000  0.14760  0.00000  Biso   1.000  C
  C371     1.0000 0.16000  0.64760  0.50000  Biso   1.000  C
  C372     1.0000 0.34000  0.35240  0.00000  Biso   1.000  C
  C373     1.0000 0.34000  0.14760  0.50000  Biso   1.000  C
  C374     1.0000 0.16000  0.85240  0.00000  Biso   1.000  C
  C375     1.0000 0.84000  0.35240  0.50000  Biso   1.000  C
  C376     1.0000 0.66000  0.64760  0.00000  Biso   1.000  C
  C377     1.0000 0.67900  0.86510  0.54100  Biso   1.000  C
  C378     1.0000 0.82100  0.13490  0.04100  Biso   1.000  C
  C379     1.0000 0.17900  0.63490  0.45900  Biso   1.000  C
  C380     1.0000 0.32100  0.36510  0.95900  Biso   1.000  C
  C381     1.0000 0.32100  0.13490  0.45900  Biso   1.000  C
  C382     1.0000 0.17900  0.86510  0.95900  Biso   1.000  C
  C383     1.0000 0.82100  0.36510  0.54100  Biso   1.000  C
  C384     1.0000 0.67900  0.63490  0.04100  Biso   1.000  C
  H313     1.0000 0.72860  0.89400  0.54250  Biso   1.000  H
  H314     1.0000 0.77140  0.10600  0.04250  Biso   1.000  H
  H315     1.0000 0.22860  0.60600  0.45750  Biso   1.000  H
  H316     1.0000 0.27140  0.39400  0.95750  Biso   1.000  H
  H317     1.0000 0.27140  0.10600  0.45750  Biso   1.000  H
  H318     1.0000 0.22860  0.89400  0.95750  Biso   1.000  H
  H319     1.0000 0.77140  0.39400  0.54250  Biso   1.000  H
  H320     1.0000 0.72860  0.60600  0.04250  Biso   1.000  H
  H321     1.0000 0.73550  0.84200  0.55420  Biso   1.000  H
  H322     1.0000 0.76450  0.15800  0.05420  Biso   1.000  H
  H323     1.0000 0.23550  0.65800  0.44580  Biso   1.000  H
  H324     1.0000 0.26450  0.34200  0.94580  Biso   1.000  H
  H325     1.0000 0.26450  0.15800  0.44580  Biso   1.000  H
  H326     1.0000 0.23550  0.84200  0.94580  Biso   1.000  H
  H327     1.0000 0.76450  0.34200  0.55420  Biso   1.000  H
  H328     1.0000 0.73550  0.65800  0.05420  Biso   1.000  H
  H329     1.0000 0.58670  0.86760  0.55350  Biso   1.000  H
  H330     1.0000 0.91330  0.13240  0.05350  Biso   1.000  H
  H331     1.0000 0.08670  0.63240  0.44650  Biso   1.000  H
  H332     1.0000 0.41330  0.36760  0.94650  Biso   1.000  H
  H333     1.0000 0.41330  0.13240  0.44650  Biso   1.000  H
  H334     1.0000 0.08670  0.86760  0.94650  Biso   1.000  H
  H335     1.0000 0.91330  0.36760  0.55350  Biso   1.000  H
  H336     1.0000 0.58670  0.63240  0.05350  Biso   1.000  H
  O73      1.0000 0.71250  0.80340  0.39690  Biso   1.000  O
  O74      1.0000 0.78750  0.19660  0.89690  Biso   1.000  O
  O75      1.0000 0.21250  0.69660  0.60310  Biso   1.000  O
  O76      1.0000 0.28750  0.30340  0.10310  Biso   1.000  O
  O77      1.0000 0.28750  0.19660  0.60310  Biso   1.000  O
  O78      1.0000 0.21250  0.80340  0.10310  Biso   1.000  O
  O79      1.0000 0.78750  0.30340  0.39690  Biso   1.000  O
  O80      1.0000 0.71250  0.69660  0.89690  Biso   1.000  O
  O81      1.0000 0.67100  0.04220  0.11140  Biso   1.000  O
  O82      1.0000 0.82900  0.95780  0.61140  Biso   1.000  O
  O83      1.0000 0.17100  0.45780  0.88860  Biso   1.000  O
  O84      1.0000 0.32900  0.54220  0.38860  Biso   1.000  O
  O85      1.0000 0.32900  0.95780  0.88860  Biso   1.000  O
  O86      1.0000 0.17100  0.04220  0.38860  Biso   1.000  O
  O87      1.0000 0.82900  0.54220  0.11140  Biso   1.000  O
  O88      1.0000 0.67100  0.45780  0.61140  Biso   1.000  O
  O89      1.0000 0.55720  0.02090  0.09160  Biso   1.000  O
  O90      1.0000 0.94280  0.97910  0.59160  Biso   1.000  O
  O91      1.0000 0.05720  0.47910  0.90840  Biso   1.000  O
  O92      1.0000 0.44280  0.52090  0.40840  Biso   1.000  O
  O93      1.0000 0.44280  0.97910  0.90840  Biso   1.000  O
  O94      1.0000 0.05720  0.02090  0.40840  Biso   1.000  O
  O95      1.0000 0.94280  0.52090  0.09160  Biso   1.000  O
  O96      1.0000 0.55720  0.47910  0.59160  Biso   1.000  O
