data_image0
_cell_length_a       19.7743
_cell_length_b       22.3475
_cell_length_c       35.5077
_cell_angle_alpha    90
_cell_angle_beta     90
_cell_angle_gamma    90

_symmetry_space_group_name_H-M    "P 1"
_symmetry_int_tables_number       1

loop_
  _symmetry_equiv_pos_as_xyz
  'x, y, z'

loop_
  _atom_site_label
  _atom_site_occupancy
  _atom_site_fract_x
  _atom_site_fract_y
  _atom_site_fract_z
  _atom_site_thermal_displace_type
  _atom_site_B_iso_or_equiv
  _atom_site_type_symbol
  Cu1      1.0000 0.54114  0.69353  0.24837  Biso   1.000  Cu
  Cu2      1.0000 0.95886  0.30647  0.74837  Biso   1.000  Cu
  Cu3      1.0000 0.45886  0.19353  0.25163  Biso   1.000  Cu
  Cu4      1.0000 0.04114  0.80647  0.75163  Biso   1.000  Cu
  P1       1.0000 0.57681  0.79145  0.24972  Biso   1.000  P
  P2       1.0000 0.92319  0.20855  0.74972  Biso   1.000  P
  P3       1.0000 0.42319  0.29145  0.25028  Biso   1.000  P
  P4       1.0000 0.07681  0.70855  0.75028  Biso   1.000  P
  P5       1.0000 0.46204  0.68541  0.19605  Biso   1.000  P
  P6       1.0000 0.03796  0.31459  0.69605  Biso   1.000  P
  P7       1.0000 0.53796  0.18541  0.30395  Biso   1.000  P
  P8       1.0000 0.96204  0.81459  0.80395  Biso   1.000  P
  P9       1.0000 0.61590  0.61242  0.23696  Biso   1.000  P
  P10      1.0000 0.88410  0.38758  0.73696  Biso   1.000  P
  P11      1.0000 0.38410  0.11242  0.26304  Biso   1.000  P
  P12      1.0000 0.11590  0.88758  0.76304  Biso   1.000  P
  P13      1.0000 0.46777  0.66315  0.29895  Biso   1.000  P
  P14      1.0000 0.03223  0.33685  0.79895  Biso   1.000  P
  P15      1.0000 0.53223  0.16315  0.20105  Biso   1.000  P
  P16      1.0000 0.96777  0.83685  0.70105  Biso   1.000  P
  P17      1.0000 0.53088  0.86103  0.28063  Biso   1.000  P
  P18      1.0000 0.96912  0.13897  0.78063  Biso   1.000  P
  P19      1.0000 0.46912  0.36103  0.21937  Biso   1.000  P
  P20      1.0000 0.03088  0.63897  0.71937  Biso   1.000  P
  P21      1.0000 0.65808  0.82092  0.21704  Biso   1.000  P
  P22      1.0000 0.84192  0.17908  0.71704  Biso   1.000  P
  P23      1.0000 0.34192  0.32092  0.28296  Biso   1.000  P
  P24      1.0000 0.15808  0.67908  0.78296  Biso   1.000  P
  Fe1      1.0000 0.65106  0.85590  0.28056  Biso   1.000  Fe
  Fe2      1.0000 0.84894  0.14410  0.78056  Biso   1.000  Fe
  Fe3      1.0000 0.34894  0.35590  0.21944  Biso   1.000  Fe
  Fe4      1.0000 0.15106  0.64410  0.71944  Biso   1.000  Fe
  Fe5      1.0000 0.43103  0.66380  0.13409  Biso   1.000  Fe
  Fe6      1.0000 0.06897  0.33620  0.63409  Biso   1.000  Fe
  Fe7      1.0000 0.56897  0.16380  0.36591  Biso   1.000  Fe
  Fe8      1.0000 0.93103  0.83620  0.86591  Biso   1.000  Fe
  P25      1.0000 0.41279  0.60304  0.18731  Biso   1.000  P
  P26      1.0000 0.08721  0.39696  0.68731  Biso   1.000  P
  P27      1.0000 0.58721  0.10304  0.31269  Biso   1.000  P
  P28      1.0000 0.91279  0.89696  0.81269  Biso   1.000  P
  P29      1.0000 0.40732  0.75303  0.16836  Biso   1.000  P
  P30      1.0000 0.09268  0.24697  0.66836  Biso   1.000  P
  P31      1.0000 0.59268  0.25303  0.33164  Biso   1.000  P
  P32      1.0000 0.90732  0.74697  0.83164  Biso   1.000  P
  P33      1.0000 0.56415  0.53354  0.22218  Biso   1.000  P
  P34      1.0000 0.93585  0.46646  0.72218  Biso   1.000  P
  P35      1.0000 0.43585  0.03354  0.27782  Biso   1.000  P
  P36      1.0000 0.06415  0.96646  0.77782  Biso   1.000  P
  P37      1.0000 0.71702  0.60386  0.22022  Biso   1.000  P
  P38      1.0000 0.78298  0.39614  0.72022  Biso   1.000  P
  P39      1.0000 0.28298  0.10386  0.27978  Biso   1.000  P
  P40      1.0000 0.21702  0.89614  0.77978  Biso   1.000  P
  Fe9      1.0000 0.66740  0.52082  0.25282  Biso   1.000  Fe
  Fe10     1.0000 0.83260  0.47918  0.75282  Biso   1.000  Fe
  Fe11     1.0000 0.33260  0.02082  0.24718  Biso   1.000  Fe
  Fe12     1.0000 0.16740  0.97918  0.74718  Biso   1.000  Fe
  Fe13     1.0000 0.36228  0.63829  0.32528  Biso   1.000  Fe
  Fe14     1.0000 0.13772  0.36171  0.82528  Biso   1.000  Fe
  Fe15     1.0000 0.63772  0.13829  0.17472  Biso   1.000  Fe
  Fe16     1.0000 0.86228  0.86171  0.67472  Biso   1.000  Fe
  P41      1.0000 0.43114  0.57676  0.28877  Biso   1.000  P
  P42      1.0000 0.06886  0.42324  0.78877  Biso   1.000  P
  P43      1.0000 0.56886  0.07676  0.21123  Biso   1.000  P
  P44      1.0000 0.93114  0.92324  0.71123  Biso   1.000  P
  P45      1.0000 0.45654  0.68173  0.35703  Biso   1.000  P
  P46      1.0000 0.04346  0.31827  0.85703  Biso   1.000  P
  P47      1.0000 0.54346  0.18173  0.14297  Biso   1.000  P
  P48      1.0000 0.95654  0.81827  0.64297  Biso   1.000  P
  P49      1.0000 0.58536  0.93685  0.26236  Biso   1.000  P
  P50      1.0000 0.91464  0.06315  0.76236  Biso   1.000  P
  P51      1.0000 0.41464  0.43685  0.23764  Biso   1.000  P
  P52      1.0000 0.08536  0.56315  0.73764  Biso   1.000  P
  P53      1.0000 0.66287  0.91438  0.22460  Biso   1.000  P
  P54      1.0000 0.83713  0.08562  0.72460  Biso   1.000  P
  P55      1.0000 0.33713  0.41438  0.27540  Biso   1.000  P
  P56      1.0000 0.16287  0.58562  0.77540  Biso   1.000  P
  C1       1.0000 0.67410  0.87980  0.33630  Biso   1.000  C
  C2       1.0000 0.82590  0.12020  0.83630  Biso   1.000  C
  C3       1.0000 0.32590  0.37980  0.16370  Biso   1.000  C
  C4       1.0000 0.17410  0.62020  0.66370  Biso   1.000  C
  C5       1.0000 0.72860  0.89520  0.31240  Biso   1.000  C
  C6       1.0000 0.77140  0.10480  0.81240  Biso   1.000  C
  C7       1.0000 0.27140  0.39520  0.18760  Biso   1.000  C
  C8       1.0000 0.22860  0.60480  0.68760  Biso   1.000  C
  C9       1.0000 0.75230  0.84240  0.29440  Biso   1.000  C
  C10      1.0000 0.74770  0.15760  0.79440  Biso   1.000  C
  C11      1.0000 0.24770  0.34240  0.20560  Biso   1.000  C
  C12      1.0000 0.25230  0.65760  0.70560  Biso   1.000  C
  C13      1.0000 0.71280  0.79460  0.30870  Biso   1.000  C
  C14      1.0000 0.78720  0.20540  0.80870  Biso   1.000  C
  C15      1.0000 0.28720  0.29460  0.19130  Biso   1.000  C
  C16      1.0000 0.21280  0.70540  0.69130  Biso   1.000  C
  C17      1.0000 0.66420  0.81630  0.33390  Biso   1.000  C
  C18      1.0000 0.83580  0.18370  0.83390  Biso   1.000  C
  C19      1.0000 0.33580  0.31630  0.16610  Biso   1.000  C
  C20      1.0000 0.16420  0.68370  0.66610  Biso   1.000  C
  C21      1.0000 0.44380  0.70150  0.07980  Biso   1.000  C
  C22      1.0000 0.05620  0.29850  0.57980  Biso   1.000  C
  C23      1.0000 0.55620  0.20150  0.42020  Biso   1.000  C
  C24      1.0000 0.94380  0.79850  0.92020  Biso   1.000  C
  C25      1.0000 0.47650  0.60460  0.09660  Biso   1.000  C
  C26      1.0000 0.02350  0.39540  0.59660  Biso   1.000  C
  C27      1.0000 0.52350  0.10460  0.40340  Biso   1.000  C
  C28      1.0000 0.97650  0.89540  0.90340  Biso   1.000  C
  C29      1.0000 0.42580  0.63980  0.07690  Biso   1.000  C
  C30      1.0000 0.07420  0.36020  0.57690  Biso   1.000  C
  C31      1.0000 0.57420  0.13980  0.42310  Biso   1.000  C
  C32      1.0000 0.92580  0.86020  0.92310  Biso   1.000  C
  C33      1.0000 0.52560  0.64410  0.10960  Biso   1.000  C
  C34      1.0000 0.97440  0.35590  0.60960  Biso   1.000  C
  C35      1.0000 0.47440  0.14410  0.39040  Biso   1.000  C
  C36      1.0000 0.02560  0.85590  0.89040  Biso   1.000  C
  C37      1.0000 0.50600  0.70200  0.09970  Biso   1.000  C
  C38      1.0000 0.99400  0.29800  0.59970  Biso   1.000  C
  C39      1.0000 0.49400  0.20200  0.40030  Biso   1.000  C
  C40      1.0000 0.00600  0.79800  0.90030  Biso   1.000  C
  P57      1.0000 0.32778  0.61742  0.15281  Biso   1.000  P
  P58      1.0000 0.17222  0.38258  0.65281  Biso   1.000  P
  P59      1.0000 0.67222  0.11742  0.34719  Biso   1.000  P
  P60      1.0000 0.82778  0.88258  0.84719  Biso   1.000  P
  P61      1.0000 0.32361  0.71059  0.14243  Biso   1.000  P
  P62      1.0000 0.17639  0.28941  0.64243  Biso   1.000  P
  P63      1.0000 0.67639  0.21059  0.35757  Biso   1.000  P
  P64      1.0000 0.82361  0.78941  0.85757  Biso   1.000  P
  Cu5      1.0000 0.44882  0.53239  0.23004  Biso   1.000  Cu
  Cu6      1.0000 0.05118  0.46761  0.73004  Biso   1.000  Cu
  Cu7      1.0000 0.55118  0.03239  0.26996  Biso   1.000  Cu
  Cu8      1.0000 0.94882  0.96761  0.76996  Biso   1.000  Cu
  P65      1.0000 0.63120  0.47430  0.19556  Biso   1.000  P
  P66      1.0000 0.86880  0.52570  0.69556  Biso   1.000  P
  P67      1.0000 0.36880  0.97430  0.30444  Biso   1.000  P
  P68      1.0000 0.13120  0.02570  0.80444  Biso   1.000  P
  P69      1.0000 0.72534  0.51912  0.19425  Biso   1.000  P
  P70      1.0000 0.77466  0.48088  0.69425  Biso   1.000  P
  P71      1.0000 0.27466  0.01912  0.30575  Biso   1.000  P
  P72      1.0000 0.22534  0.98088  0.80575  Biso   1.000  P
  C41      1.0000 0.73250  0.52630  0.29890  Biso   1.000  C
  C42      1.0000 0.76750  0.47370  0.79890  Biso   1.000  C
  C43      1.0000 0.26750  0.02630  0.20110  Biso   1.000  C
  C44      1.0000 0.23250  0.97370  0.70110  Biso   1.000  C
  C45      1.0000 0.74350  0.47340  0.28000  Biso   1.000  C
  C46      1.0000 0.75650  0.52660  0.78000  Biso   1.000  C
  C47      1.0000 0.25650  0.97340  0.22000  Biso   1.000  C
  C48      1.0000 0.24350  0.02660  0.72000  Biso   1.000  C
  C49      1.0000 0.68230  0.43950  0.28050  Biso   1.000  C
  C50      1.0000 0.81770  0.56050  0.78050  Biso   1.000  C
  C51      1.0000 0.31770  0.93950  0.21950  Biso   1.000  C
  C52      1.0000 0.18230  0.06050  0.71950  Biso   1.000  C
  C53      1.0000 0.63410  0.47200  0.29940  Biso   1.000  C
  C54      1.0000 0.86590  0.52800  0.79940  Biso   1.000  C
  C55      1.0000 0.36590  0.97200  0.20060  Biso   1.000  C
  C56      1.0000 0.13410  0.02800  0.70060  Biso   1.000  C
  C57      1.0000 0.66360  0.52650  0.31240  Biso   1.000  C
  C58      1.0000 0.83640  0.47350  0.81240  Biso   1.000  C
  C59      1.0000 0.33640  0.02650  0.18760  Biso   1.000  C
  C60      1.0000 0.16360  0.97350  0.68760  Biso   1.000  C
  C61      1.0000 0.26960  0.62580  0.29750  Biso   1.000  C
  C62      1.0000 0.23040  0.37420  0.79750  Biso   1.000  C
  C63      1.0000 0.73040  0.12580  0.20250  Biso   1.000  C
  C64      1.0000 0.76960  0.87420  0.70250  Biso   1.000  C
  C65      1.0000 0.29370  0.68430  0.28990  Biso   1.000  C
  C66      1.0000 0.20630  0.31570  0.78990  Biso   1.000  C
  C67      1.0000 0.70630  0.18430  0.21010  Biso   1.000  C
  C68      1.0000 0.79370  0.81570  0.71010  Biso   1.000  C
  C69      1.0000 0.30070  0.71560  0.32480  Biso   1.000  C
  C70      1.0000 0.19930  0.28440  0.82480  Biso   1.000  C
  C71      1.0000 0.69930  0.21560  0.17520  Biso   1.000  C
  C72      1.0000 0.80070  0.78440  0.67520  Biso   1.000  C
  C73      1.0000 0.27960  0.67570  0.35440  Biso   1.000  C
  C74      1.0000 0.22040  0.32430  0.85440  Biso   1.000  C
  C75      1.0000 0.72040  0.17570  0.14560  Biso   1.000  C
  C76      1.0000 0.77960  0.82430  0.64560  Biso   1.000  C
  C77      1.0000 0.26080  0.62080  0.33760  Biso   1.000  C
  C78      1.0000 0.23920  0.37920  0.83760  Biso   1.000  C
  C79      1.0000 0.73920  0.12080  0.16240  Biso   1.000  C
  C80      1.0000 0.76080  0.87920  0.66240  Biso   1.000  C
  P73      1.0000 0.39774  0.53825  0.33960  Biso   1.000  P
  P74      1.0000 0.10226  0.46175  0.83960  Biso   1.000  P
  P75      1.0000 0.60226  0.03825  0.16040  Biso   1.000  P
  P76      1.0000 0.89774  0.96175  0.66040  Biso   1.000  P
  P77      1.0000 0.41456  0.60376  0.38162  Biso   1.000  P
  P78      1.0000 0.08544  0.39624  0.88162  Biso   1.000  P
  P79      1.0000 0.58544  0.10376  0.11838  Biso   1.000  P
  P80      1.0000 0.91456  0.89624  0.61838  Biso   1.000  P
  C81      1.0000 0.63700  0.92110  0.36110  Biso   1.000  C
  C82      1.0000 0.86300  0.07890  0.86110  Biso   1.000  C
  C83      1.0000 0.36300  0.42110  0.13890  Biso   1.000  C
  C84      1.0000 0.13700  0.57890  0.63890  Biso   1.000  C
  C85      1.0000 0.75870  0.95760  0.30740  Biso   1.000  C
  C86      1.0000 0.74130  0.04240  0.80740  Biso   1.000  C
  C87      1.0000 0.24130  0.45760  0.19260  Biso   1.000  C
  C88      1.0000 0.25870  0.54240  0.69260  Biso   1.000  C
  C89      1.0000 0.81060  0.83630  0.26790  Biso   1.000  C
  C90      1.0000 0.68940  0.16370  0.76790  Biso   1.000  C
  C91      1.0000 0.18940  0.33630  0.23210  Biso   1.000  C
  C92      1.0000 0.31060  0.66370  0.73210  Biso   1.000  C
  C93      1.0000 0.72660  0.72960  0.29800  Biso   1.000  C
  C94      1.0000 0.77340  0.27040  0.79800  Biso   1.000  C
  C95      1.0000 0.27340  0.22960  0.20200  Biso   1.000  C
  C96      1.0000 0.22660  0.77040  0.70200  Biso   1.000  C
  C97      1.0000 0.61500  0.77970  0.35550  Biso   1.000  C
  C98      1.0000 0.88500  0.22030  0.85550  Biso   1.000  C
  C99      1.0000 0.38500  0.27970  0.14450  Biso   1.000  C
  C100     1.0000 0.11500  0.72030  0.64450  Biso   1.000  C
  C101     1.0000 0.40720  0.75290  0.06300  Biso   1.000  C
  C102     1.0000 0.09280  0.24710  0.56300  Biso   1.000  C
  C103     1.0000 0.59280  0.25290  0.43700  Biso   1.000  C
  C104     1.0000 0.90720  0.74710  0.93700  Biso   1.000  C
  C105     1.0000 0.47830  0.53740  0.09720  Biso   1.000  C
  C106     1.0000 0.02170  0.46260  0.59720  Biso   1.000  C
  C107     1.0000 0.52170  0.03740  0.40280  Biso   1.000  C
  C108     1.0000 0.97830  0.96260  0.90280  Biso   1.000  C
  C109     1.0000 0.36690  0.61340  0.05560  Biso   1.000  C
  C110     1.0000 0.13310  0.38660  0.55560  Biso   1.000  C
  C111     1.0000 0.63310  0.11340  0.44440  Biso   1.000  C
  C112     1.0000 0.86690  0.88660  0.94440  Biso   1.000  C
  C113     1.0000 0.59080  0.62840  0.12870  Biso   1.000  C
  C114     1.0000 0.90920  0.37160  0.62870  Biso   1.000  C
  C115     1.0000 0.40920  0.12840  0.37130  Biso   1.000  C
  C116     1.0000 0.09080  0.87160  0.87130  Biso   1.000  C
  C117     1.0000 0.54550  0.75940  0.10670  Biso   1.000  C
  C118     1.0000 0.95450  0.24060  0.60670  Biso   1.000  C
  C119     1.0000 0.45450  0.25940  0.39330  Biso   1.000  C
  C120     1.0000 0.04550  0.74060  0.89330  Biso   1.000  C
  C121     1.0000 0.78520  0.57200  0.30840  Biso   1.000  C
  C122     1.0000 0.71480  0.42800  0.80840  Biso   1.000  C
  C123     1.0000 0.21480  0.07200  0.19160  Biso   1.000  C
  C124     1.0000 0.28520  0.92800  0.69160  Biso   1.000  C
  C125     1.0000 0.81140  0.45160  0.26530  Biso   1.000  C
  C126     1.0000 0.68860  0.54840  0.76530  Biso   1.000  C
  C127     1.0000 0.18860  0.95160  0.23470  Biso   1.000  C
  C128     1.0000 0.31140  0.04840  0.73470  Biso   1.000  C
  C129     1.0000 0.67570  0.37590  0.26450  Biso   1.000  C
  C130     1.0000 0.82430  0.62410  0.76450  Biso   1.000  C
  C131     1.0000 0.32430  0.87590  0.23550  Biso   1.000  C
  C132     1.0000 0.17570  0.12410  0.73550  Biso   1.000  C
  C133     1.0000 0.56380  0.45060  0.30950  Biso   1.000  C
  C134     1.0000 0.93620  0.54940  0.80950  Biso   1.000  C
  C135     1.0000 0.43620  0.95060  0.19050  Biso   1.000  C
  C136     1.0000 0.06380  0.04940  0.69050  Biso   1.000  C
  C137     1.0000 0.63070  0.57300  0.33620  Biso   1.000  C
  C138     1.0000 0.86930  0.42700  0.83620  Biso   1.000  C
  C139     1.0000 0.36930  0.07300  0.16380  Biso   1.000  C
  C140     1.0000 0.13070  0.92700  0.66380  Biso   1.000  C
  C141     1.0000 0.25090  0.58050  0.26940  Biso   1.000  C
  C142     1.0000 0.24910  0.41950  0.76940  Biso   1.000  C
  C143     1.0000 0.74910  0.08050  0.23060  Biso   1.000  C
  C144     1.0000 0.75090  0.91950  0.73060  Biso   1.000  C
  C145     1.0000 0.30360  0.71090  0.25240  Biso   1.000  C
  C146     1.0000 0.19640  0.28910  0.75240  Biso   1.000  C
  C147     1.0000 0.69640  0.21090  0.24760  Biso   1.000  C
  C148     1.0000 0.80360  0.78910  0.74760  Biso   1.000  C
  C149     1.0000 0.32050  0.77970  0.32980  Biso   1.000  C
  C150     1.0000 0.17950  0.22030  0.82980  Biso   1.000  C
  C151     1.0000 0.67950  0.27970  0.17020  Biso   1.000  C
  C152     1.0000 0.82050  0.72030  0.67020  Biso   1.000  C
  C153     1.0000 0.27430  0.69420  0.39490  Biso   1.000  C
  C154     1.0000 0.22570  0.30580  0.89490  Biso   1.000  C
  C155     1.0000 0.72570  0.19420  0.10510  Biso   1.000  C
  C156     1.0000 0.77430  0.80580  0.60510  Biso   1.000  C
  C157     1.0000 0.23230  0.56670  0.35820  Biso   1.000  C
  C158     1.0000 0.26770  0.43330  0.85820  Biso   1.000  C
  C159     1.0000 0.76770  0.06670  0.14180  Biso   1.000  C
  C160     1.0000 0.73230  0.93330  0.64180  Biso   1.000  C
  H1       1.0000 0.63230  0.95920  0.34890  Biso   1.000  H
  H2       1.0000 0.86770  0.04080  0.84890  Biso   1.000  H
  H3       1.0000 0.36770  0.45920  0.15110  Biso   1.000  H
  H4       1.0000 0.13230  0.54080  0.65110  Biso   1.000  H
  H5       1.0000 0.66140  0.92600  0.38420  Biso   1.000  H
  H6       1.0000 0.83860  0.07400  0.88420  Biso   1.000  H
  H7       1.0000 0.33860  0.42600  0.11580  Biso   1.000  H
  H8       1.0000 0.16140  0.57400  0.61580  Biso   1.000  H
  H9       1.0000 0.59300  0.90490  0.36640  Biso   1.000  H
  H10      1.0000 0.90700  0.09510  0.86640  Biso   1.000  H
  H11      1.0000 0.40700  0.40490  0.13360  Biso   1.000  H
  H12      1.0000 0.09300  0.59510  0.63360  Biso   1.000  H
  H13      1.0000 0.77330  0.96260  0.28180  Biso   1.000  H
  H14      1.0000 0.72670  0.03740  0.78180  Biso   1.000  H
  H15      1.0000 0.22670  0.46260  0.21820  Biso   1.000  H
  H16      1.0000 0.27330  0.53740  0.71820  Biso   1.000  H
  H17      1.0000 0.79670  0.96230  0.32400  Biso   1.000  H
  H18      1.0000 0.70330  0.03770  0.82400  Biso   1.000  H
  H19      1.0000 0.20330  0.46230  0.17600  Biso   1.000  H
  H20      1.0000 0.29670  0.53770  0.67600  Biso   1.000  H
  H21      1.0000 0.72510  0.98710  0.31330  Biso   1.000  H
  H22      1.0000 0.77490  0.01290  0.81330  Biso   1.000  H
  H23      1.0000 0.27490  0.48710  0.18670  Biso   1.000  H
  H24      1.0000 0.22510  0.51290  0.68670  Biso   1.000  H
  H25      1.0000 0.79670  0.81390  0.24610  Biso   1.000  H
  H26      1.0000 0.70330  0.18610  0.74610  Biso   1.000  H
  H27      1.0000 0.20330  0.31390  0.25390  Biso   1.000  H
  H28      1.0000 0.29670  0.68610  0.75390  Biso   1.000  H
  H29      1.0000 0.84690  0.81570  0.28020  Biso   1.000  H
  H30      1.0000 0.65310  0.18430  0.78020  Biso   1.000  H
  H31      1.0000 0.15310  0.31570  0.21980  Biso   1.000  H
  H32      1.0000 0.34690  0.68430  0.71980  Biso   1.000  H
  H33      1.0000 0.82560  0.87530  0.26020  Biso   1.000  H
  H34      1.0000 0.67440  0.12470  0.76020  Biso   1.000  H
  H35      1.0000 0.17440  0.37530  0.23980  Biso   1.000  H
  H36      1.0000 0.32560  0.62470  0.73980  Biso   1.000  H
  H37      1.0000 0.68530  0.70720  0.29940  Biso   1.000  H
  H38      1.0000 0.81470  0.29280  0.79940  Biso   1.000  H
  H39      1.0000 0.31470  0.20720  0.20060  Biso   1.000  H
  H40      1.0000 0.18530  0.79280  0.70060  Biso   1.000  H
  H41      1.0000 0.75910  0.71290  0.31510  Biso   1.000  H
  H42      1.0000 0.74090  0.28710  0.81510  Biso   1.000  H
  H43      1.0000 0.24090  0.21290  0.18490  Biso   1.000  H
  H44      1.0000 0.25910  0.78710  0.68490  Biso   1.000  H
  H45      1.0000 0.74410  0.72790  0.27280  Biso   1.000  H
  H46      1.0000 0.75590  0.27210  0.77280  Biso   1.000  H
  H47      1.0000 0.25590  0.22790  0.22720  Biso   1.000  H
  H48      1.0000 0.24410  0.77210  0.72720  Biso   1.000  H
  H49      1.0000 0.57580  0.80340  0.36120  Biso   1.000  H
  H50      1.0000 0.92420  0.19660  0.86120  Biso   1.000  H
  H51      1.0000 0.42420  0.30340  0.13880  Biso   1.000  H
  H52      1.0000 0.07580  0.69660  0.63880  Biso   1.000  H
  H53      1.0000 0.63550  0.76640  0.37860  Biso   1.000  H
  H54      1.0000 0.86450  0.23360  0.87860  Biso   1.000  H
  H55      1.0000 0.36450  0.26640  0.12140  Biso   1.000  H
  H56      1.0000 0.13550  0.73360  0.62140  Biso   1.000  H
  H57      1.0000 0.60190  0.74560  0.34080  Biso   1.000  H
  H58      1.0000 0.89810  0.25440  0.84080  Biso   1.000  H
  H59      1.0000 0.39810  0.24560  0.15920  Biso   1.000  H
  H60      1.0000 0.10190  0.75440  0.65920  Biso   1.000  H
  H61      1.0000 0.42860  0.76400  0.03970  Biso   1.000  H
  H62      1.0000 0.07140  0.23600  0.53970  Biso   1.000  H
  H63      1.0000 0.57140  0.26400  0.46030  Biso   1.000  H
  H64      1.0000 0.92860  0.73600  0.96030  Biso   1.000  H
  H65      1.0000 0.36110  0.74190  0.05820  Biso   1.000  H
  H66      1.0000 0.13890  0.25810  0.55820  Biso   1.000  H
  H67      1.0000 0.63890  0.24190  0.44180  Biso   1.000  H
  H68      1.0000 0.86110  0.75810  0.94180  Biso   1.000  H
  H69      1.0000 0.40840  0.78620  0.08010  Biso   1.000  H
  H70      1.0000 0.09160  0.21380  0.58010  Biso   1.000  H
  H71      1.0000 0.59160  0.28620  0.41990  Biso   1.000  H
  H72      1.0000 0.90840  0.71380  0.91990  Biso   1.000  H
  H73      1.0000 0.49760  0.52400  0.12050  Biso   1.000  H
  H74      1.0000 0.00240  0.47600  0.62050  Biso   1.000  H
  H75      1.0000 0.50240  0.02400  0.37950  Biso   1.000  H
  H76      1.0000 0.99760  0.97600  0.87950  Biso   1.000  H
  H77      1.0000 0.50530  0.52310  0.07660  Biso   1.000  H
  H78      1.0000 0.99470  0.47690  0.57660  Biso   1.000  H
  H79      1.0000 0.49470  0.02310  0.42340  Biso   1.000  H
  H80      1.0000 0.00530  0.97690  0.92340  Biso   1.000  H
  H81      1.0000 0.43310  0.52210  0.09490  Biso   1.000  H
  H82      1.0000 0.06690  0.47790  0.59490  Biso   1.000  H
  H83      1.0000 0.56690  0.02210  0.40510  Biso   1.000  H
  H84      1.0000 0.93310  0.97790  0.90510  Biso   1.000  H
  H85      1.0000 0.36290  0.57170  0.06160  Biso   1.000  H
  H86      1.0000 0.13710  0.42830  0.56160  Biso   1.000  H
  H87      1.0000 0.63710  0.07170  0.43840  Biso   1.000  H
  H88      1.0000 0.86290  0.92830  0.93840  Biso   1.000  H
  H89      1.0000 0.32600  0.63380  0.06270  Biso   1.000  H
  H90      1.0000 0.17400  0.36620  0.56270  Biso   1.000  H
  H91      1.0000 0.67400  0.13380  0.43730  Biso   1.000  H
  H92      1.0000 0.82600  0.86620  0.93730  Biso   1.000  H
  H93      1.0000 0.37420  0.61800  0.02910  Biso   1.000  H
  H94      1.0000 0.12580  0.38200  0.52910  Biso   1.000  H
  H95      1.0000 0.62580  0.11800  0.47090  Biso   1.000  H
  H96      1.0000 0.87420  0.88200  0.97090  Biso   1.000  H
  H97      1.0000 0.62110  0.61060  0.11080  Biso   1.000  H
  H98      1.0000 0.87890  0.38940  0.61080  Biso   1.000  H
  H99      1.0000 0.37890  0.11060  0.38920  Biso   1.000  H
  H100     1.0000 0.12110  0.88940  0.88920  Biso   1.000  H
  H101     1.0000 0.61100  0.66400  0.13890  Biso   1.000  H
  H102     1.0000 0.88900  0.33600  0.63890  Biso   1.000  H
  H103     1.0000 0.38900  0.16400  0.36110  Biso   1.000  H
  H104     1.0000 0.11100  0.83600  0.86110  Biso   1.000  H
  H105     1.0000 0.58220  0.60050  0.14870  Biso   1.000  H
  H106     1.0000 0.91780  0.39950  0.64870  Biso   1.000  H
  H107     1.0000 0.41780  0.10050  0.35130  Biso   1.000  H
  H108     1.0000 0.08220  0.89950  0.85130  Biso   1.000  H
  H109     1.0000 0.56510  0.75820  0.13140  Biso   1.000  H
  H110     1.0000 0.93490  0.24180  0.63140  Biso   1.000  H
  H111     1.0000 0.43490  0.25820  0.36860  Biso   1.000  H
  H112     1.0000 0.06510  0.74180  0.86860  Biso   1.000  H
  H113     1.0000 0.58070  0.76300  0.08820  Biso   1.000  H
  H114     1.0000 0.91930  0.23700  0.58820  Biso   1.000  H
  H115     1.0000 0.41930  0.26300  0.41180  Biso   1.000  H
  H116     1.0000 0.08070  0.73700  0.91180  Biso   1.000  H
  H117     1.0000 0.51560  0.79310  0.10490  Biso   1.000  H
  H118     1.0000 0.98440  0.20690  0.60490  Biso   1.000  H
  H119     1.0000 0.48440  0.29310  0.39510  Biso   1.000  H
  H120     1.0000 0.01560  0.70690  0.89510  Biso   1.000  H
  H121     1.0000 0.80790  0.56040  0.33120  Biso   1.000  H
  H122     1.0000 0.69210  0.43960  0.83120  Biso   1.000  H
  H123     1.0000 0.19210  0.06040  0.16880  Biso   1.000  H
  H124     1.0000 0.30790  0.93960  0.66880  Biso   1.000  H
  H125     1.0000 0.81730  0.57460  0.28830  Biso   1.000  H
  H126     1.0000 0.68270  0.42540  0.78830  Biso   1.000  H
  H127     1.0000 0.18270  0.07460  0.21170  Biso   1.000  H
  H128     1.0000 0.31730  0.92540  0.71170  Biso   1.000  H
  H129     1.0000 0.76400  0.61020  0.31200  Biso   1.000  H
  H130     1.0000 0.73600  0.38980  0.81200  Biso   1.000  H
  H131     1.0000 0.23600  0.11020  0.18800  Biso   1.000  H
  H132     1.0000 0.26400  0.88980  0.68800  Biso   1.000  H
  H133     1.0000 0.83770  0.43610  0.28580  Biso   1.000  H
  H134     1.0000 0.66230  0.56390  0.78580  Biso   1.000  H
  H135     1.0000 0.16230  0.93610  0.21420  Biso   1.000  H
  H136     1.0000 0.33770  0.06390  0.71420  Biso   1.000  H
  H137     1.0000 0.80420  0.42060  0.24700  Biso   1.000  H
  H138     1.0000 0.69580  0.57940  0.74700  Biso   1.000  H
  H139     1.0000 0.19580  0.92060  0.25300  Biso   1.000  H
  H140     1.0000 0.30420  0.07940  0.75300  Biso   1.000  H
  H141     1.0000 0.83500  0.48430  0.25370  Biso   1.000  H
  H142     1.0000 0.66500  0.51570  0.75370  Biso   1.000  H
  H143     1.0000 0.16500  0.98430  0.24630  Biso   1.000  H
  H144     1.0000 0.33500  0.01570  0.74630  Biso   1.000  H
  H145     1.0000 0.63050  0.36980  0.25550  Biso   1.000  H
  H146     1.0000 0.86950  0.63020  0.75550  Biso   1.000  H
  H147     1.0000 0.36950  0.86980  0.24450  Biso   1.000  H
  H148     1.0000 0.13050  0.13020  0.74450  Biso   1.000  H
  H149     1.0000 0.70700  0.37090  0.24410  Biso   1.000  H
  H150     1.0000 0.79300  0.62910  0.74410  Biso   1.000  H
  H151     1.0000 0.29300  0.87090  0.25590  Biso   1.000  H
  H152     1.0000 0.20700  0.12910  0.75590  Biso   1.000  H
  H153     1.0000 0.68560  0.34730  0.28390  Biso   1.000  H
  H154     1.0000 0.81440  0.65270  0.78390  Biso   1.000  H
  H155     1.0000 0.31440  0.84730  0.21610  Biso   1.000  H
  H156     1.0000 0.18560  0.15270  0.71610  Biso   1.000  H
  H157     1.0000 0.54970  0.42060  0.29180  Biso   1.000  H
  H158     1.0000 0.95030  0.57940  0.79180  Biso   1.000  H
  H159     1.0000 0.45030  0.92060  0.20820  Biso   1.000  H
  H160     1.0000 0.04970  0.07940  0.70820  Biso   1.000  H
  H161     1.0000 0.56420  0.43390  0.33440  Biso   1.000  H
  H162     1.0000 0.93580  0.56610  0.83440  Biso   1.000  H
  H163     1.0000 0.43580  0.93390  0.16560  Biso   1.000  H
  H164     1.0000 0.06420  0.06610  0.66560  Biso   1.000  H
  H165     1.0000 0.53290  0.48370  0.30870  Biso   1.000  H
  H166     1.0000 0.96710  0.51630  0.80870  Biso   1.000  H
  H167     1.0000 0.46710  0.98370  0.19130  Biso   1.000  H
  H168     1.0000 0.03290  0.01630  0.69130  Biso   1.000  H
  H169     1.0000 0.63660  0.56310  0.36230  Biso   1.000  H
  H170     1.0000 0.86340  0.43690  0.86230  Biso   1.000  H
  H171     1.0000 0.36340  0.06310  0.13770  Biso   1.000  H
  H172     1.0000 0.13660  0.93690  0.63770  Biso   1.000  H
  H173     1.0000 0.65110  0.61120  0.33120  Biso   1.000  H
  H174     1.0000 0.84890  0.38880  0.83120  Biso   1.000  H
  H175     1.0000 0.34890  0.11120  0.16880  Biso   1.000  H
  H176     1.0000 0.15110  0.88880  0.66880  Biso   1.000  H
  H177     1.0000 0.58340  0.57480  0.33040  Biso   1.000  H
  H178     1.0000 0.91660  0.42520  0.83040  Biso   1.000  H
  H179     1.0000 0.41660  0.07480  0.16960  Biso   1.000  H
  H180     1.0000 0.08340  0.92520  0.66960  Biso   1.000  H
  H181     1.0000 0.28210  0.58210  0.24870  Biso   1.000  H
  H182     1.0000 0.21790  0.41790  0.74870  Biso   1.000  H
  H183     1.0000 0.71790  0.08210  0.25130  Biso   1.000  H
  H184     1.0000 0.78210  0.91790  0.75130  Biso   1.000  H
  H185     1.0000 0.20600  0.58830  0.26040  Biso   1.000  H
  H186     1.0000 0.29400  0.41170  0.76040  Biso   1.000  H
  H187     1.0000 0.79400  0.08830  0.23960  Biso   1.000  H
  H188     1.0000 0.70600  0.91170  0.73960  Biso   1.000  H
  H189     1.0000 0.25250  0.54150  0.28080  Biso   1.000  H
  H190     1.0000 0.24750  0.45850  0.78080  Biso   1.000  H
  H191     1.0000 0.74750  0.04150  0.21920  Biso   1.000  H
  H192     1.0000 0.75250  0.95850  0.71920  Biso   1.000  H
  H193     1.0000 0.31870  0.68070  0.23520  Biso   1.000  H
  H194     1.0000 0.18130  0.31930  0.73520  Biso   1.000  H
  H195     1.0000 0.68130  0.18070  0.26480  Biso   1.000  H
  H196     1.0000 0.81870  0.81930  0.76480  Biso   1.000  H
  H197     1.0000 0.26160  0.72740  0.24360  Biso   1.000  H
  H198     1.0000 0.23840  0.27260  0.74360  Biso   1.000  H
  H199     1.0000 0.73840  0.22740  0.25640  Biso   1.000  H
  H200     1.0000 0.76160  0.77260  0.75640  Biso   1.000  H
  H201     1.0000 0.33690  0.74210  0.25390  Biso   1.000  H
  H202     1.0000 0.16310  0.25790  0.75390  Biso   1.000  H
  H203     1.0000 0.66310  0.24210  0.24610  Biso   1.000  H
  H204     1.0000 0.83690  0.75790  0.74610  Biso   1.000  H
  H205     1.0000 0.28120  0.80470  0.32770  Biso   1.000  H
  H206     1.0000 0.21880  0.19530  0.82770  Biso   1.000  H
  H207     1.0000 0.71880  0.30470  0.17230  Biso   1.000  H
  H208     1.0000 0.78120  0.69530  0.67230  Biso   1.000  H
  H209     1.0000 0.34060  0.78500  0.35420  Biso   1.000  H
  H210     1.0000 0.15940  0.21500  0.85420  Biso   1.000  H
  H211     1.0000 0.65940  0.28500  0.14580  Biso   1.000  H
  H212     1.0000 0.84060  0.71500  0.64580  Biso   1.000  H
  H213     1.0000 0.35260  0.79070  0.31070  Biso   1.000  H
  H214     1.0000 0.14740  0.20930  0.81070  Biso   1.000  H
  H215     1.0000 0.64740  0.29070  0.18930  Biso   1.000  H
  H216     1.0000 0.85260  0.70930  0.68930  Biso   1.000  H
  H217     1.0000 0.23730  0.72160  0.39790  Biso   1.000  H
  H218     1.0000 0.26270  0.27840  0.89790  Biso   1.000  H
  H219     1.0000 0.76270  0.22160  0.10210  Biso   1.000  H
  H220     1.0000 0.73730  0.77840  0.60210  Biso   1.000  H
  H221     1.0000 0.31560  0.71340  0.40260  Biso   1.000  H
  H222     1.0000 0.18440  0.28660  0.90260  Biso   1.000  H
  H223     1.0000 0.68440  0.21340  0.09740  Biso   1.000  H
  H224     1.0000 0.81560  0.78660  0.59740  Biso   1.000  H
  H225     1.0000 0.26670  0.65950  0.41030  Biso   1.000  H
  H226     1.0000 0.23330  0.34050  0.91030  Biso   1.000  H
  H227     1.0000 0.73330  0.15950  0.08970  Biso   1.000  H
  H228     1.0000 0.76670  0.84050  0.58970  Biso   1.000  H
  H229     1.0000 0.24300  0.53100  0.34440  Biso   1.000  H
  H230     1.0000 0.25700  0.46900  0.84440  Biso   1.000  H
  H231     1.0000 0.75700  0.03100  0.15560  Biso   1.000  H
  H232     1.0000 0.74300  0.96900  0.65560  Biso   1.000  H
  H233     1.0000 0.18410  0.57060  0.36020  Biso   1.000  H
  H234     1.0000 0.31590  0.42940  0.86020  Biso   1.000  H
  H235     1.0000 0.81590  0.07060  0.13980  Biso   1.000  H
  H236     1.0000 0.68410  0.92940  0.63980  Biso   1.000  H
  H237     1.0000 0.25170  0.56440  0.38290  Biso   1.000  H
  H238     1.0000 0.24830  0.43560  0.88290  Biso   1.000  H
  H239     1.0000 0.74830  0.06440  0.11710  Biso   1.000  H
  H240     1.0000 0.75170  0.93560  0.61710  Biso   1.000  H
  Cl1      1.0000 0.26920  0.04030  0.61060  Biso   1.000  Cl
  Cl2      1.0000 0.23080  0.95970  0.11060  Biso   1.000  Cl
  Cl3      1.0000 0.73080  0.54030  0.88940  Biso   1.000  Cl
  Cl4      1.0000 0.76920  0.45970  0.38940  Biso   1.000  Cl
  Cl5      1.0000 0.17550  0.12480  0.62110  Biso   1.000  Cl
  Cl6      1.0000 0.32450  0.87520  0.12110  Biso   1.000  Cl
  Cl7      1.0000 0.82450  0.62480  0.87890  Biso   1.000  Cl
  Cl8      1.0000 0.67550  0.37520  0.37890  Biso   1.000  Cl
  C161     1.0000 0.21120  0.08160  0.58630  Biso   1.000  C
  C162     1.0000 0.28880  0.91840  0.08630  Biso   1.000  C
  C163     1.0000 0.78880  0.58160  0.91370  Biso   1.000  C
  C164     1.0000 0.71120  0.41840  0.41370  Biso   1.000  C
  H241     1.0000 0.17770  0.05620  0.57440  Biso   1.000  H
  H242     1.0000 0.32230  0.94380  0.07440  Biso   1.000  H
  H243     1.0000 0.82230  0.55620  0.92560  Biso   1.000  H
  H244     1.0000 0.67770  0.44380  0.42560  Biso   1.000  H
  H245     1.0000 0.23270  0.10620  0.56730  Biso   1.000  H
  H246     1.0000 0.26730  0.89380  0.06730  Biso   1.000  H
  H247     1.0000 0.76730  0.60620  0.93270  Biso   1.000  H
  H248     1.0000 0.73270  0.39380  0.43270  Biso   1.000  H
  F1       1.0000 0.63160  0.16190  0.53920  Biso   1.000  F
  F2       1.0000 0.86840  0.83810  0.03920  Biso   1.000  F
  F3       1.0000 0.36840  0.66190  0.96080  Biso   1.000  F
  F4       1.0000 0.13160  0.33810  0.46080  Biso   1.000  F
  F5       1.0000 0.47630  0.94120  0.56840  Biso   1.000  F
  F6       1.0000 0.02370  0.05880  0.06840  Biso   1.000  F
  F7       1.0000 0.52370  0.44120  0.93160  Biso   1.000  F
  F8       1.0000 0.97630  0.55880  0.43160  Biso   1.000  F
  C165     1.0000 0.67390  0.26630  0.58030  Biso   1.000  C
  C166     1.0000 0.82610  0.73370  0.08030  Biso   1.000  C
  C167     1.0000 0.32610  0.76630  0.91970  Biso   1.000  C
  C168     1.0000 0.17390  0.23370  0.41970  Biso   1.000  C
  C169     1.0000 0.69230  0.31380  0.60940  Biso   1.000  C
  C170     1.0000 0.80770  0.68620  0.10940  Biso   1.000  C
  C171     1.0000 0.30770  0.81380  0.89060  Biso   1.000  C
  C172     1.0000 0.19230  0.18620  0.39060  Biso   1.000  C
  C173     1.0000 0.65510  0.37390  0.60270  Biso   1.000  C
  C174     1.0000 0.84490  0.62610  0.10270  Biso   1.000  C
  C175     1.0000 0.34490  0.87390  0.89730  Biso   1.000  C
  C176     1.0000 0.15510  0.12610  0.39730  Biso   1.000  C
  C177     1.0000 0.67120  0.40160  0.56480  Biso   1.000  C
  C178     1.0000 0.82880  0.59840  0.06480  Biso   1.000  C
  C179     1.0000 0.32880  0.90160  0.93520  Biso   1.000  C
  C180     1.0000 0.17120  0.09840  0.43520  Biso   1.000  C
  C181     1.0000 0.66300  0.35580  0.53320  Biso   1.000  C
  C182     1.0000 0.83700  0.64420  0.03320  Biso   1.000  C
  C183     1.0000 0.33700  0.85580  0.96680  Biso   1.000  C
  C184     1.0000 0.16300  0.14420  0.46680  Biso   1.000  C
  C185     1.0000 0.69350  0.29530  0.54160  Biso   1.000  C
  C186     1.0000 0.80650  0.70470  0.04160  Biso   1.000  C
  C187     1.0000 0.30650  0.79530  0.95840  Biso   1.000  C
  C188     1.0000 0.19350  0.20470  0.45840  Biso   1.000  C
  F9       1.0000 0.47240  0.02100  0.72527  Biso   1.000  F
  F10      1.0000 0.02760  0.97900  0.22527  Biso   1.000  F
  F11      1.0000 0.52760  0.52100  0.77473  Biso   1.000  F
  F12      1.0000 0.97240  0.47900  0.27473  Biso   1.000  F
  C189     1.0000 0.52030  0.23230  0.68850  Biso   1.000  C
  C190     1.0000 0.97970  0.76770  0.18850  Biso   1.000  C
  C191     1.0000 0.47970  0.73230  0.81150  Biso   1.000  C
  C192     1.0000 0.02030  0.26770  0.31150  Biso   1.000  C
  C193     1.0000 0.44390  0.24900  0.69180  Biso   1.000  C
  C194     1.0000 0.05610  0.75100  0.19180  Biso   1.000  C
  C195     1.0000 0.55610  0.74900  0.80820  Biso   1.000  C
  C196     1.0000 0.94390  0.25100  0.30820  Biso   1.000  C
  C197     1.0000 0.42930  0.31640  0.68460  Biso   1.000  C
  C198     1.0000 0.07070  0.68360  0.18460  Biso   1.000  C
  C199     1.0000 0.57070  0.81640  0.81540  Biso   1.000  C
  C200     1.0000 0.92930  0.18360  0.31540  Biso   1.000  C
  C201     1.0000 0.46630  0.35590  0.71390  Biso   1.000  C
  C202     1.0000 0.03370  0.64410  0.21390  Biso   1.000  C
  C203     1.0000 0.53370  0.85590  0.78610  Biso   1.000  C
  C204     1.0000 0.96630  0.14410  0.28610  Biso   1.000  C
  C205     1.0000 0.54330  0.33940  0.71630  Biso   1.000  C
  C206     1.0000 0.95670  0.66060  0.21630  Biso   1.000  C
  C207     1.0000 0.45670  0.83940  0.78370  Biso   1.000  C
  C208     1.0000 0.04330  0.16060  0.28370  Biso   1.000  C
  C209     1.0000 0.55740  0.27290  0.71840  Biso   1.000  C
  C210     1.0000 0.94260  0.72710  0.21840  Biso   1.000  C
  C211     1.0000 0.44260  0.77290  0.78160  Biso   1.000  C
  C212     1.0000 0.05740  0.22710  0.28160  Biso   1.000  C
  F13      1.0000 0.35370  0.36560  0.53730  Biso   1.000  F
  F14      1.0000 0.14630  0.63440  0.03730  Biso   1.000  F
  F15      1.0000 0.64630  0.86560  0.96270  Biso   1.000  F
  F16      1.0000 0.85370  0.13440  0.46270  Biso   1.000  F
  F17      1.0000 0.43950  0.34970  0.74820  Biso   1.000  F
  F18      1.0000 0.06050  0.65030  0.24820  Biso   1.000  F
  F19      1.0000 0.56050  0.84970  0.75180  Biso   1.000  F
  F20      1.0000 0.93950  0.15030  0.25180  Biso   1.000  F
  F21      1.0000 0.59680  0.34970  0.52506  Biso   1.000  F
  F22      1.0000 0.90320  0.65030  0.02506  Biso   1.000  F
  F23      1.0000 0.40320  0.84970  0.97494  Biso   1.000  F
  F24      1.0000 0.09680  0.15030  0.47494  Biso   1.000  F
  C213     1.0000 0.43160  0.19360  0.55770  Biso   1.000  C
  C214     1.0000 0.06840  0.80640  0.05770  Biso   1.000  C
  C215     1.0000 0.56840  0.69360  0.94230  Biso   1.000  C
  C216     1.0000 0.93160  0.30640  0.44230  Biso   1.000  C
  C217     1.0000 0.45130  0.22700  0.52170  Biso   1.000  C
  C218     1.0000 0.04870  0.77300  0.02170  Biso   1.000  C
  C219     1.0000 0.54870  0.72700  0.97830  Biso   1.000  C
  C220     1.0000 0.95130  0.27300  0.47830  Biso   1.000  C
  C221     1.0000 0.43620  0.29240  0.52270  Biso   1.000  C
  C222     1.0000 0.06380  0.70760  0.02270  Biso   1.000  C
  C223     1.0000 0.56380  0.79240  0.97730  Biso   1.000  C
  C224     1.0000 0.93620  0.20760  0.47730  Biso   1.000  C
  C225     1.0000 0.36150  0.30690  0.53070  Biso   1.000  C
  C226     1.0000 0.13850  0.69310  0.03070  Biso   1.000  C
  C227     1.0000 0.63850  0.80690  0.96930  Biso   1.000  C
  C228     1.0000 0.86150  0.19310  0.46930  Biso   1.000  C
  C229     1.0000 0.33450  0.26920  0.56420  Biso   1.000  C
  C230     1.0000 0.16550  0.73080  0.06420  Biso   1.000  C
  C231     1.0000 0.66550  0.76920  0.93580  Biso   1.000  C
  C232     1.0000 0.83450  0.23080  0.43580  Biso   1.000  C
  C233     1.0000 0.35450  0.20580  0.56440  Biso   1.000  C
  C234     1.0000 0.14550  0.79420  0.06440  Biso   1.000  C
  C235     1.0000 0.64550  0.70580  0.93560  Biso   1.000  C
  C236     1.0000 0.85450  0.29420  0.43560  Biso   1.000  C
  C237     1.0000 0.62370  0.08790  0.68900  Biso   1.000  C
  C238     1.0000 0.87630  0.91210  0.18900  Biso   1.000  C
  C239     1.0000 0.37630  0.58790  0.81100  Biso   1.000  C
  C240     1.0000 0.12370  0.41210  0.31100  Biso   1.000  C
  F25      1.0000 0.51720  0.21970  0.51440  Biso   1.000  F
  F26      1.0000 0.98280  0.78030  0.01440  Biso   1.000  F
  F27      1.0000 0.48280  0.71970  0.98560  Biso   1.000  F
  F28      1.0000 0.01720  0.28030  0.48560  Biso   1.000  F
  F29      1.0000 0.33310  0.18340  0.59720  Biso   1.000  F
  F30      1.0000 0.16690  0.81660  0.09720  Biso   1.000  F
  F31      1.0000 0.66690  0.68340  0.90280  Biso   1.000  F
  F32      1.0000 0.83310  0.31660  0.40280  Biso   1.000  F
  F33      1.0000 0.41770  0.23740  0.72681  Biso   1.000  F
  F34      1.0000 0.08230  0.76260  0.22681  Biso   1.000  F
  F35      1.0000 0.58230  0.73740  0.77319  Biso   1.000  F
  F36      1.0000 0.91770  0.26260  0.27319  Biso   1.000  F
  F37      1.0000 0.53920  0.25390  0.75360  Biso   1.000  F
  F38      1.0000 0.96080  0.74610  0.25360  Biso   1.000  F
  F39      1.0000 0.46080  0.75390  0.74640  Biso   1.000  F
  F40      1.0000 0.03920  0.24610  0.24640  Biso   1.000  F
  F41      1.0000 0.58860  0.37000  0.60782  Biso   1.000  F
  F42      1.0000 0.91140  0.63000  0.10782  Biso   1.000  F
  F43      1.0000 0.41140  0.87000  0.89218  Biso   1.000  F
  F44      1.0000 0.08860  0.13000  0.39218  Biso   1.000  F
  F45      1.0000 0.79080  0.22960  0.63007  Biso   1.000  F
  F46      1.0000 0.70920  0.77040  0.13007  Biso   1.000  F
  F47      1.0000 0.20920  0.72960  0.86993  Biso   1.000  F
  F48      1.0000 0.29080  0.27040  0.36993  Biso   1.000  F
  C241     1.0000 0.45350  0.03610  0.59610  Biso   1.000  C
  C242     1.0000 0.04650  0.96390  0.09610  Biso   1.000  C
  C243     1.0000 0.54650  0.53610  0.90390  Biso   1.000  C
  C244     1.0000 0.95350  0.46390  0.40390  Biso   1.000  C
  C245     1.0000 0.79340  0.13380  0.60670  Biso   1.000  C
  C246     1.0000 0.70660  0.86620  0.10670  Biso   1.000  C
  C247     1.0000 0.20660  0.63380  0.89330  Biso   1.000  C
  C248     1.0000 0.29340  0.36620  0.39330  Biso   1.000  C
  Al1      1.0000 0.54566  0.21913  0.60787  Biso   1.000  Al
  Al2      1.0000 0.95434  0.78087  0.10787  Biso   1.000  Al
  Al3      1.0000 0.45434  0.71913  0.89213  Biso   1.000  Al
  Al4      1.0000 0.04566  0.28087  0.39213  Biso   1.000  Al
  F49      1.0000 0.47300  0.32320  0.54830  Biso   1.000  F
  F50      1.0000 0.02700  0.67680  0.04830  Biso   1.000  F
  F51      1.0000 0.52700  0.82320  0.95170  Biso   1.000  F
  F52      1.0000 0.97300  0.17680  0.45170  Biso   1.000  F
  F53      1.0000 0.35310  0.29770  0.59590  Biso   1.000  F
  F54      1.0000 0.14690  0.70230  0.09590  Biso   1.000  F
  F55      1.0000 0.64690  0.79770  0.90410  Biso   1.000  F
  F56      1.0000 0.85310  0.20230  0.40410  Biso   1.000  F
  F57      1.0000 0.43000  0.12470  0.62507  Biso   1.000  F
  F58      1.0000 0.07000  0.87530  0.12507  Biso   1.000  F
  F59      1.0000 0.57000  0.62470  0.87493  Biso   1.000  F
  F60      1.0000 0.93000  0.37530  0.37493  Biso   1.000  F
  F61      1.0000 0.46540  0.10940  0.49197  Biso   1.000  F
  F62      1.0000 0.03460  0.89060  0.99197  Biso   1.000  F
  F63      1.0000 0.53460  0.60940  0.00803  Biso   1.000  F
  F64      1.0000 0.96540  0.39060  0.50803  Biso   1.000  F
  F65      1.0000 0.36110  0.32450  0.69070  Biso   1.000  F
  F66      1.0000 0.13890  0.67550  0.19070  Biso   1.000  F
  F67      1.0000 0.63890  0.82450  0.80930  Biso   1.000  F
  F68      1.0000 0.86110  0.17550  0.30930  Biso   1.000  F
  F69      1.0000 0.56900  0.36520  0.74748  Biso   1.000  F
  F70      1.0000 0.93100  0.63480  0.24748  Biso   1.000  F
  F71      1.0000 0.43100  0.86520  0.75252  Biso   1.000  F
  F72      1.0000 0.06900  0.13480  0.25252  Biso   1.000  F
  F73      1.0000 0.68770  0.07260  0.67913  Biso   1.000  F
  F74      1.0000 0.81230  0.92740  0.17913  Biso   1.000  F
  F75      1.0000 0.31230  0.57260  0.82087  Biso   1.000  F
  F76      1.0000 0.18770  0.42740  0.32087  Biso   1.000  F
  F77      1.0000 0.67740  0.29420  0.64463  Biso   1.000  F
  F78      1.0000 0.82260  0.70580  0.14463  Biso   1.000  F
  F79      1.0000 0.32260  0.79420  0.85537  Biso   1.000  F
  F80      1.0000 0.17740  0.20580  0.35537  Biso   1.000  F
  F81      1.0000 0.62950  0.44840  0.55860  Biso   1.000  F
  F82      1.0000 0.87050  0.55160  0.05860  Biso   1.000  F
  F83      1.0000 0.37050  0.94840  0.94140  Biso   1.000  F
  F84      1.0000 0.12950  0.05160  0.44140  Biso   1.000  F
  F85      1.0000 0.67630  0.26010  0.51193  Biso   1.000  F
  F86      1.0000 0.82370  0.73990  0.01193  Biso   1.000  F
  F87      1.0000 0.32370  0.76010  0.98807  Biso   1.000  F
  F88      1.0000 0.17630  0.23990  0.48807  Biso   1.000  F
  F89      1.0000 0.80010  0.03560  0.58460  Biso   1.000  F
  F90      1.0000 0.69990  0.96440  0.08460  Biso   1.000  F
  F91      1.0000 0.19990  0.53560  0.91540  Biso   1.000  F
  F92      1.0000 0.30010  0.46440  0.41540  Biso   1.000  F
  O1       1.0000 0.53960  0.24990  0.65234  Biso   1.000  O
  O2       1.0000 0.96040  0.75010  0.15234  Biso   1.000  O
  O3       1.0000 0.46040  0.74990  0.84766  Biso   1.000  O
  O4       1.0000 0.03960  0.25010  0.34766  Biso   1.000  O
  C249     1.0000 0.44420  0.12520  0.55770  Biso   1.000  C
  C250     1.0000 0.05580  0.87480  0.05770  Biso   1.000  C
  C251     1.0000 0.55580  0.62520  0.94230  Biso   1.000  C
  C252     1.0000 0.94420  0.37480  0.44230  Biso   1.000  C
  C253     1.0000 0.46790  0.02600  0.53150  Biso   1.000  C
  C254     1.0000 0.03210  0.97400  0.03150  Biso   1.000  C
  C255     1.0000 0.53210  0.52600  0.96850  Biso   1.000  C
  C256     1.0000 0.96790  0.47400  0.46850  Biso   1.000  C
  C257     1.0000 0.53870  0.16700  0.69560  Biso   1.000  C
  C258     1.0000 0.96130  0.83300  0.19560  Biso   1.000  C
  C259     1.0000 0.46130  0.66700  0.80440  Biso   1.000  C
  C260     1.0000 0.03870  0.33300  0.30440  Biso   1.000  C
  C261     1.0000 0.51680  0.06170  0.71250  Biso   1.000  C
  C262     1.0000 0.98320  0.93830  0.21250  Biso   1.000  C
  C263     1.0000 0.48320  0.56170  0.78750  Biso   1.000  C
  C264     1.0000 0.01680  0.43830  0.28750  Biso   1.000  C
  C265     1.0000 0.70980  0.20530  0.58360  Biso   1.000  C
  C266     1.0000 0.79020  0.79470  0.08360  Biso   1.000  C
  C267     1.0000 0.29020  0.70530  0.91640  Biso   1.000  C
  C268     1.0000 0.20980  0.29470  0.41640  Biso   1.000  C
  C269     1.0000 0.71520  0.10080  0.56180  Biso   1.000  C
  C270     1.0000 0.78480  0.89920  0.06180  Biso   1.000  C
  C271     1.0000 0.28480  0.60080  0.93820  Biso   1.000  C
  C272     1.0000 0.21520  0.39920  0.43820  Biso   1.000  C
  F93      1.0000 0.57030  0.14800  0.61006  Biso   1.000  F
  F94      1.0000 0.92970  0.85200  0.11006  Biso   1.000  F
  F95      1.0000 0.42970  0.64800  0.88994  Biso   1.000  F
  F96      1.0000 0.07030  0.35200  0.38994  Biso   1.000  F
  F97      1.0000 0.41600  0.20800  0.49060  Biso   1.000  F
  F98      1.0000 0.08400  0.79200  0.99060  Biso   1.000  F
  F99      1.0000 0.58400  0.70800  0.00940  Biso   1.000  F
  F100     1.0000 0.91600  0.29200  0.50940  Biso   1.000  F
  F101     1.0000 0.45090  0.31660  0.48870  Biso   1.000  F
  F102     1.0000 0.04910  0.68340  0.98870  Biso   1.000  F
  F103     1.0000 0.54910  0.81660  0.01130  Biso   1.000  F
  F104     1.0000 0.95090  0.18340  0.51130  Biso   1.000  F
  F105     1.0000 0.32420  0.29360  0.49920  Biso   1.000  F
  F106     1.0000 0.17580  0.70640  0.99920  Biso   1.000  F
  F107     1.0000 0.67580  0.79360  0.00080  Biso   1.000  F
  F108     1.0000 0.82420  0.20640  0.50080  Biso   1.000  F
  F109     1.0000 0.26580  0.27410  0.56260  Biso   1.000  F
  F110     1.0000 0.23420  0.72590  0.06260  Biso   1.000  F
  F111     1.0000 0.73420  0.77410  0.93740  Biso   1.000  F
  F112     1.0000 0.76580  0.22590  0.43740  Biso   1.000  F
  F113     1.0000 0.31860  0.17700  0.53640  Biso   1.000  F
  F114     1.0000 0.18140  0.82300  0.03640  Biso   1.000  F
  F115     1.0000 0.68140  0.67700  0.96360  Biso   1.000  F
  F116     1.0000 0.81860  0.32300  0.46360  Biso   1.000  F
  F117     1.0000 0.45150  0.00970  0.62980  Biso   1.000  F
  F118     1.0000 0.04850  0.99030  0.12980  Biso   1.000  F
  F119     1.0000 0.54850  0.50970  0.87020  Biso   1.000  F
  F120     1.0000 0.95150  0.49030  0.37020  Biso   1.000  F
  F121     1.0000 0.48110  0.99460  0.49950  Biso   1.000  F
  F122     1.0000 0.01890  0.00540  0.99950  Biso   1.000  F
  F123     1.0000 0.51890  0.49460  0.00050  Biso   1.000  F
  F124     1.0000 0.98110  0.50540  0.50050  Biso   1.000  F
  F125     1.0000 0.40720  0.21760  0.66656  Biso   1.000  F
  F126     1.0000 0.09280  0.78240  0.16656  Biso   1.000  F
  F127     1.0000 0.59280  0.71760  0.83344  Biso   1.000  F
  F128     1.0000 0.90720  0.28240  0.33344  Biso   1.000  F
  F129     1.0000 0.44280  0.33390  0.65048  Biso   1.000  F
  F130     1.0000 0.05720  0.66610  0.15048  Biso   1.000  F
  F131     1.0000 0.55720  0.83390  0.84952  Biso   1.000  F
  F132     1.0000 0.94280  0.16610  0.34952  Biso   1.000  F
  F133     1.0000 0.45940  0.41310  0.70380  Biso   1.000  F
  F134     1.0000 0.04060  0.58690  0.20380  Biso   1.000  F
  F135     1.0000 0.54060  0.91310  0.79620  Biso   1.000  F
  F136     1.0000 0.95940  0.08690  0.29620  Biso   1.000  F
  F137     1.0000 0.57430  0.36320  0.68601  Biso   1.000  F
  F138     1.0000 0.92570  0.63680  0.18601  Biso   1.000  F
  F139     1.0000 0.42570  0.86320  0.81399  Biso   1.000  F
  F140     1.0000 0.07430  0.13680  0.31399  Biso   1.000  F
  F141     1.0000 0.62430  0.26620  0.71629  Biso   1.000  F
  F142     1.0000 0.87570  0.73380  0.21629  Biso   1.000  F
  F143     1.0000 0.37570  0.76620  0.78371  Biso   1.000  F
  F144     1.0000 0.12430  0.23380  0.28371  Biso   1.000  F
  F145     1.0000 0.65060  0.18400  0.67154  Biso   1.000  F
  F146     1.0000 0.84940  0.81600  0.17154  Biso   1.000  F
  F147     1.0000 0.34940  0.68400  0.82846  Biso   1.000  F
  F148     1.0000 0.15060  0.31600  0.32846  Biso   1.000  F
  F149     1.0000 0.60160  0.98870  0.70690  Biso   1.000  F
  F150     1.0000 0.89840  0.01130  0.20690  Biso   1.000  F
  F151     1.0000 0.39840  0.48870  0.79310  Biso   1.000  F
  F152     1.0000 0.10160  0.51130  0.29310  Biso   1.000  F
  F153     1.0000 0.43190  0.13080  0.71766  Biso   1.000  F
  F154     1.0000 0.06810  0.86920  0.21766  Biso   1.000  F
  F155     1.0000 0.56810  0.63080  0.78234  Biso   1.000  F
  F156     1.0000 0.93190  0.36920  0.28234  Biso   1.000  F
  F157     1.0000 0.75930  0.32940  0.60980  Biso   1.000  F
  F158     1.0000 0.74070  0.67060  0.10980  Biso   1.000  F
  F159     1.0000 0.24070  0.82940  0.89020  Biso   1.000  F
  F160     1.0000 0.25930  0.17060  0.39020  Biso   1.000  F
  F161     1.0000 0.67800  0.41310  0.63050  Biso   1.000  F
  F162     1.0000 0.82200  0.58690  0.13050  Biso   1.000  F
  F163     1.0000 0.32200  0.91310  0.86950  Biso   1.000  F
  F164     1.0000 0.17800  0.08690  0.36950  Biso   1.000  F
  F165     1.0000 0.73520  0.42340  0.56490  Biso   1.000  F
  F166     1.0000 0.76480  0.57660  0.06490  Biso   1.000  F
  F167     1.0000 0.26480  0.92340  0.93510  Biso   1.000  F
  F168     1.0000 0.23520  0.07660  0.43510  Biso   1.000  F
  F169     1.0000 0.69250  0.37900  0.50130  Biso   1.000  F
  F170     1.0000 0.80750  0.62100  0.00130  Biso   1.000  F
  F171     1.0000 0.30750  0.87900  0.99870  Biso   1.000  F
  F172     1.0000 0.19250  0.12100  0.49870  Biso   1.000  F
  F173     1.0000 0.76230  0.30130  0.54001  Biso   1.000  F
  F174     1.0000 0.73770  0.69870  0.04001  Biso   1.000  F
  F175     1.0000 0.23770  0.80130  0.95999  Biso   1.000  F
  F176     1.0000 0.26230  0.19870  0.45999  Biso   1.000  F
  F177     1.0000 0.84600  0.12330  0.62975  Biso   1.000  F
  F178     1.0000 0.65400  0.87670  0.12975  Biso   1.000  F
  F179     1.0000 0.15400  0.62330  0.87025  Biso   1.000  F
  F180     1.0000 0.34600  0.37670  0.37025  Biso   1.000  F
  F181     1.0000 0.68990  0.05750  0.54020  Biso   1.000  F
  F182     1.0000 0.81010  0.94250  0.04020  Biso   1.000  F
  F183     1.0000 0.31010  0.55750  0.95980  Biso   1.000  F
  F184     1.0000 0.18990  0.44250  0.45980  Biso   1.000  F
  O5       1.0000 0.46530  0.22370  0.58610  Biso   1.000  O
  O6       1.0000 0.03470  0.77630  0.08610  Biso   1.000  O
  O7       1.0000 0.53470  0.72370  0.91390  Biso   1.000  O
  O8       1.0000 0.96530  0.27630  0.41390  Biso   1.000  O
  O9       1.0000 0.60450  0.26030  0.58133  Biso   1.000  O
  O10      1.0000 0.89550  0.73970  0.08133  Biso   1.000  O
  O11      1.0000 0.39550  0.76030  0.91867  Biso   1.000  O
  O12      1.0000 0.10450  0.23970  0.41867  Biso   1.000  O
  C273     1.0000 0.44230  0.09380  0.59240  Biso   1.000  C
  C274     1.0000 0.05770  0.90620  0.09240  Biso   1.000  C
  C275     1.0000 0.55770  0.59380  0.90760  Biso   1.000  C
  C276     1.0000 0.94230  0.40620  0.40760  Biso   1.000  C
  C277     1.0000 0.46640  0.99930  0.56490  Biso   1.000  C
  C278     1.0000 0.03360  0.00070  0.06490  Biso   1.000  C
  C279     1.0000 0.53360  0.49930  0.93510  Biso   1.000  C
  C280     1.0000 0.96640  0.50070  0.43510  Biso   1.000  C
  C281     1.0000 0.45860  0.08760  0.52740  Biso   1.000  C
  C282     1.0000 0.04140  0.91240  0.02740  Biso   1.000  C
  C283     1.0000 0.54140  0.58760  0.97260  Biso   1.000  C
  C284     1.0000 0.95860  0.41240  0.47260  Biso   1.000  C
  C285     1.0000 0.60330  0.14610  0.68580  Biso   1.000  C
  C286     1.0000 0.89670  0.85390  0.18580  Biso   1.000  C
  C287     1.0000 0.39670  0.64610  0.81420  Biso   1.000  C
  C288     1.0000 0.10330  0.35390  0.31420  Biso   1.000  C
  C289     1.0000 0.58160  0.04520  0.70270  Biso   1.000  C
  C290     1.0000 0.91840  0.95480  0.20270  Biso   1.000  C
  C291     1.0000 0.41840  0.54520  0.79730  Biso   1.000  C
  C292     1.0000 0.08160  0.45480  0.29730  Biso   1.000  C
  C293     1.0000 0.49690  0.12050  0.70820  Biso   1.000  C
  C294     1.0000 0.00310  0.87950  0.20820  Biso   1.000  C
  C295     1.0000 0.50310  0.62050  0.79180  Biso   1.000  C
  C296     1.0000 0.99690  0.37950  0.29180  Biso   1.000  C
  C297     1.0000 0.76390  0.18970  0.60610  Biso   1.000  C
  C298     1.0000 0.73610  0.81030  0.10610  Biso   1.000  C
  C299     1.0000 0.23610  0.68970  0.89390  Biso   1.000  C
  C300     1.0000 0.26390  0.31030  0.39390  Biso   1.000  C
  C301     1.0000 0.76990  0.08900  0.58510  Biso   1.000  C
  C302     1.0000 0.73010  0.91100  0.08510  Biso   1.000  C
  C303     1.0000 0.23010  0.58900  0.91490  Biso   1.000  C
  C304     1.0000 0.26990  0.41100  0.41490  Biso   1.000  C
  C305     1.0000 0.68440  0.15710  0.56100  Biso   1.000  C
  C306     1.0000 0.81560  0.84290  0.06100  Biso   1.000  C
  C307     1.0000 0.31560  0.65710  0.93900  Biso   1.000  C
  C308     1.0000 0.18440  0.34290  0.43900  Biso   1.000  C
  F185     1.0000 0.66110  0.13880  0.89378  Biso   1.000  F
  F186     1.0000 0.83890  0.86120  0.39378  Biso   1.000  F
  F187     1.0000 0.33890  0.63880  0.60622  Biso   1.000  F
  F188     1.0000 0.16110  0.36120  0.10622  Biso   1.000  F
  F189     1.0000 0.75490  0.13650  0.92605  Biso   1.000  F
  F190     1.0000 0.74510  0.86350  0.42605  Biso   1.000  F
  F191     1.0000 0.24510  0.63650  0.57395  Biso   1.000  F
  F192     1.0000 0.25490  0.36350  0.07395  Biso   1.000  F
  F193     1.0000 0.61040  0.04650  0.93599  Biso   1.000  F
  F194     1.0000 0.88960  0.95350  0.43599  Biso   1.000  F
  F195     1.0000 0.38960  0.54650  0.56401  Biso   1.000  F
  F196     1.0000 0.11040  0.45350  0.06401  Biso   1.000  F
  F197     1.0000 0.70900  0.03010  0.91137  Biso   1.000  F
  F198     1.0000 0.79100  0.96990  0.41137  Biso   1.000  F
  F199     1.0000 0.29100  0.53010  0.58863  Biso   1.000  F
  F200     1.0000 0.20900  0.46990  0.08863  Biso   1.000  F
  F201     1.0000 0.68530  0.99050  0.98570  Biso   1.000  F
  F202     1.0000 0.81470  0.00950  0.48570  Biso   1.000  F
  F203     1.0000 0.31470  0.49050  0.51430  Biso   1.000  F
  F204     1.0000 0.18530  0.50950  0.01430  Biso   1.000  F
  F205     1.0000 0.77280  0.04670  0.97531  Biso   1.000  F
  F206     1.0000 0.72720  0.95330  0.47531  Biso   1.000  F
  F207     1.0000 0.22720  0.54670  0.52469  Biso   1.000  F
  F208     1.0000 0.27280  0.45330  0.02469  Biso   1.000  F
  F209     1.0000 0.61720  0.07720  0.01644  Biso   1.000  F
  F210     1.0000 0.88280  0.92280  0.51644  Biso   1.000  F
  F211     1.0000 0.38280  0.57720  0.48356  Biso   1.000  F
  F212     1.0000 0.11720  0.42280  0.98356  Biso   1.000  F
  F213     1.0000 0.71930  0.07990  0.03841  Biso   1.000  F
  F214     1.0000 0.78070  0.92010  0.53841  Biso   1.000  F
  F215     1.0000 0.28070  0.57990  0.46159  Biso   1.000  F
  F216     1.0000 0.21930  0.42010  0.96159  Biso   1.000  F
  F217     1.0000 0.65780  0.18680  0.02467  Biso   1.000  F
  F218     1.0000 0.84220  0.81320  0.52467  Biso   1.000  F
  F219     1.0000 0.34220  0.68680  0.47533  Biso   1.000  F
  F220     1.0000 0.15780  0.31320  0.97533  Biso   1.000  F
  F221     1.0000 0.75330  0.17120  0.99603  Biso   1.000  F
  F222     1.0000 0.74670  0.82880  0.49603  Biso   1.000  F
  F223     1.0000 0.24670  0.67120  0.50397  Biso   1.000  F
  F224     1.0000 0.25330  0.32880  0.00397  Biso   1.000  F
  F225     1.0000 0.58700  0.26620  0.99815  Biso   1.000  F
  F226     1.0000 0.91300  0.73380  0.49815  Biso   1.000  F
  F227     1.0000 0.41300  0.76620  0.50185  Biso   1.000  F
  F228     1.0000 0.08700  0.23380  0.00185  Biso   1.000  F
  F229     1.0000 0.59600  0.38070  0.98641  Biso   1.000  F
  F230     1.0000 0.90400  0.61930  0.48641  Biso   1.000  F
  F231     1.0000 0.40400  0.88070  0.51359  Biso   1.000  F
  F232     1.0000 0.09600  0.11930  0.01359  Biso   1.000  F
  F233     1.0000 0.67390  0.42540  0.92923  Biso   1.000  F
  F234     1.0000 0.82610  0.57460  0.42923  Biso   1.000  F
  F235     1.0000 0.32610  0.92540  0.57077  Biso   1.000  F
  F236     1.0000 0.17390  0.07460  0.07077  Biso   1.000  F
  F237     1.0000 0.74550  0.34810  0.88569  Biso   1.000  F
  F238     1.0000 0.75450  0.65190  0.38569  Biso   1.000  F
  F239     1.0000 0.25450  0.84810  0.61431  Biso   1.000  F
  F240     1.0000 0.24550  0.15190  0.11431  Biso   1.000  F
  F241     1.0000 0.74090  0.23240  0.89649  Biso   1.000  F
  F242     1.0000 0.75910  0.76760  0.39649  Biso   1.000  F
  F243     1.0000 0.25910  0.73240  0.60351  Biso   1.000  F
  F244     1.0000 0.24090  0.26760  0.10351  Biso   1.000  F
  F245     1.0000 0.58280  0.14090  0.82519  Biso   1.000  F
  F246     1.0000 0.91720  0.85910  0.32519  Biso   1.000  F
  F247     1.0000 0.41720  0.64090  0.67481  Biso   1.000  F
  F248     1.0000 0.08280  0.35910  0.17481  Biso   1.000  F
  F249     1.0000 0.48930  0.13230  0.79302  Biso   1.000  F
  F250     1.0000 0.01070  0.86770  0.29302  Biso   1.000  F
  F251     1.0000 0.51070  0.63230  0.70698  Biso   1.000  F
  F252     1.0000 0.98930  0.36770  0.20698  Biso   1.000  F
  F253     1.0000 0.56230  0.04310  0.86264  Biso   1.000  F
  F254     1.0000 0.93770  0.95690  0.36264  Biso   1.000  F
  F255     1.0000 0.43770  0.54310  0.63736  Biso   1.000  F
  F256     1.0000 0.06230  0.45690  0.13736  Biso   1.000  F
  F257     1.0000 0.54760  0.02980  0.80235  Biso   1.000  F
  F258     1.0000 0.95240  0.97020  0.30235  Biso   1.000  F
  F259     1.0000 0.45240  0.52980  0.69765  Biso   1.000  F
  F260     1.0000 0.04760  0.47020  0.19765  Biso   1.000  F
  F261     1.0000 0.46090  0.97060  0.85538  Biso   1.000  F
  F262     1.0000 0.03910  0.02940  0.35538  Biso   1.000  F
  F263     1.0000 0.53910  0.47060  0.64462  Biso   1.000  F
  F264     1.0000 0.96090  0.52940  0.14462  Biso   1.000  F
  F265     1.0000 0.41740  0.02120  0.80927  Biso   1.000  F
  F266     1.0000 0.08260  0.97880  0.30927  Biso   1.000  F
  F267     1.0000 0.58260  0.52120  0.69073  Biso   1.000  F
  F268     1.0000 0.91740  0.47880  0.19073  Biso   1.000  F
  F269     1.0000 0.43420  0.05260  0.90465  Biso   1.000  F
  F270     1.0000 0.06580  0.94740  0.40465  Biso   1.000  F
  F271     1.0000 0.56580  0.55260  0.59535  Biso   1.000  F
  F272     1.0000 0.93420  0.44740  0.09535  Biso   1.000  F
  F273     1.0000 0.34530  0.04110  0.87014  Biso   1.000  F
  F274     1.0000 0.15470  0.95890  0.37014  Biso   1.000  F
  F275     1.0000 0.65470  0.54110  0.62986  Biso   1.000  F
  F276     1.0000 0.84530  0.45890  0.12986  Biso   1.000  F
  F277     1.0000 0.36950  0.15700  0.88674  Biso   1.000  F
  F278     1.0000 0.13050  0.84300  0.38674  Biso   1.000  F
  F279     1.0000 0.63050  0.65700  0.61326  Biso   1.000  F
  F280     1.0000 0.86950  0.34300  0.11326  Biso   1.000  F
  Al5      1.0000 0.51444  0.18648  0.93532  Biso   1.000  Al
  Al6      1.0000 0.98556  0.81352  0.43532  Biso   1.000  Al
  Al7      1.0000 0.48556  0.68648  0.56468  Biso   1.000  Al
  Al8      1.0000 0.01444  0.31352  0.06468  Biso   1.000  Al
  F281     1.0000 0.37310  0.13160  0.82702  Biso   1.000  F
  F282     1.0000 0.12690  0.86840  0.32702  Biso   1.000  F
  F283     1.0000 0.62690  0.63160  0.67298  Biso   1.000  F
  F284     1.0000 0.87310  0.36840  0.17298  Biso   1.000  F
  F285     1.0000 0.52000  0.26050  0.92823  Biso   1.000  F
  F286     1.0000 0.98000  0.73950  0.42823  Biso   1.000  F
  F287     1.0000 0.48000  0.76050  0.57177  Biso   1.000  F
  F288     1.0000 0.02000  0.23950  0.07177  Biso   1.000  F
  F289     1.0000 0.60650  0.34470  0.84706  Biso   1.000  F
  F290     1.0000 0.89350  0.65530  0.34706  Biso   1.000  F
  F291     1.0000 0.39350  0.84470  0.65294  Biso   1.000  F
  F292     1.0000 0.10650  0.15530  0.15294  Biso   1.000  F
  F293     1.0000 0.49700  0.40910  0.82376  Biso   1.000  F
  F294     1.0000 0.00300  0.59090  0.32376  Biso   1.000  F
  F295     1.0000 0.50300  0.90910  0.67624  Biso   1.000  F
  F296     1.0000 0.99700  0.09090  0.17624  Biso   1.000  F
  F297     1.0000 0.37550  0.35250  0.81660  Biso   1.000  F
  F298     1.0000 0.12450  0.64750  0.31660  Biso   1.000  F
  F299     1.0000 0.62450  0.85250  0.68340  Biso   1.000  F
  F300     1.0000 0.87550  0.14750  0.18340  Biso   1.000  F
  F301     1.0000 0.36200  0.23990  0.83116  Biso   1.000  F
  F302     1.0000 0.13800  0.76010  0.33116  Biso   1.000  F
  F303     1.0000 0.63800  0.73990  0.66884  Biso   1.000  F
  F304     1.0000 0.86200  0.26010  0.16884  Biso   1.000  F
  F305     1.0000 0.50290  0.18320  0.03200  Biso   1.000  F
  F306     1.0000 0.99710  0.81680  0.53200  Biso   1.000  F
  F307     1.0000 0.49710  0.68320  0.46800  Biso   1.000  F
  F308     1.0000 0.00290  0.31680  0.96800  Biso   1.000  F
  F309     1.0000 0.40410  0.18270  0.05984  Biso   1.000  F
  F310     1.0000 0.09590  0.81730  0.55984  Biso   1.000  F
  F311     1.0000 0.59590  0.68270  0.44016  Biso   1.000  F
  F312     1.0000 0.90410  0.31730  0.94016  Biso   1.000  F
  F313     1.0000 0.47380  0.07350  0.00129  Biso   1.000  F
  F314     1.0000 0.02620  0.92650  0.50129  Biso   1.000  F
  F315     1.0000 0.52620  0.57350  0.49871  Biso   1.000  F
  F316     1.0000 0.97380  0.42650  0.99871  Biso   1.000  F
  F317     1.0000 0.45720  0.07850  0.06185  Biso   1.000  F
  F318     1.0000 0.04280  0.92150  0.56185  Biso   1.000  F
  F319     1.0000 0.54280  0.57850  0.43815  Biso   1.000  F
  F320     1.0000 0.95720  0.42150  0.93815  Biso   1.000  F
  F321     1.0000 0.36300  0.01550  0.01669  Biso   1.000  F
  F322     1.0000 0.13700  0.98450  0.51669  Biso   1.000  F
  F323     1.0000 0.63700  0.51550  0.48331  Biso   1.000  F
  F324     1.0000 0.86300  0.48450  0.98331  Biso   1.000  F
  F325     1.0000 0.32660  0.08480  0.05503  Biso   1.000  F
  F326     1.0000 0.17340  0.91520  0.55503  Biso   1.000  F
  F327     1.0000 0.67340  0.58480  0.44497  Biso   1.000  F
  F328     1.0000 0.82660  0.41520  0.94497  Biso   1.000  F
  F329     1.0000 0.34430  0.08150  0.95802  Biso   1.000  F
  F330     1.0000 0.15570  0.91850  0.45802  Biso   1.000  F
  F331     1.0000 0.65570  0.58150  0.54198  Biso   1.000  F
  F332     1.0000 0.84430  0.41850  0.04198  Biso   1.000  F
  F333     1.0000 0.25730  0.09350  0.99448  Biso   1.000  F
  F334     1.0000 0.24270  0.90650  0.49448  Biso   1.000  F
  F335     1.0000 0.74270  0.59350  0.50552  Biso   1.000  F
  F336     1.0000 0.75730  0.40650  0.00552  Biso   1.000  F
  F337     1.0000 0.30260  0.19280  0.95757  Biso   1.000  F
  F338     1.0000 0.19740  0.80720  0.45757  Biso   1.000  F
  F339     1.0000 0.69740  0.69280  0.54243  Biso   1.000  F
  F340     1.0000 0.80260  0.30720  0.04243  Biso   1.000  F
  F341     1.0000 0.29790  0.19730  0.01851  Biso   1.000  F
  F342     1.0000 0.20210  0.80270  0.51851  Biso   1.000  F
  F343     1.0000 0.70210  0.69730  0.48149  Biso   1.000  F
  F344     1.0000 0.79790  0.30270  0.98149  Biso   1.000  F
  F345     1.0000 0.43560  0.28630  0.05406  Biso   1.000  F
  F346     1.0000 0.06440  0.71370  0.55406  Biso   1.000  F
  F347     1.0000 0.56440  0.78630  0.44594  Biso   1.000  F
  F348     1.0000 0.93560  0.21370  0.94594  Biso   1.000  F
  F349     1.0000 0.42610  0.40290  0.04510  Biso   1.000  F
  F350     1.0000 0.07390  0.59710  0.54510  Biso   1.000  F
  F351     1.0000 0.57390  0.90290  0.45490  Biso   1.000  F
  F352     1.0000 0.92610  0.09710  0.95490  Biso   1.000  F
  F353     1.0000 0.39540  0.45090  0.97640  Biso   1.000  F
  F354     1.0000 0.10460  0.54910  0.47640  Biso   1.000  F
  F355     1.0000 0.60460  0.95090  0.52360  Biso   1.000  F
  F356     1.0000 0.89540  0.04910  0.02360  Biso   1.000  F
  F357     1.0000 0.37830  0.37690  0.91662  Biso   1.000  F
  F358     1.0000 0.12170  0.62310  0.41662  Biso   1.000  F
  F359     1.0000 0.62170  0.87690  0.58338  Biso   1.000  F
  F360     1.0000 0.87830  0.12310  0.08338  Biso   1.000  F
  F361     1.0000 0.38360  0.26180  0.92419  Biso   1.000  F
  F362     1.0000 0.11640  0.73820  0.42419  Biso   1.000  F
  F363     1.0000 0.61640  0.76180  0.57581  Biso   1.000  F
  F364     1.0000 0.88360  0.23820  0.07581  Biso   1.000  F
  O13      1.0000 0.58660  0.16000  0.95888  Biso   1.000  O
  O14      1.0000 0.91340  0.84000  0.45888  Biso   1.000  O
  O15      1.0000 0.41340  0.66000  0.54112  Biso   1.000  O
  O16      1.0000 0.08660  0.34000  0.04112  Biso   1.000  O
  O17      1.0000 0.50820  0.14960  0.89220  Biso   1.000  O
  O18      1.0000 0.99180  0.85040  0.39220  Biso   1.000  O
  O19      1.0000 0.49180  0.64960  0.60780  Biso   1.000  O
  O20      1.0000 0.00820  0.35040  0.10780  Biso   1.000  O
  O21      1.0000 0.44290  0.17120  0.96216  Biso   1.000  O
  O22      1.0000 0.05710  0.82880  0.46216  Biso   1.000  O
  O23      1.0000 0.55710  0.67120  0.53784  Biso   1.000  O
  O24      1.0000 0.94290  0.32880  0.03784  Biso   1.000  O
  F365     1.0000 0.59650  0.23150  0.86296  Biso   1.000  F
  F366     1.0000 0.90350  0.76850  0.36296  Biso   1.000  F
  F367     1.0000 0.40350  0.73150  0.63704  Biso   1.000  F
  F368     1.0000 0.09650  0.26850  0.13704  Biso   1.000  F
  C309     1.0000 0.65410  0.17340  0.95740  Biso   1.000  C
  C310     1.0000 0.84590  0.82660  0.45740  Biso   1.000  C
  C311     1.0000 0.34590  0.67340  0.54260  Biso   1.000  C
  C312     1.0000 0.15410  0.32660  0.04260  Biso   1.000  C
  C313     1.0000 0.68680  0.12980  0.92830  Biso   1.000  C
  C314     1.0000 0.81320  0.87020  0.42830  Biso   1.000  C
  C315     1.0000 0.31320  0.62980  0.57170  Biso   1.000  C
  C316     1.0000 0.18680  0.37020  0.07170  Biso   1.000  C
  C317     1.0000 0.67580  0.06250  0.93750  Biso   1.000  C
  C318     1.0000 0.82420  0.93750  0.43750  Biso   1.000  C
  C319     1.0000 0.32420  0.56250  0.56250  Biso   1.000  C
  C320     1.0000 0.17580  0.43750  0.06250  Biso   1.000  C
  C321     1.0000 0.70410  0.04550  0.97660  Biso   1.000  C
  C322     1.0000 0.79590  0.95450  0.47660  Biso   1.000  C
  C323     1.0000 0.29590  0.54550  0.52340  Biso   1.000  C
  C324     1.0000 0.20410  0.45450  0.02340  Biso   1.000  C
  C325     1.0000 0.68040  0.08900  0.00760  Biso   1.000  C
  C326     1.0000 0.81960  0.91100  0.50760  Biso   1.000  C
  C327     1.0000 0.31960  0.58900  0.49240  Biso   1.000  C
  C328     1.0000 0.18040  0.41100  0.99240  Biso   1.000  C
  C329     1.0000 0.68590  0.15580  0.99640  Biso   1.000  C
  C330     1.0000 0.81410  0.84420  0.49640  Biso   1.000  C
  C331     1.0000 0.31410  0.65580  0.50360  Biso   1.000  C
  C332     1.0000 0.18590  0.34420  0.00360  Biso   1.000  C
  C333     1.0000 0.66560  0.24090  0.94970  Biso   1.000  C
  C334     1.0000 0.83440  0.75910  0.44970  Biso   1.000  C
  C335     1.0000 0.33440  0.74090  0.55030  Biso   1.000  C
  C336     1.0000 0.16560  0.25910  0.05030  Biso   1.000  C
  C337     1.0000 0.62970  0.28340  0.97080  Biso   1.000  C
  C338     1.0000 0.87030  0.71660  0.47080  Biso   1.000  C
  C339     1.0000 0.37030  0.78340  0.52920  Biso   1.000  C
  C340     1.0000 0.12970  0.21660  0.02920  Biso   1.000  C
  C341     1.0000 0.63220  0.34300  0.96470  Biso   1.000  C
  C342     1.0000 0.86780  0.65700  0.46470  Biso   1.000  C
  C343     1.0000 0.36780  0.84300  0.53530  Biso   1.000  C
  C344     1.0000 0.13220  0.15700  0.03530  Biso   1.000  C
  C345     1.0000 0.67180  0.36620  0.93560  Biso   1.000  C
  C346     1.0000 0.82820  0.63380  0.43560  Biso   1.000  C
  C347     1.0000 0.32820  0.86620  0.56440  Biso   1.000  C
  C348     1.0000 0.17180  0.13380  0.06440  Biso   1.000  C
  C349     1.0000 0.70810  0.32690  0.91380  Biso   1.000  C
  C350     1.0000 0.79190  0.67310  0.41380  Biso   1.000  C
  C351     1.0000 0.29190  0.82690  0.58620  Biso   1.000  C
  C352     1.0000 0.20810  0.17310  0.08620  Biso   1.000  C
  C353     1.0000 0.70370  0.26750  0.92060  Biso   1.000  C
  C354     1.0000 0.79630  0.73250  0.42060  Biso   1.000  C
  C355     1.0000 0.29630  0.76750  0.57940  Biso   1.000  C
  C356     1.0000 0.20370  0.23250  0.07940  Biso   1.000  C
  C357     1.0000 0.47790  0.16090  0.85800  Biso   1.000  C
  C358     1.0000 0.02210  0.83910  0.35800  Biso   1.000  C
  C359     1.0000 0.52210  0.66090  0.64200  Biso   1.000  C
  C360     1.0000 0.97790  0.33910  0.14200  Biso   1.000  C
  C361     1.0000 0.51820  0.12210  0.82780  Biso   1.000  C
  C362     1.0000 0.98180  0.87790  0.32780  Biso   1.000  C
  C363     1.0000 0.48180  0.62210  0.67220  Biso   1.000  C
  C364     1.0000 0.01820  0.37790  0.17220  Biso   1.000  C
  C365     1.0000 0.51970  0.05550  0.83410  Biso   1.000  C
  C366     1.0000 0.98030  0.94450  0.33410  Biso   1.000  C
  C367     1.0000 0.48030  0.55550  0.66590  Biso   1.000  C
  C368     1.0000 0.01970  0.44450  0.16590  Biso   1.000  C
  C369     1.0000 0.45200  0.02710  0.84180  Biso   1.000  C
  C370     1.0000 0.04800  0.97290  0.34180  Biso   1.000  C
  C371     1.0000 0.54800  0.52710  0.65820  Biso   1.000  C
  C372     1.0000 0.95200  0.47290  0.15820  Biso   1.000  C
  C373     1.0000 0.40930  0.06320  0.87010  Biso   1.000  C
  C374     1.0000 0.09070  0.93680  0.37010  Biso   1.000  C
  C375     1.0000 0.59070  0.56320  0.62990  Biso   1.000  C
  C376     1.0000 0.90930  0.43680  0.12990  Biso   1.000  C
  C377     1.0000 0.40710  0.12930  0.86030  Biso   1.000  C
  C378     1.0000 0.09290  0.87070  0.36030  Biso   1.000  C
  C379     1.0000 0.59290  0.62930  0.63970  Biso   1.000  C
  C380     1.0000 0.90710  0.37070  0.13970  Biso   1.000  C
  C381     1.0000 0.47890  0.22660  0.84670  Biso   1.000  C
  C382     1.0000 0.02110  0.77340  0.34670  Biso   1.000  C
  C383     1.0000 0.52110  0.72660  0.65330  Biso   1.000  C
  C384     1.0000 0.97890  0.27340  0.15330  Biso   1.000  C
  C385     1.0000 0.53940  0.25850  0.85010  Biso   1.000  C
  C386     1.0000 0.96060  0.74150  0.35010  Biso   1.000  C
  C387     1.0000 0.46060  0.75850  0.64990  Biso   1.000  C
  C388     1.0000 0.03940  0.24150  0.14990  Biso   1.000  C
  C389     1.0000 0.54610  0.31820  0.84290  Biso   1.000  C
  C390     1.0000 0.95390  0.68180  0.34290  Biso   1.000  C
  C391     1.0000 0.45390  0.81820  0.65710  Biso   1.000  C
  C392     1.0000 0.04610  0.18180  0.15710  Biso   1.000  C
  C393     1.0000 0.49060  0.35170  0.83190  Biso   1.000  C
  C394     1.0000 0.00940  0.64830  0.33190  Biso   1.000  C
  C395     1.0000 0.50940  0.85170  0.66810  Biso   1.000  C
  C396     1.0000 0.99060  0.14830  0.16810  Biso   1.000  C
  C397     1.0000 0.43050  0.32220  0.82800  Biso   1.000  C
  C398     1.0000 0.06950  0.67780  0.32800  Biso   1.000  C
  C399     1.0000 0.56950  0.82220  0.67200  Biso   1.000  C
  C400     1.0000 0.93050  0.17780  0.17200  Biso   1.000  C
  C401     1.0000 0.42540  0.26160  0.83560  Biso   1.000  C
  C402     1.0000 0.07460  0.73840  0.33560  Biso   1.000  C
  C403     1.0000 0.57460  0.76160  0.66440  Biso   1.000  C
  C404     1.0000 0.92540  0.23840  0.16440  Biso   1.000  C
  C405     1.0000 0.40840  0.19490  0.99190  Biso   1.000  C
  C406     1.0000 0.09160  0.80510  0.49190  Biso   1.000  C
  C407     1.0000 0.59160  0.69490  0.50810  Biso   1.000  C
  C408     1.0000 0.90840  0.30510  0.00810  Biso   1.000  C
  C409     1.0000 0.43710  0.16710  0.02820  Biso   1.000  C
  C410     1.0000 0.06290  0.83290  0.52820  Biso   1.000  C
  C411     1.0000 0.56290  0.66710  0.47180  Biso   1.000  C
  C412     1.0000 0.93710  0.33290  0.97180  Biso   1.000  C
  C413     1.0000 0.43400  0.09760  0.02750  Biso   1.000  C
  C414     1.0000 0.06600  0.90240  0.52750  Biso   1.000  C
  C415     1.0000 0.56600  0.59760  0.47250  Biso   1.000  C
  C416     1.0000 0.93400  0.40240  0.97250  Biso   1.000  C
  C417     1.0000 0.36180  0.07480  0.02270  Biso   1.000  C
  C418     1.0000 0.13820  0.92520  0.52270  Biso   1.000  C
  C419     1.0000 0.63820  0.57480  0.47730  Biso   1.000  C
  C420     1.0000 0.86180  0.42520  0.97730  Biso   1.000  C
  C421     1.0000 0.32390  0.10480  0.99070  Biso   1.000  C
  C422     1.0000 0.17610  0.89520  0.49070  Biso   1.000  C
  C423     1.0000 0.67610  0.60480  0.50930  Biso   1.000  C
  C424     1.0000 0.82390  0.39520  0.00930  Biso   1.000  C
  C425     1.0000 0.33290  0.17280  0.98920  Biso   1.000  C
  C426     1.0000 0.16710  0.82720  0.48920  Biso   1.000  C
  C427     1.0000 0.66710  0.67280  0.51080  Biso   1.000  C
  C428     1.0000 0.83290  0.32720  0.01080  Biso   1.000  C
  C429     1.0000 0.40790  0.26470  0.99070  Biso   1.000  C
  C430     1.0000 0.09210  0.73530  0.49070  Biso   1.000  C
  C431     1.0000 0.59210  0.76470  0.50930  Biso   1.000  C
  C432     1.0000 0.90790  0.23530  0.00930  Biso   1.000  C
  C433     1.0000 0.41880  0.30500  0.01940  Biso   1.000  C
  C434     1.0000 0.08120  0.69500  0.51940  Biso   1.000  C
  C435     1.0000 0.58120  0.80500  0.48060  Biso   1.000  C
  C436     1.0000 0.91880  0.19500  0.98060  Biso   1.000  C
  C437     1.0000 0.41530  0.36630  0.01390  Biso   1.000  C
  C438     1.0000 0.08470  0.63370  0.51390  Biso   1.000  C
  C439     1.0000 0.58470  0.86630  0.48610  Biso   1.000  C
  C440     1.0000 0.91530  0.13370  0.98610  Biso   1.000  C
  C441     1.0000 0.40070  0.39030  0.98000  Biso   1.000  C
  C442     1.0000 0.09930  0.60970  0.48000  Biso   1.000  C
  C443     1.0000 0.59930  0.89030  0.52000  Biso   1.000  C
  C444     1.0000 0.90070  0.10970  0.02000  Biso   1.000  C
  C445     1.0000 0.39090  0.35480  0.95010  Biso   1.000  C
  C446     1.0000 0.10910  0.64520  0.45010  Biso   1.000  C
  C447     1.0000 0.60910  0.85480  0.54990  Biso   1.000  C
  C448     1.0000 0.89090  0.14520  0.04990  Biso   1.000  C
  C449     1.0000 0.39440  0.29380  0.95520  Biso   1.000  C
  C450     1.0000 0.10560  0.70620  0.45520  Biso   1.000  C
  C451     1.0000 0.60560  0.79380  0.54480  Biso   1.000  C
  C452     1.0000 0.89440  0.20620  0.04480  Biso   1.000  C
  Cl9      1.0000 0.94640  0.62270  0.61837  Biso   1.000  Cl
  Cl10     1.0000 0.55360  0.37730  0.11837  Biso   1.000  Cl
  Cl11     1.0000 0.05360  0.12270  0.88163  Biso   1.000  Cl
  Cl12     1.0000 0.44640  0.87730  0.38163  Biso   1.000  Cl
  Cl13     1.0000 0.83720  0.65000  0.57080  Biso   1.000  Cl
  Cl14     1.0000 0.66280  0.35000  0.07080  Biso   1.000  Cl
  Cl15     1.0000 0.16280  0.15000  0.92920  Biso   1.000  Cl
  Cl16     1.0000 0.33720  0.85000  0.42920  Biso   1.000  Cl
  C453     1.0000 0.88030  0.59060  0.58930  Biso   1.000  C
  C454     1.0000 0.61970  0.40940  0.08930  Biso   1.000  C
  C455     1.0000 0.11970  0.09060  0.91070  Biso   1.000  C
  C456     1.0000 0.38030  0.90940  0.41070  Biso   1.000  C
  H249     1.0000 0.89970  0.56630  0.56930  Biso   1.000  H
  H250     1.0000 0.60030  0.43370  0.06930  Biso   1.000  H
  H251     1.0000 0.10030  0.06630  0.93070  Biso   1.000  H
  H252     1.0000 0.39970  0.93370  0.43070  Biso   1.000  H
  H253     1.0000 0.85050  0.56570  0.60430  Biso   1.000  H
  H254     1.0000 0.64950  0.43430  0.10430  Biso   1.000  H
  H255     1.0000 0.14950  0.06570  0.89570  Biso   1.000  H
  H256     1.0000 0.35050  0.93430  0.39570  Biso   1.000  H
  F369     1.0000 0.32360  0.40860  0.55620  Biso   1.000  F
  F370     1.0000 0.17640  0.59140  0.05620  Biso   1.000  F
  F371     1.0000 0.67640  0.90860  0.94380  Biso   1.000  F
  F372     1.0000 0.82360  0.09140  0.44380  Biso   1.000  F
  F373     1.0000 0.64800  0.29080  0.55520  Biso   1.000  F
  F374     1.0000 0.85200  0.70920  0.05520  Biso   1.000  F
  F375     1.0000 0.35200  0.79080  0.94480  Biso   1.000  F
  F376     1.0000 0.14800  0.20920  0.44480  Biso   1.000  F
  F377     1.0000 0.50900  0.16790  0.72090  Biso   1.000  F
  F378     1.0000 0.99100  0.83210  0.22090  Biso   1.000  F
  F379     1.0000 0.49100  0.66790  0.77910  Biso   1.000  F
  F380     1.0000 0.00900  0.33210  0.27910  Biso   1.000  F
  Al9      1.0000 0.48070  0.20720  0.60220  Biso   1.000  Al
  Al10     1.0000 0.01930  0.79280  0.10220  Biso   1.000  Al
  Al11     1.0000 0.51930  0.70720  0.89780  Biso   1.000  Al
  Al12     1.0000 0.98070  0.29280  0.39780  Biso   1.000  Al
  F381     1.0000 0.64360  0.06310  0.64280  Biso   1.000  F
  F382     1.0000 0.85640  0.93690  0.14280  Biso   1.000  F
  F383     1.0000 0.35640  0.56310  0.85720  Biso   1.000  F
  F384     1.0000 0.14360  0.43690  0.35720  Biso   1.000  F
  F385     1.0000 0.35470  0.28190  0.64550  Biso   1.000  F
  F386     1.0000 0.14530  0.71810  0.14550  Biso   1.000  F
  F387     1.0000 0.64530  0.78190  0.85450  Biso   1.000  F
  F388     1.0000 0.85470  0.21810  0.35450  Biso   1.000  F
  O25      1.0000 0.43530  0.25900  0.58080  Biso   1.000  O
  O26      1.0000 0.06470  0.74100  0.08080  Biso   1.000  O
  O27      1.0000 0.56470  0.75900  0.91920  Biso   1.000  O
  O28      1.0000 0.93530  0.24100  0.41920  Biso   1.000  O
  C457     1.0000 0.49000  0.35400  0.53480  Biso   1.000  C
  C458     1.0000 0.01000  0.64600  0.03480  Biso   1.000  C
  C459     1.0000 0.51000  0.85400  0.96520  Biso   1.000  C
  C460     1.0000 0.99000  0.14600  0.46520  Biso   1.000  C
  C461     1.0000 0.38530  0.05840  0.64840  Biso   1.000  C
  C462     1.0000 0.11470  0.94160  0.14840  Biso   1.000  C
  C463     1.0000 0.61470  0.55840  0.85160  Biso   1.000  C
  C464     1.0000 0.88530  0.44160  0.35160  Biso   1.000  C
  C465     1.0000 0.31550  0.05990  0.64410  Biso   1.000  C
  C466     1.0000 0.18450  0.94010  0.14410  Biso   1.000  C
  C467     1.0000 0.68450  0.55990  0.85590  Biso   1.000  C
  C468     1.0000 0.81550  0.44010  0.35590  Biso   1.000  C
  C469     1.0000 0.27920  0.11010  0.65530  Biso   1.000  C
  C470     1.0000 0.22080  0.88990  0.15530  Biso   1.000  C
  C471     1.0000 0.72080  0.61010  0.84470  Biso   1.000  C
  C472     1.0000 0.77920  0.38990  0.34470  Biso   1.000  C
  C473     1.0000 0.31280  0.15890  0.67080  Biso   1.000  C
  C474     1.0000 0.18720  0.84110  0.17080  Biso   1.000  C
  C475     1.0000 0.68720  0.65890  0.82920  Biso   1.000  C
  C476     1.0000 0.81280  0.34110  0.32920  Biso   1.000  C
  C477     1.0000 0.38260  0.15730  0.67520  Biso   1.000  C
  C478     1.0000 0.11740  0.84270  0.17520  Biso   1.000  C
  C479     1.0000 0.61740  0.65730  0.82480  Biso   1.000  C
  C480     1.0000 0.88260  0.34270  0.32480  Biso   1.000  C
  C481     1.0000 0.41890  0.10710  0.66400  Biso   1.000  C
  C482     1.0000 0.08110  0.89290  0.16400  Biso   1.000  C
  C483     1.0000 0.58110  0.60710  0.83600  Biso   1.000  C
  C484     1.0000 0.91890  0.39290  0.33600  Biso   1.000  C
  F389     1.0000 0.27850  0.01510  0.62930  Biso   1.000  F
  F390     1.0000 0.22150  0.98490  0.12930  Biso   1.000  F
  F391     1.0000 0.72150  0.51510  0.87070  Biso   1.000  F
  F392     1.0000 0.77850  0.48490  0.37070  Biso   1.000  F
  F393     1.0000 0.62280  0.28680  0.63520  Biso   1.000  F
  F394     1.0000 0.87720  0.71320  0.13520  Biso   1.000  F
  F395     1.0000 0.37720  0.78680  0.86480  Biso   1.000  F
  F396     1.0000 0.12280  0.21320  0.36480  Biso   1.000  F
  F397     1.0000 0.53660  0.13450  0.53230  Biso   1.000  F
  F398     1.0000 0.96340  0.86550  0.03230  Biso   1.000  F
  F399     1.0000 0.46340  0.63450  0.96770  Biso   1.000  F
  F400     1.0000 0.03660  0.36550  0.46770  Biso   1.000  F
  F401     1.0000 0.53640  0.37540  0.50970  Biso   1.000  F
  F402     1.0000 0.96360  0.62460  0.00970  Biso   1.000  F
  F403     1.0000 0.46360  0.87540  0.99030  Biso   1.000  F
  F404     1.0000 0.03640  0.12460  0.49030  Biso   1.000  F
  F405     1.0000 0.27390  0.07710  0.56900  Biso   1.000  F
  F406     1.0000 0.22610  0.92290  0.06900  Biso   1.000  F
  F407     1.0000 0.72610  0.57710  0.93100  Biso   1.000  F
  F408     1.0000 0.77390  0.42290  0.43100  Biso   1.000  F
  F409     1.0000 0.52300  0.36800  0.71840  Biso   1.000  F
  F410     1.0000 0.97700  0.63200  0.21840  Biso   1.000  F
  F411     1.0000 0.47700  0.86800  0.78160  Biso   1.000  F
  F412     1.0000 0.02300  0.13200  0.28160  Biso   1.000  F
  C485     1.0000 0.67460  0.24810  0.63470  Biso   1.000  C
  C486     1.0000 0.82540  0.75190  0.13470  Biso   1.000  C
  C487     1.0000 0.32540  0.74810  0.86530  Biso   1.000  C
  C488     1.0000 0.17460  0.25190  0.36530  Biso   1.000  C
  C489     1.0000 0.38000  0.20700  0.52920  Biso   1.000  C
  C490     1.0000 0.12000  0.79300  0.02920  Biso   1.000  C
  C491     1.0000 0.62000  0.70700  0.97080  Biso   1.000  C
  C492     1.0000 0.88000  0.29300  0.47080  Biso   1.000  C
  C493     1.0000 0.33600  0.17420  0.55350  Biso   1.000  C
  C494     1.0000 0.16400  0.82580  0.05350  Biso   1.000  C
  C495     1.0000 0.66400  0.67420  0.94650  Biso   1.000  C
  C496     1.0000 0.83600  0.32580  0.44650  Biso   1.000  C
  C497     1.0000 0.31300  0.11450  0.54520  Biso   1.000  C
  C498     1.0000 0.18700  0.88550  0.04520  Biso   1.000  C
  C499     1.0000 0.68700  0.61450  0.95480  Biso   1.000  C
  C500     1.0000 0.81300  0.38550  0.45480  Biso   1.000  C
  C501     1.0000 0.33300  0.08600  0.51050  Biso   1.000  C
  C502     1.0000 0.16700  0.91400  0.01050  Biso   1.000  C
  C503     1.0000 0.66700  0.58600  0.98950  Biso   1.000  C
  C504     1.0000 0.83300  0.41400  0.48950  Biso   1.000  C
  C505     1.0000 0.37800  0.12040  0.48750  Biso   1.000  C
  C506     1.0000 0.12200  0.87960  0.98750  Biso   1.000  C
  C507     1.0000 0.62200  0.62040  0.01250  Biso   1.000  C
  C508     1.0000 0.87800  0.37960  0.51250  Biso   1.000  C
  C509     1.0000 0.40200  0.18040  0.49460  Biso   1.000  C
  C510     1.0000 0.09800  0.81960  0.99460  Biso   1.000  C
  C511     1.0000 0.59800  0.68040  0.00540  Biso   1.000  C
  C512     1.0000 0.90200  0.31960  0.50540  Biso   1.000  C
  C513     1.0000 0.43600  0.32800  0.68600  Biso   1.000  C
  C514     1.0000 0.06400  0.67200  0.18600  Biso   1.000  C
  C515     1.0000 0.56400  0.82800  0.81400  Biso   1.000  C
  C516     1.0000 0.93600  0.17200  0.31400  Biso   1.000  C
  F413     1.0000 0.61690  0.17310  0.65970  Biso   1.000  F
  F414     1.0000 0.88310  0.82690  0.15970  Biso   1.000  F
  F415     1.0000 0.38310  0.67310  0.84030  Biso   1.000  F
  F416     1.0000 0.11690  0.32690  0.34030  Biso   1.000  F
  F417     1.0000 0.74000  0.32700  0.60500  Biso   1.000  F
  F418     1.0000 0.76000  0.67300  0.10500  Biso   1.000  F
  F419     1.0000 0.26000  0.82700  0.89500  Biso   1.000  F
  F420     1.0000 0.24000  0.17300  0.39500  Biso   1.000  F
  F421     1.0000 0.64540  0.18280  0.52950  Biso   1.000  F
  F422     1.0000 0.85460  0.81720  0.02950  Biso   1.000  F
  F423     1.0000 0.35460  0.68280  0.97050  Biso   1.000  F
  F424     1.0000 0.14540  0.31720  0.47050  Biso   1.000  F
  F425     1.0000 0.49770  0.93900  0.57510  Biso   1.000  F
  F426     1.0000 0.00230  0.06100  0.07510  Biso   1.000  F
  F427     1.0000 0.50230  0.43900  0.92490  Biso   1.000  F
  F428     1.0000 0.99770  0.56100  0.42490  Biso   1.000  F
  F429     1.0000 0.45200  0.31200  0.48300  Biso   1.000  F
  F430     1.0000 0.04800  0.68800  0.98300  Biso   1.000  F
  F431     1.0000 0.54800  0.81200  0.01700  Biso   1.000  F
  F432     1.0000 0.95200  0.18800  0.51700  Biso   1.000  F
  F433     1.0000 0.52600  0.26400  0.76130  Biso   1.000  F
  F434     1.0000 0.97400  0.73600  0.26130  Biso   1.000  F
  F435     1.0000 0.47400  0.76400  0.73870  Biso   1.000  F
  F436     1.0000 0.02600  0.23600  0.23870  Biso   1.000  F
  F437     1.0000 0.56300  0.26600  0.70610  Biso   1.000  F
  F438     1.0000 0.93700  0.73400  0.20610  Biso   1.000  F
  F439     1.0000 0.43700  0.76600  0.79390  Biso   1.000  F
  F440     1.0000 0.06300  0.23400  0.29390  Biso   1.000  F
  F441     1.0000 0.41300  0.41680  0.50540  Biso   1.000  F
  F442     1.0000 0.08700  0.58320  0.00540  Biso   1.000  F
  F443     1.0000 0.58700  0.91680  0.99460  Biso   1.000  F
  F444     1.0000 0.91300  0.08320  0.49460  Biso   1.000  F
  F445     1.0000 0.32380  0.32320  0.50940  Biso   1.000  F
  F446     1.0000 0.17620  0.67680  0.00940  Biso   1.000  F
  F447     1.0000 0.67620  0.82320  0.99060  Biso   1.000  F
  F448     1.0000 0.82380  0.17680  0.49060  Biso   1.000  F
  F449     1.0000 0.39710  0.09280  0.45460  Biso   1.000  F
  F450     1.0000 0.10290  0.90720  0.95460  Biso   1.000  F
  F451     1.0000 0.60290  0.59280  0.04540  Biso   1.000  F
  F452     1.0000 0.89710  0.40720  0.54540  Biso   1.000  F
  F453     1.0000 0.47390  0.33920  0.65500  Biso   1.000  F
  F454     1.0000 0.02610  0.66080  0.15500  Biso   1.000  F
  F455     1.0000 0.52610  0.83920  0.84500  Biso   1.000  F
  F456     1.0000 0.97390  0.16080  0.34500  Biso   1.000  F
  F457     1.0000 0.48410  0.10400  0.66420  Biso   1.000  F
  F458     1.0000 0.01590  0.89600  0.16420  Biso   1.000  F
  F459     1.0000 0.51590  0.60400  0.83580  Biso   1.000  F
  F460     1.0000 0.98410  0.39600  0.33580  Biso   1.000  F
  F461     1.0000 0.27390  0.20030  0.67910  Biso   1.000  F
  F462     1.0000 0.22610  0.79970  0.17910  Biso   1.000  F
  F463     1.0000 0.72610  0.70030  0.82090  Biso   1.000  F
  F464     1.0000 0.77390  0.29970  0.32090  Biso   1.000  F
  C517     1.0000 0.62290  0.16400  0.58910  Biso   1.000  C
  C518     1.0000 0.87710  0.83600  0.08910  Biso   1.000  C
  C519     1.0000 0.37710  0.66400  0.91090  Biso   1.000  C
  C520     1.0000 0.12290  0.33600  0.41090  Biso   1.000  C
  C521     1.0000 0.70060  0.25610  0.56450  Biso   1.000  C
  C522     1.0000 0.79940  0.74390  0.06450  Biso   1.000  C
  C523     1.0000 0.29940  0.75610  0.93550  Biso   1.000  C
  C524     1.0000 0.20060  0.24390  0.43550  Biso   1.000  C
  C525     1.0000 0.40600  0.26300  0.54350  Biso   1.000  C
  C526     1.0000 0.09400  0.73700  0.04350  Biso   1.000  C
  C527     1.0000 0.59400  0.76300  0.95650  Biso   1.000  C
  C528     1.0000 0.90600  0.23700  0.45650  Biso   1.000  C
  C529     1.0000 0.37200  0.38000  0.56150  Biso   1.000  C
  C530     1.0000 0.12800  0.62000  0.06150  Biso   1.000  C
  C531     1.0000 0.62800  0.88000  0.93850  Biso   1.000  C
  C532     1.0000 0.87200  0.12000  0.43850  Biso   1.000  C
  C533     1.0000 0.43100  0.21600  0.68150  Biso   1.000  C
  C534     1.0000 0.06900  0.78400  0.18150  Biso   1.000  C
  C535     1.0000 0.56900  0.71600  0.81850  Biso   1.000  C
  C536     1.0000 0.93100  0.28400  0.31850  Biso   1.000  C
  C537     1.0000 0.50600  0.26800  0.73090  Biso   1.000  C
  C538     1.0000 0.99400  0.73200  0.23090  Biso   1.000  C
  C539     1.0000 0.49400  0.76800  0.76910  Biso   1.000  C
  C540     1.0000 0.00600  0.23200  0.26910  Biso   1.000  C
  F465     1.0000 0.44780  0.13730  0.59500  Biso   1.000  F
  F466     1.0000 0.05220  0.86270  0.09500  Biso   1.000  F
  F467     1.0000 0.55220  0.63730  0.90500  Biso   1.000  F
  F468     1.0000 0.94780  0.36270  0.40500  Biso   1.000  F
  F469     1.0000 0.71080  0.15320  0.63630  Biso   1.000  F
  F470     1.0000 0.78920  0.84680  0.13630  Biso   1.000  F
  F471     1.0000 0.28920  0.65320  0.86370  Biso   1.000  F
  F472     1.0000 0.21080  0.34680  0.36370  Biso   1.000  F
  F473     1.0000 0.70580  0.25520  0.66800  Biso   1.000  F
  F474     1.0000 0.79420  0.74480  0.16800  Biso   1.000  F
  F475     1.0000 0.29420  0.75520  0.83200  Biso   1.000  F
  F476     1.0000 0.20580  0.24480  0.33200  Biso   1.000  F
  F477     1.0000 0.78930  0.24800  0.60710  Biso   1.000  F
  F478     1.0000 0.71070  0.75200  0.10710  Biso   1.000  F
  F479     1.0000 0.21070  0.74800  0.89290  Biso   1.000  F
  F480     1.0000 0.28930  0.25200  0.39290  Biso   1.000  F
  F481     1.0000 0.75270  0.26160  0.54020  Biso   1.000  F
  F482     1.0000 0.74730  0.73840  0.04020  Biso   1.000  F
  F483     1.0000 0.24730  0.76160  0.95980  Biso   1.000  F
  F484     1.0000 0.25270  0.23840  0.45980  Biso   1.000  F
  F485     1.0000 0.72710  0.15240  0.56430  Biso   1.000  F
  F486     1.0000 0.77290  0.84760  0.06430  Biso   1.000  F
  F487     1.0000 0.27290  0.65240  0.93570  Biso   1.000  F
  F488     1.0000 0.22710  0.34760  0.43570  Biso   1.000  F
  F489     1.0000 0.47600  0.02600  0.52600  Biso   1.000  F
  F490     1.0000 0.02400  0.97400  0.02600  Biso   1.000  F
  F491     1.0000 0.52400  0.52600  0.97400  Biso   1.000  F
  F492     1.0000 0.97600  0.47400  0.47400  Biso   1.000  F
  F493     1.0000 0.57980  0.96070  0.63130  Biso   1.000  F
  F494     1.0000 0.92020  0.03930  0.13130  Biso   1.000  F
  F495     1.0000 0.42020  0.46070  0.86870  Biso   1.000  F
  F496     1.0000 0.07980  0.53930  0.36870  Biso   1.000  F
  F497     1.0000 0.51790  0.25860  0.52000  Biso   1.000  F
  F498     1.0000 0.98210  0.74140  0.02000  Biso   1.000  F
  F499     1.0000 0.48210  0.75860  0.98000  Biso   1.000  F
  F500     1.0000 0.01790  0.24140  0.48000  Biso   1.000  F
  F501     1.0000 0.52350  0.34900  0.56670  Biso   1.000  F
  F502     1.0000 0.97650  0.65100  0.06670  Biso   1.000  F
  F503     1.0000 0.47650  0.84900  0.93330  Biso   1.000  F
  F504     1.0000 0.02350  0.15100  0.43330  Biso   1.000  F
  F505     1.0000 0.45440  0.45060  0.55820  Biso   1.000  F
  F506     1.0000 0.04560  0.54940  0.05820  Biso   1.000  F
  F507     1.0000 0.54560  0.95060  0.94180  Biso   1.000  F
  F508     1.0000 0.95440  0.04940  0.44180  Biso   1.000  F
  F509     1.0000 0.38400  0.37190  0.59650  Biso   1.000  F
  F510     1.0000 0.11600  0.62810  0.09650  Biso   1.000  F
  F511     1.0000 0.61600  0.87190  0.90350  Biso   1.000  F
  F512     1.0000 0.88400  0.12810  0.40350  Biso   1.000  F
  F513     1.0000 0.30200  0.29850  0.56930  Biso   1.000  F
  F514     1.0000 0.19800  0.70150  0.06930  Biso   1.000  F
  F515     1.0000 0.69800  0.79850  0.93070  Biso   1.000  F
  F516     1.0000 0.80200  0.20150  0.43070  Biso   1.000  F
  F517     1.0000 0.32050  0.19000  0.58620  Biso   1.000  F
  F518     1.0000 0.17950  0.81000  0.08620  Biso   1.000  F
  F519     1.0000 0.67950  0.69000  0.91380  Biso   1.000  F
  F520     1.0000 0.82050  0.31000  0.41380  Biso   1.000  F
  F521     1.0000 0.31360  0.03350  0.50200  Biso   1.000  F
  F522     1.0000 0.18640  0.96650  0.00200  Biso   1.000  F
  F523     1.0000 0.68640  0.53350  0.99800  Biso   1.000  F
  F524     1.0000 0.81360  0.46650  0.49800  Biso   1.000  F
  F525     1.0000 0.43970  0.19750  0.47140  Biso   1.000  F
  F526     1.0000 0.06030  0.80250  0.97140  Biso   1.000  F
  F527     1.0000 0.56030  0.69750  0.02860  Biso   1.000  F
  F528     1.0000 0.93970  0.30250  0.52860  Biso   1.000  F
  F529     1.0000 0.34420  0.28190  0.70980  Biso   1.000  F
  F530     1.0000 0.15580  0.71810  0.20980  Biso   1.000  F
  F531     1.0000 0.65580  0.78190  0.79020  Biso   1.000  F
  F532     1.0000 0.84420  0.21810  0.29020  Biso   1.000  F
  F533     1.0000 0.39310  0.38140  0.68490  Biso   1.000  F
  F534     1.0000 0.10690  0.61860  0.18490  Biso   1.000  F
  F535     1.0000 0.60690  0.88140  0.81510  Biso   1.000  F
  F536     1.0000 0.89310  0.11860  0.31510  Biso   1.000  F
  F537     1.0000 0.42700  0.33500  0.74900  Biso   1.000  F
  F538     1.0000 0.07300  0.66500  0.24900  Biso   1.000  F
  F539     1.0000 0.57300  0.83500  0.75100  Biso   1.000  F
  F540     1.0000 0.92700  0.16500  0.25100  Biso   1.000  F
  F541     1.0000 0.41990  0.20590  0.74790  Biso   1.000  F
  F542     1.0000 0.08010  0.79410  0.24790  Biso   1.000  F
  F543     1.0000 0.58010  0.70590  0.75210  Biso   1.000  F
  F544     1.0000 0.91990  0.29410  0.25210  Biso   1.000  F
  F545     1.0000 0.42080  0.00680  0.64020  Biso   1.000  F
  F546     1.0000 0.07920  0.99320  0.14020  Biso   1.000  F
  F547     1.0000 0.57920  0.50680  0.85980  Biso   1.000  F
  F548     1.0000 0.92080  0.49320  0.35980  Biso   1.000  F
  F549     1.0000 0.21500  0.10840  0.65310  Biso   1.000  F
  F550     1.0000 0.28500  0.89160  0.15310  Biso   1.000  F
  F551     1.0000 0.78500  0.60840  0.84690  Biso   1.000  F
  F552     1.0000 0.71500  0.39160  0.34690  Biso   1.000  F
  O29      1.0000 0.56390  0.20750  0.59250  Biso   1.000  O
  O30      1.0000 0.93610  0.79250  0.09250  Biso   1.000  O
  O31      1.0000 0.43610  0.70750  0.90750  Biso   1.000  O
  O32      1.0000 0.06390  0.29250  0.40750  Biso   1.000  O
  O33      1.0000 0.47500  0.22100  0.64990  Biso   1.000  O
  O34      1.0000 0.02500  0.77900  0.14990  Biso   1.000  O
  O35      1.0000 0.52500  0.72100  0.85010  Biso   1.000  O
  O36      1.0000 0.97500  0.27900  0.35010  Biso   1.000  O
  C541     1.0000 0.65330  0.18260  0.62800  Biso   1.000  C
  C542     1.0000 0.84670  0.81740  0.12800  Biso   1.000  C
  C543     1.0000 0.34670  0.68260  0.87200  Biso   1.000  C
  C544     1.0000 0.15330  0.31740  0.37200  Biso   1.000  C
  C545     1.0000 0.72550  0.26800  0.60460  Biso   1.000  C
  C546     1.0000 0.77450  0.73200  0.10460  Biso   1.000  C
  C547     1.0000 0.27450  0.76800  0.89540  Biso   1.000  C
  C548     1.0000 0.22550  0.23200  0.39540  Biso   1.000  C
  C549     1.0000 0.67580  0.19100  0.56300  Biso   1.000  C
  C550     1.0000 0.82420  0.80900  0.06300  Biso   1.000  C
  C551     1.0000 0.32420  0.69100  0.93700  Biso   1.000  C
  C552     1.0000 0.17580  0.30900  0.43700  Biso   1.000  C
  C553     1.0000 0.59860  0.10190  0.58550  Biso   1.000  C
  C554     1.0000 0.90140  0.89810  0.08550  Biso   1.000  C
  C555     1.0000 0.40140  0.60190  0.91450  Biso   1.000  C
  C556     1.0000 0.09860  0.39810  0.41450  Biso   1.000  C
  C557     1.0000 0.55400  0.09360  0.55570  Biso   1.000  C
  C558     1.0000 0.94600  0.90640  0.05570  Biso   1.000  C
  C559     1.0000 0.44600  0.59360  0.94430  Biso   1.000  C
  C560     1.0000 0.05400  0.40640  0.44430  Biso   1.000  C
  C561     1.0000 0.51890  0.04000  0.55220  Biso   1.000  C
  C562     1.0000 0.98110  0.96000  0.05220  Biso   1.000  C
  C563     1.0000 0.48110  0.54000  0.94780  Biso   1.000  C
  C564     1.0000 0.01890  0.46000  0.44780  Biso   1.000  C
  C565     1.0000 0.52830  0.99470  0.57850  Biso   1.000  C
  C566     1.0000 0.97170  0.00530  0.07850  Biso   1.000  C
  C567     1.0000 0.47170  0.49470  0.92150  Biso   1.000  C
  C568     1.0000 0.02830  0.50530  0.42150  Biso   1.000  C
  C569     1.0000 0.57290  0.00300  0.60830  Biso   1.000  C
  C570     1.0000 0.92710  0.99700  0.10830  Biso   1.000  C
  C571     1.0000 0.42710  0.50300  0.89170  Biso   1.000  C
  C572     1.0000 0.07290  0.49700  0.39170  Biso   1.000  C
  C573     1.0000 0.60800  0.05660  0.61180  Biso   1.000  C
  C574     1.0000 0.89200  0.94340  0.11180  Biso   1.000  C
  C575     1.0000 0.39200  0.55660  0.88820  Biso   1.000  C
  C576     1.0000 0.10800  0.44340  0.38820  Biso   1.000  C
  C577     1.0000 0.46100  0.29500  0.51990  Biso   1.000  C
  C578     1.0000 0.03900  0.70500  0.01990  Biso   1.000  C
  C579     1.0000 0.53900  0.79500  0.98010  Biso   1.000  C
  C580     1.0000 0.96100  0.20500  0.48010  Biso   1.000  C
  C581     1.0000 0.43410  0.40200  0.53960  Biso   1.000  C
  C582     1.0000 0.06590  0.59800  0.03960  Biso   1.000  C
  C583     1.0000 0.56590  0.90200  0.96040  Biso   1.000  C
  C584     1.0000 0.93410  0.09800  0.46040  Biso   1.000  C
  C585     1.0000 0.35500  0.31500  0.55140  Biso   1.000  C
  C586     1.0000 0.14500  0.68500  0.05140  Biso   1.000  C
  C587     1.0000 0.64500  0.81500  0.94860  Biso   1.000  C
  C588     1.0000 0.85500  0.18500  0.44860  Biso   1.000  C
  C589     1.0000 0.38900  0.27400  0.67850  Biso   1.000  C
  C590     1.0000 0.11100  0.72600  0.17850  Biso   1.000  C
  C591     1.0000 0.61100  0.77400  0.82150  Biso   1.000  C
  C592     1.0000 0.88900  0.22600  0.32150  Biso   1.000  C
  C593     1.0000 0.47800  0.33200  0.72290  Biso   1.000  C
  C594     1.0000 0.02200  0.66800  0.22290  Biso   1.000  C
  C595     1.0000 0.52200  0.83200  0.77710  Biso   1.000  C
  C596     1.0000 0.97800  0.16800  0.27710  Biso   1.000  C
  C597     1.0000 0.46700  0.21100  0.72020  Biso   1.000  C
  C598     1.0000 0.03300  0.78900  0.22020  Biso   1.000  C
  C599     1.0000 0.53300  0.71100  0.77980  Biso   1.000  C
  C600     1.0000 0.96700  0.28900  0.27980  Biso   1.000  C
  Cl17     1.0000 0.92320  0.64460  0.58150  Biso   1.000  Cl
  Cl18     1.0000 0.57680  0.35540  0.08150  Biso   1.000  Cl
  Cl19     1.0000 0.07680  0.14460  0.91850  Biso   1.000  Cl
  Cl20     1.0000 0.42320  0.85540  0.41850  Biso   1.000  Cl
  Cl21     1.0000 0.82840  0.54090  0.59120  Biso   1.000  Cl
  Cl22     1.0000 0.67160  0.45910  0.09120  Biso   1.000  Cl
  Cl23     1.0000 0.17160  0.04090  0.90880  Biso   1.000  Cl
  Cl24     1.0000 0.32840  0.95910  0.40880  Biso   1.000  Cl
  C601     1.0000 0.88400  0.58200  0.56530  Biso   1.000  C
  C602     1.0000 0.61600  0.41800  0.06530  Biso   1.000  C
  C603     1.0000 0.11600  0.08200  0.93470  Biso   1.000  C
  C604     1.0000 0.38400  0.91800  0.43470  Biso   1.000  C
  H257     1.0000 0.92020  0.55430  0.55800  Biso   1.000  H
  H258     1.0000 0.57980  0.44570  0.05800  Biso   1.000  H
  H259     1.0000 0.07980  0.05430  0.94200  Biso   1.000  H
  H260     1.0000 0.42020  0.94570  0.44200  Biso   1.000  H
  H261     1.0000 0.86110  0.59290  0.54230  Biso   1.000  H
  H262     1.0000 0.63890  0.40710  0.04230  Biso   1.000  H
  H263     1.0000 0.13890  0.09290  0.95770  Biso   1.000  H
  H264     1.0000 0.36110  0.90710  0.45770  Biso   1.000  H
  Cl25     1.0000 0.01250  0.06730  0.58770  Biso   1.000  Cl
  Cl26     1.0000 0.48750  0.93270  0.08770  Biso   1.000  Cl
  Cl27     1.0000 0.98750  0.56730  0.91230  Biso   1.000  Cl
  Cl28     1.0000 0.51250  0.43270  0.41230  Biso   1.000  Cl
  Cl29     1.0000 0.99350  0.05500  0.51240  Biso   1.000  Cl
  Cl30     1.0000 0.50650  0.94500  0.01240  Biso   1.000  Cl
  Cl31     1.0000 0.00650  0.55500  0.98760  Biso   1.000  Cl
  Cl32     1.0000 0.49350  0.44500  0.48760  Biso   1.000  Cl
  C605     1.0000 0.94570  0.05500  0.55570  Biso   1.000  C
  C606     1.0000 0.55430  0.94500  0.05570  Biso   1.000  C
  C607     1.0000 0.05430  0.55500  0.94430  Biso   1.000  C
  C608     1.0000 0.44570  0.44500  0.44430  Biso   1.000  C
  H265     1.0000 0.91300  0.08770  0.55630  Biso   1.000  H
  H266     1.0000 0.58700  0.91230  0.05630  Biso   1.000  H
  H267     1.0000 0.08700  0.58770  0.94370  Biso   1.000  H
  H268     1.0000 0.41300  0.41230  0.44370  Biso   1.000  H
  H269     1.0000 0.92310  0.01760  0.56000  Biso   1.000  H
  H270     1.0000 0.57690  0.98240  0.06000  Biso   1.000  H
  H271     1.0000 0.07690  0.51760  0.94000  Biso   1.000  H
  H272     1.0000 0.42310  0.48240  0.44000  Biso   1.000  H
  Cl33     1.0000 0.96660  0.07310  0.58430  Biso   1.000  Cl
  Cl34     1.0000 0.53340  0.92690  0.08430  Biso   1.000  Cl
  Cl35     1.0000 0.03340  0.57310  0.91570  Biso   1.000  Cl
  Cl36     1.0000 0.46660  0.42690  0.41570  Biso   1.000  Cl
  Cl37     1.0000 0.11500  0.07860  0.59100  Biso   1.000  Cl
  Cl38     1.0000 0.38500  0.92140  0.09100  Biso   1.000  Cl
  Cl39     1.0000 0.88500  0.57860  0.90900  Biso   1.000  Cl
  Cl40     1.0000 0.61500  0.42140  0.40900  Biso   1.000  Cl
  C609     1.0000 0.04260  0.08000  0.56770  Biso   1.000  C
  C610     1.0000 0.45740  0.92000  0.06770  Biso   1.000  C
  C611     1.0000 0.95740  0.58000  0.93230  Biso   1.000  C
  C612     1.0000 0.54260  0.42000  0.43230  Biso   1.000  C
  H273     1.0000 0.04260  0.11820  0.55440  Biso   1.000  H
  H274     1.0000 0.45740  0.88180  0.05440  Biso   1.000  H
  H275     1.0000 0.95740  0.61820  0.94560  Biso   1.000  H
  H276     1.0000 0.54260  0.38180  0.44560  Biso   1.000  H
  H277     1.0000 0.04670  0.04960  0.54850  Biso   1.000  H
  H278     1.0000 0.45330  0.95040  0.04850  Biso   1.000  H
  H279     1.0000 0.95330  0.54960  0.95150  Biso   1.000  H
  H280     1.0000 0.54670  0.45040  0.45150  Biso   1.000  H
