data_image0
_cell_length_a       17.2369
_cell_length_b       35.5472
_cell_length_c       9.9845
_cell_angle_alpha    90
_cell_angle_beta     90
_cell_angle_gamma    90

_symmetry_space_group_name_H-M    "P 1"
_symmetry_int_tables_number       1

loop_
  _symmetry_equiv_pos_as_xyz
  'x, y, z'

loop_
  _atom_site_label
  _atom_site_occupancy
  _atom_site_fract_x
  _atom_site_fract_y
  _atom_site_fract_z
  _atom_site_thermal_displace_type
  _atom_site_B_iso_or_equiv
  _atom_site_type_symbol
  Nb1      1.0000 0.87500  0.87500  0.37500  Biso   1.000  Nb
  Nb2      1.0000 0.87500  0.37500  0.87500  Biso   1.000  Nb
  Nb3      1.0000 0.37500  0.87500  0.87500  Biso   1.000  Nb
  Nb4      1.0000 0.37500  0.37500  0.37500  Biso   1.000  Nb
  Nb5      1.0000 0.12500  0.12500  0.62500  Biso   1.000  Nb
  Nb6      1.0000 0.62500  0.62500  0.62500  Biso   1.000  Nb
  Nb7      1.0000 0.62500  0.12500  0.12500  Biso   1.000  Nb
  Nb8      1.0000 0.12500  0.62500  0.12500  Biso   1.000  Nb
  Cu1      1.0000 0.87500  0.75794  0.37500  Biso   1.000  Cu
  Cu2      1.0000 0.87500  0.99206  0.37500  Biso   1.000  Cu
  Cu3      1.0000 0.87500  0.25794  0.87500  Biso   1.000  Cu
  Cu4      1.0000 0.87500  0.49206  0.87500  Biso   1.000  Cu
  Cu5      1.0000 0.37500  0.75794  0.87500  Biso   1.000  Cu
  Cu6      1.0000 0.37500  0.99206  0.87500  Biso   1.000  Cu
  Cu7      1.0000 0.37500  0.25794  0.37500  Biso   1.000  Cu
  Cu8      1.0000 0.37500  0.49206  0.37500  Biso   1.000  Cu
  Cu9      1.0000 0.12500  0.24206  0.62500  Biso   1.000  Cu
  Cu10     1.0000 0.62500  0.50794  0.62500  Biso   1.000  Cu
  Cu11     1.0000 0.62500  0.24206  0.12500  Biso   1.000  Cu
  Cu12     1.0000 0.12500  0.50794  0.12500  Biso   1.000  Cu
  Cu13     1.0000 0.12500  0.74206  0.12500  Biso   1.000  Cu
  Cu14     1.0000 0.62500  0.00794  0.12500  Biso   1.000  Cu
  Cu15     1.0000 0.62500  0.74206  0.62500  Biso   1.000  Cu
  Cu16     1.0000 0.12500  0.00794  0.62500  Biso   1.000  Cu
  F1       1.0000 0.87500  0.82200  0.37500  Biso   1.000  F
  F2       1.0000 0.87500  0.92800  0.37500  Biso   1.000  F
  F3       1.0000 0.87500  0.32200  0.87500  Biso   1.000  F
  F4       1.0000 0.87500  0.42800  0.87500  Biso   1.000  F
  F5       1.0000 0.37500  0.82200  0.87500  Biso   1.000  F
  F6       1.0000 0.37500  0.92800  0.87500  Biso   1.000  F
  F7       1.0000 0.37500  0.32200  0.37500  Biso   1.000  F
  F8       1.0000 0.37500  0.42800  0.37500  Biso   1.000  F
  F9       1.0000 0.12500  0.17800  0.62500  Biso   1.000  F
  F10      1.0000 0.62500  0.57200  0.62500  Biso   1.000  F
  F11      1.0000 0.62500  0.17800  0.12500  Biso   1.000  F
  F12      1.0000 0.12500  0.57200  0.12500  Biso   1.000  F
  F13      1.0000 0.12500  0.67800  0.12500  Biso   1.000  F
  F14      1.0000 0.62500  0.07200  0.12500  Biso   1.000  F
  F15      1.0000 0.62500  0.67800  0.62500  Biso   1.000  F
  F16      1.0000 0.12500  0.07200  0.62500  Biso   1.000  F
  F17      1.0000 0.87500  0.87500  0.56940  Biso   1.000  F
  F18      1.0000 0.87500  0.87500  0.18060  Biso   1.000  F
  F19      1.0000 0.87500  0.37500  0.06940  Biso   1.000  F
  F20      1.0000 0.87500  0.37500  0.68060  Biso   1.000  F
  F21      1.0000 0.37500  0.87500  0.06940  Biso   1.000  F
  F22      1.0000 0.37500  0.87500  0.68060  Biso   1.000  F
  F23      1.0000 0.37500  0.37500  0.56940  Biso   1.000  F
  F24      1.0000 0.37500  0.37500  0.18060  Biso   1.000  F
  F25      1.0000 0.12500  0.12500  0.43060  Biso   1.000  F
  F26      1.0000 0.62500  0.62500  0.43060  Biso   1.000  F
  F27      1.0000 0.62500  0.12500  0.31940  Biso   1.000  F
  F28      1.0000 0.12500  0.62500  0.31940  Biso   1.000  F
  F29      1.0000 0.12500  0.62500  0.93060  Biso   1.000  F
  F30      1.0000 0.62500  0.12500  0.93060  Biso   1.000  F
  F31      1.0000 0.62500  0.62500  0.81940  Biso   1.000  F
  F32      1.0000 0.12500  0.12500  0.81940  Biso   1.000  F
  F33      1.0000 0.98920  0.87500  0.37500  Biso   1.000  F
  F34      1.0000 0.76080  0.87500  0.37500  Biso   1.000  F
  F35      1.0000 0.98920  0.37500  0.87500  Biso   1.000  F
  F36      1.0000 0.76080  0.37500  0.87500  Biso   1.000  F
  F37      1.0000 0.48920  0.87500  0.87500  Biso   1.000  F
  F38      1.0000 0.26080  0.87500  0.87500  Biso   1.000  F
  F39      1.0000 0.48920  0.37500  0.37500  Biso   1.000  F
  F40      1.0000 0.26080  0.37500  0.37500  Biso   1.000  F
  F41      1.0000 0.01080  0.12500  0.62500  Biso   1.000  F
  F42      1.0000 0.73920  0.62500  0.62500  Biso   1.000  F
  F43      1.0000 0.73920  0.12500  0.12500  Biso   1.000  F
  F44      1.0000 0.01080  0.62500  0.12500  Biso   1.000  F
  F45      1.0000 0.51080  0.12500  0.12500  Biso   1.000  F
  F46      1.0000 0.23920  0.62500  0.12500  Biso   1.000  F
  F47      1.0000 0.23920  0.12500  0.62500  Biso   1.000  F
  F48      1.0000 0.51080  0.62500  0.62500  Biso   1.000  F
  N1       1.0000 0.76970  0.75150  0.33630  Biso   1.000  N
  N2       1.0000 0.98030  0.99850  0.33630  Biso   1.000  N
  N3       1.0000 0.98030  0.75150  0.41370  Biso   1.000  N
  N4       1.0000 0.76970  0.99850  0.41370  Biso   1.000  N
  N5       1.0000 0.76970  0.25150  0.83630  Biso   1.000  N
  N6       1.0000 0.98030  0.49850  0.83630  Biso   1.000  N
  N7       1.0000 0.98030  0.25150  0.91370  Biso   1.000  N
  N8       1.0000 0.76970  0.49850  0.91370  Biso   1.000  N
  N9       1.0000 0.26970  0.75150  0.83630  Biso   1.000  N
  N10      1.0000 0.48030  0.99850  0.83630  Biso   1.000  N
  N11      1.0000 0.48030  0.75150  0.91370  Biso   1.000  N
  N12      1.0000 0.26970  0.99850  0.91370  Biso   1.000  N
  N13      1.0000 0.26970  0.25150  0.33630  Biso   1.000  N
  N14      1.0000 0.48030  0.49850  0.33630  Biso   1.000  N
  N15      1.0000 0.48030  0.25150  0.41370  Biso   1.000  N
  N16      1.0000 0.26970  0.49850  0.41370  Biso   1.000  N
  N17      1.0000 0.23030  0.24850  0.66370  Biso   1.000  N
  N18      1.0000 0.51970  0.50150  0.66370  Biso   1.000  N
  N19      1.0000 0.51970  0.24850  0.08630  Biso   1.000  N
  N20      1.0000 0.23030  0.50150  0.08630  Biso   1.000  N
  N21      1.0000 0.23030  0.74850  0.16370  Biso   1.000  N
  N22      1.0000 0.51970  0.00150  0.16370  Biso   1.000  N
  N23      1.0000 0.51970  0.74850  0.58630  Biso   1.000  N
  N24      1.0000 0.23030  0.00150  0.58630  Biso   1.000  N
  N25      1.0000 0.73030  0.24850  0.16370  Biso   1.000  N
  N26      1.0000 0.01970  0.50150  0.16370  Biso   1.000  N
  N27      1.0000 0.01970  0.24850  0.58630  Biso   1.000  N
  N28      1.0000 0.73030  0.50150  0.58630  Biso   1.000  N
  N29      1.0000 0.73030  0.74850  0.66370  Biso   1.000  N
  N30      1.0000 0.01970  0.00150  0.66370  Biso   1.000  N
  N31      1.0000 0.01970  0.74850  0.08630  Biso   1.000  N
  N32      1.0000 0.73030  0.00150  0.08630  Biso   1.000  N
  C1       1.0000 0.73630  0.71670  0.32810  Biso   1.000  C
  C2       1.0000 0.01370  0.03330  0.32810  Biso   1.000  C
  C3       1.0000 0.01370  0.71670  0.42190  Biso   1.000  C
  C4       1.0000 0.73630  0.03330  0.42190  Biso   1.000  C
  C5       1.0000 0.73630  0.21670  0.82810  Biso   1.000  C
  C6       1.0000 0.01370  0.53330  0.82810  Biso   1.000  C
  C7       1.0000 0.01370  0.21670  0.92190  Biso   1.000  C
  C8       1.0000 0.73630  0.53330  0.92190  Biso   1.000  C
  C9       1.0000 0.23630  0.71670  0.82810  Biso   1.000  C
  C10      1.0000 0.51370  0.03330  0.82810  Biso   1.000  C
  C11      1.0000 0.51370  0.71670  0.92190  Biso   1.000  C
  C12      1.0000 0.23630  0.03330  0.92190  Biso   1.000  C
  C13      1.0000 0.23630  0.21670  0.32810  Biso   1.000  C
  C14      1.0000 0.51370  0.53330  0.32810  Biso   1.000  C
  C15      1.0000 0.51370  0.21670  0.42190  Biso   1.000  C
  C16      1.0000 0.23630  0.53330  0.42190  Biso   1.000  C
  C17      1.0000 0.26370  0.28330  0.67190  Biso   1.000  C
  C18      1.0000 0.48630  0.46670  0.67190  Biso   1.000  C
  C19      1.0000 0.48630  0.28330  0.07810  Biso   1.000  C
  C20      1.0000 0.26370  0.46670  0.07810  Biso   1.000  C
  C21      1.0000 0.26370  0.78330  0.17190  Biso   1.000  C
  C22      1.0000 0.48630  0.96670  0.17190  Biso   1.000  C
  C23      1.0000 0.48630  0.78330  0.57810  Biso   1.000  C
  C24      1.0000 0.26370  0.96670  0.57810  Biso   1.000  C
  C25      1.0000 0.76370  0.28330  0.17190  Biso   1.000  C
  C26      1.0000 0.98630  0.46670  0.17190  Biso   1.000  C
  C27      1.0000 0.98630  0.28330  0.57810  Biso   1.000  C
  C28      1.0000 0.76370  0.46670  0.57810  Biso   1.000  C
  C29      1.0000 0.76370  0.78330  0.67190  Biso   1.000  C
  C30      1.0000 0.98630  0.96670  0.67190  Biso   1.000  C
  C31      1.0000 0.98630  0.78330  0.07810  Biso   1.000  C
  C32      1.0000 0.76370  0.96670  0.07810  Biso   1.000  C
  H1       1.0000 0.76780  0.69550  0.33490  Biso   1.000  H
  H2       1.0000 0.98220  0.05450  0.33490  Biso   1.000  H
  H3       1.0000 0.98220  0.69550  0.41510  Biso   1.000  H
  H4       1.0000 0.76780  0.05450  0.41510  Biso   1.000  H
  H5       1.0000 0.76780  0.19550  0.83490  Biso   1.000  H
  H6       1.0000 0.98220  0.55450  0.83490  Biso   1.000  H
  H7       1.0000 0.98220  0.19550  0.91510  Biso   1.000  H
  H8       1.0000 0.76780  0.55450  0.91510  Biso   1.000  H
  H9       1.0000 0.26780  0.69550  0.83490  Biso   1.000  H
  H10      1.0000 0.48220  0.05450  0.83490  Biso   1.000  H
  H11      1.0000 0.48220  0.69550  0.91510  Biso   1.000  H
  H12      1.0000 0.26780  0.05450  0.91510  Biso   1.000  H
  H13      1.0000 0.26780  0.19550  0.33490  Biso   1.000  H
  H14      1.0000 0.48220  0.55450  0.33490  Biso   1.000  H
  H15      1.0000 0.48220  0.19550  0.41510  Biso   1.000  H
  H16      1.0000 0.26780  0.55450  0.41510  Biso   1.000  H
  H17      1.0000 0.23220  0.30450  0.66510  Biso   1.000  H
  H18      1.0000 0.51780  0.44550  0.66510  Biso   1.000  H
  H19      1.0000 0.51780  0.30450  0.08490  Biso   1.000  H
  H20      1.0000 0.23220  0.44550  0.08490  Biso   1.000  H
  H21      1.0000 0.23220  0.80450  0.16510  Biso   1.000  H
  H22      1.0000 0.51780  0.94550  0.16510  Biso   1.000  H
  H23      1.0000 0.51780  0.80450  0.58490  Biso   1.000  H
  H24      1.0000 0.23220  0.94550  0.58490  Biso   1.000  H
  H25      1.0000 0.73220  0.30450  0.16510  Biso   1.000  H
  H26      1.0000 0.01780  0.44550  0.16510  Biso   1.000  H
  H27      1.0000 0.01780  0.30450  0.58490  Biso   1.000  H
  H28      1.0000 0.73220  0.44550  0.58490  Biso   1.000  H
  H29      1.0000 0.73220  0.80450  0.66510  Biso   1.000  H
  H30      1.0000 0.01780  0.94550  0.66510  Biso   1.000  H
  H31      1.0000 0.01780  0.80450  0.08490  Biso   1.000  H
  H32      1.0000 0.73220  0.94550  0.08490  Biso   1.000  H
  C33      1.0000 0.65680  0.71180  0.30990  Biso   1.000  C
  C34      1.0000 0.09320  0.03820  0.30990  Biso   1.000  C
  C35      1.0000 0.09320  0.71180  0.44010  Biso   1.000  C
  C36      1.0000 0.65680  0.03820  0.44010  Biso   1.000  C
  C37      1.0000 0.65680  0.21180  0.80990  Biso   1.000  C
  C38      1.0000 0.09320  0.53820  0.80990  Biso   1.000  C
  C39      1.0000 0.09320  0.21180  0.94010  Biso   1.000  C
  C40      1.0000 0.65680  0.53820  0.94010  Biso   1.000  C
  C41      1.0000 0.15680  0.71180  0.80990  Biso   1.000  C
  C42      1.0000 0.59320  0.03820  0.80990  Biso   1.000  C
  C43      1.0000 0.59320  0.71180  0.94010  Biso   1.000  C
  C44      1.0000 0.15680  0.03820  0.94010  Biso   1.000  C
  C45      1.0000 0.15680  0.21180  0.30990  Biso   1.000  C
  C46      1.0000 0.59320  0.53820  0.30990  Biso   1.000  C
  C47      1.0000 0.59320  0.21180  0.44010  Biso   1.000  C
  C48      1.0000 0.15680  0.53820  0.44010  Biso   1.000  C
  C49      1.0000 0.34320  0.28820  0.69010  Biso   1.000  C
  C50      1.0000 0.40680  0.46180  0.69010  Biso   1.000  C
  C51      1.0000 0.40680  0.28820  0.05990  Biso   1.000  C
  C52      1.0000 0.34320  0.46180  0.05990  Biso   1.000  C
  C53      1.0000 0.34320  0.78820  0.19010  Biso   1.000  C
  C54      1.0000 0.40680  0.96180  0.19010  Biso   1.000  C
  C55      1.0000 0.40680  0.78820  0.55990  Biso   1.000  C
  C56      1.0000 0.34320  0.96180  0.55990  Biso   1.000  C
  C57      1.0000 0.84320  0.28820  0.19010  Biso   1.000  C
  C58      1.0000 0.90680  0.46180  0.19010  Biso   1.000  C
  C59      1.0000 0.90680  0.28820  0.55990  Biso   1.000  C
  C60      1.0000 0.84320  0.46180  0.55990  Biso   1.000  C
  C61      1.0000 0.84320  0.78820  0.69010  Biso   1.000  C
  C62      1.0000 0.90680  0.96180  0.69010  Biso   1.000  C
  C63      1.0000 0.90680  0.78820  0.05990  Biso   1.000  C
  C64      1.0000 0.84320  0.96180  0.05990  Biso   1.000  C
  H33      1.0000 0.63610  0.68760  0.31160  Biso   1.000  H
  H34      1.0000 0.11390  0.06240  0.31160  Biso   1.000  H
  H35      1.0000 0.11390  0.68760  0.43840  Biso   1.000  H
  H36      1.0000 0.63610  0.06240  0.43840  Biso   1.000  H
  H37      1.0000 0.63610  0.18760  0.81160  Biso   1.000  H
  H38      1.0000 0.11390  0.56240  0.81160  Biso   1.000  H
  H39      1.0000 0.11390  0.18760  0.93840  Biso   1.000  H
  H40      1.0000 0.63610  0.56240  0.93840  Biso   1.000  H
  H41      1.0000 0.13610  0.68760  0.81160  Biso   1.000  H
  H42      1.0000 0.61390  0.06240  0.81160  Biso   1.000  H
  H43      1.0000 0.61390  0.68760  0.93840  Biso   1.000  H
  H44      1.0000 0.13610  0.06240  0.93840  Biso   1.000  H
  H45      1.0000 0.13610  0.18760  0.31160  Biso   1.000  H
  H46      1.0000 0.61390  0.56240  0.31160  Biso   1.000  H
  H47      1.0000 0.61390  0.18760  0.43840  Biso   1.000  H
  H48      1.0000 0.13610  0.56240  0.43840  Biso   1.000  H
  H49      1.0000 0.36390  0.31240  0.68840  Biso   1.000  H
  H50      1.0000 0.38610  0.43760  0.68840  Biso   1.000  H
  H51      1.0000 0.38610  0.31240  0.06160  Biso   1.000  H
  H52      1.0000 0.36390  0.43760  0.06160  Biso   1.000  H
  H53      1.0000 0.36390  0.81240  0.18840  Biso   1.000  H
  H54      1.0000 0.38610  0.93760  0.18840  Biso   1.000  H
  H55      1.0000 0.38610  0.81240  0.56160  Biso   1.000  H
  H56      1.0000 0.36390  0.93760  0.56160  Biso   1.000  H
  H57      1.0000 0.86390  0.31240  0.18840  Biso   1.000  H
  H58      1.0000 0.88610  0.43760  0.18840  Biso   1.000  H
  H59      1.0000 0.88610  0.31240  0.56160  Biso   1.000  H
  H60      1.0000 0.86390  0.43760  0.56160  Biso   1.000  H
  H61      1.0000 0.86390  0.81240  0.68840  Biso   1.000  H
  H62      1.0000 0.88610  0.93760  0.68840  Biso   1.000  H
  H63      1.0000 0.88610  0.81240  0.06160  Biso   1.000  H
  H64      1.0000 0.86390  0.93760  0.06160  Biso   1.000  H
  C65      1.0000 0.60730  0.74250  0.28900  Biso   1.000  C
  C66      1.0000 0.14270  0.00750  0.28900  Biso   1.000  C
  C67      1.0000 0.14270  0.74250  0.46100  Biso   1.000  C
  C68      1.0000 0.60730  0.00750  0.46100  Biso   1.000  C
  C69      1.0000 0.60730  0.24250  0.78900  Biso   1.000  C
  C70      1.0000 0.14270  0.50750  0.78900  Biso   1.000  C
  C71      1.0000 0.14270  0.24250  0.96100  Biso   1.000  C
  C72      1.0000 0.60730  0.50750  0.96100  Biso   1.000  C
  C73      1.0000 0.10730  0.74250  0.78900  Biso   1.000  C
  C74      1.0000 0.64270  0.00750  0.78900  Biso   1.000  C
  C75      1.0000 0.64270  0.74250  0.96100  Biso   1.000  C
  C76      1.0000 0.10730  0.00750  0.96100  Biso   1.000  C
  C77      1.0000 0.10730  0.24250  0.28900  Biso   1.000  C
  C78      1.0000 0.64270  0.50750  0.28900  Biso   1.000  C
  C79      1.0000 0.64270  0.24250  0.46100  Biso   1.000  C
  C80      1.0000 0.10730  0.50750  0.46100  Biso   1.000  C
  C81      1.0000 0.39270  0.25750  0.71100  Biso   1.000  C
  C82      1.0000 0.35730  0.49250  0.71100  Biso   1.000  C
  C83      1.0000 0.35730  0.25750  0.03900  Biso   1.000  C
  C84      1.0000 0.39270  0.49250  0.03900  Biso   1.000  C
  C85      1.0000 0.39270  0.75750  0.21100  Biso   1.000  C
  C86      1.0000 0.35730  0.99250  0.21100  Biso   1.000  C
  C87      1.0000 0.35730  0.75750  0.53900  Biso   1.000  C
  C88      1.0000 0.39270  0.99250  0.53900  Biso   1.000  C
  C89      1.0000 0.89270  0.25750  0.21100  Biso   1.000  C
  C90      1.0000 0.85730  0.49250  0.21100  Biso   1.000  C
  C91      1.0000 0.85730  0.25750  0.53900  Biso   1.000  C
  C92      1.0000 0.89270  0.49250  0.53900  Biso   1.000  C
  C93      1.0000 0.89270  0.75750  0.71100  Biso   1.000  C
  C94      1.0000 0.85730  0.99250  0.71100  Biso   1.000  C
  C95      1.0000 0.85730  0.75750  0.03900  Biso   1.000  C
  C96      1.0000 0.89270  0.99250  0.03900  Biso   1.000  C
  C97      1.0000 0.64130  0.77790  0.30650  Biso   1.000  C
  C98      1.0000 0.10870  0.97210  0.30650  Biso   1.000  C
  C99      1.0000 0.10870  0.77790  0.44350  Biso   1.000  C
  C100     1.0000 0.64130  0.97210  0.44350  Biso   1.000  C
  C101     1.0000 0.64130  0.27790  0.80650  Biso   1.000  C
  C102     1.0000 0.10870  0.47210  0.80650  Biso   1.000  C
  C103     1.0000 0.10870  0.27790  0.94350  Biso   1.000  C
  C104     1.0000 0.64130  0.47210  0.94350  Biso   1.000  C
  C105     1.0000 0.14130  0.77790  0.80650  Biso   1.000  C
  C106     1.0000 0.60870  0.97210  0.80650  Biso   1.000  C
  C107     1.0000 0.60870  0.77790  0.94350  Biso   1.000  C
  C108     1.0000 0.14130  0.97210  0.94350  Biso   1.000  C
  C109     1.0000 0.14130  0.27790  0.30650  Biso   1.000  C
  C110     1.0000 0.60870  0.47210  0.30650  Biso   1.000  C
  C111     1.0000 0.60870  0.27790  0.44350  Biso   1.000  C
  C112     1.0000 0.14130  0.47210  0.44350  Biso   1.000  C
  C113     1.0000 0.35870  0.22210  0.69350  Biso   1.000  C
  C114     1.0000 0.39130  0.52790  0.69350  Biso   1.000  C
  C115     1.0000 0.39130  0.22210  0.05650  Biso   1.000  C
  C116     1.0000 0.35870  0.52790  0.05650  Biso   1.000  C
  C117     1.0000 0.35870  0.72210  0.19350  Biso   1.000  C
  C118     1.0000 0.39130  0.02790  0.19350  Biso   1.000  C
  C119     1.0000 0.39130  0.72210  0.55650  Biso   1.000  C
  C120     1.0000 0.35870  0.02790  0.55650  Biso   1.000  C
  C121     1.0000 0.85870  0.22210  0.19350  Biso   1.000  C
  C122     1.0000 0.89130  0.52790  0.19350  Biso   1.000  C
  C123     1.0000 0.89130  0.22210  0.55650  Biso   1.000  C
  C124     1.0000 0.85870  0.52790  0.55650  Biso   1.000  C
  C125     1.0000 0.85870  0.72210  0.69350  Biso   1.000  C
  C126     1.0000 0.89130  0.02790  0.69350  Biso   1.000  C
  C127     1.0000 0.89130  0.72210  0.05650  Biso   1.000  C
  C128     1.0000 0.85870  0.02790  0.05650  Biso   1.000  C
  H65      1.0000 0.61060  0.79940  0.30820  Biso   1.000  H
  H66      1.0000 0.13940  0.95060  0.30820  Biso   1.000  H
  H67      1.0000 0.13940  0.79940  0.44180  Biso   1.000  H
  H68      1.0000 0.61060  0.95060  0.44180  Biso   1.000  H
  H69      1.0000 0.61060  0.29940  0.80820  Biso   1.000  H
  H70      1.0000 0.13940  0.45060  0.80820  Biso   1.000  H
  H71      1.0000 0.13940  0.29940  0.94180  Biso   1.000  H
  H72      1.0000 0.61060  0.45060  0.94180  Biso   1.000  H
  H73      1.0000 0.11060  0.79940  0.80820  Biso   1.000  H
  H74      1.0000 0.63940  0.95060  0.80820  Biso   1.000  H
  H75      1.0000 0.63940  0.79940  0.94180  Biso   1.000  H
  H76      1.0000 0.11060  0.95060  0.94180  Biso   1.000  H
  H77      1.0000 0.11060  0.29940  0.30820  Biso   1.000  H
  H78      1.0000 0.63940  0.45060  0.30820  Biso   1.000  H
  H79      1.0000 0.63940  0.29940  0.44180  Biso   1.000  H
  H80      1.0000 0.11060  0.45060  0.44180  Biso   1.000  H
  H81      1.0000 0.38940  0.20060  0.69180  Biso   1.000  H
  H82      1.0000 0.36060  0.54940  0.69180  Biso   1.000  H
  H83      1.0000 0.36060  0.20060  0.05820  Biso   1.000  H
  H84      1.0000 0.38940  0.54940  0.05820  Biso   1.000  H
  H85      1.0000 0.38940  0.70060  0.19180  Biso   1.000  H
  H86      1.0000 0.36060  0.04940  0.19180  Biso   1.000  H
  H87      1.0000 0.36060  0.70060  0.55820  Biso   1.000  H
  H88      1.0000 0.38940  0.04940  0.55820  Biso   1.000  H
  H89      1.0000 0.88940  0.20060  0.19180  Biso   1.000  H
  H90      1.0000 0.86060  0.54940  0.19180  Biso   1.000  H
  H91      1.0000 0.86060  0.20060  0.55820  Biso   1.000  H
  H92      1.0000 0.88940  0.54940  0.55820  Biso   1.000  H
  H93      1.0000 0.88940  0.70060  0.69180  Biso   1.000  H
  H94      1.0000 0.86060  0.04940  0.69180  Biso   1.000  H
  H95      1.0000 0.86060  0.70060  0.05820  Biso   1.000  H
  H96      1.0000 0.88940  0.04940  0.05820  Biso   1.000  H
  C129     1.0000 0.72240  0.78080  0.32160  Biso   1.000  C
  C130     1.0000 0.02760  0.96920  0.32160  Biso   1.000  C
  C131     1.0000 0.02760  0.78080  0.42840  Biso   1.000  C
  C132     1.0000 0.72240  0.96920  0.42840  Biso   1.000  C
  C133     1.0000 0.72240  0.28080  0.82160  Biso   1.000  C
  C134     1.0000 0.02760  0.46920  0.82160  Biso   1.000  C
  C135     1.0000 0.02760  0.28080  0.92840  Biso   1.000  C
  C136     1.0000 0.72240  0.46920  0.92840  Biso   1.000  C
  C137     1.0000 0.22240  0.78080  0.82160  Biso   1.000  C
  C138     1.0000 0.52760  0.96920  0.82160  Biso   1.000  C
  C139     1.0000 0.52760  0.78080  0.92840  Biso   1.000  C
  C140     1.0000 0.22240  0.96920  0.92840  Biso   1.000  C
  C141     1.0000 0.22240  0.28080  0.32160  Biso   1.000  C
  C142     1.0000 0.52760  0.46920  0.32160  Biso   1.000  C
  C143     1.0000 0.52760  0.28080  0.42840  Biso   1.000  C
  C144     1.0000 0.22240  0.46920  0.42840  Biso   1.000  C
  C145     1.0000 0.27760  0.21920  0.67840  Biso   1.000  C
  C146     1.0000 0.47240  0.53080  0.67840  Biso   1.000  C
  C147     1.0000 0.47240  0.21920  0.07160  Biso   1.000  C
  C148     1.0000 0.27760  0.53080  0.07160  Biso   1.000  C
  C149     1.0000 0.27760  0.71920  0.17840  Biso   1.000  C
  C150     1.0000 0.47240  0.03080  0.17840  Biso   1.000  C
  C151     1.0000 0.47240  0.71920  0.57160  Biso   1.000  C
  C152     1.0000 0.27760  0.03080  0.57160  Biso   1.000  C
  C153     1.0000 0.77760  0.21920  0.17840  Biso   1.000  C
  C154     1.0000 0.97240  0.53080  0.17840  Biso   1.000  C
  C155     1.0000 0.97240  0.21920  0.57160  Biso   1.000  C
  C156     1.0000 0.77760  0.53080  0.57160  Biso   1.000  C
  C157     1.0000 0.77760  0.71920  0.67840  Biso   1.000  C
  C158     1.0000 0.97240  0.03080  0.67840  Biso   1.000  C
  C159     1.0000 0.97240  0.71920  0.07160  Biso   1.000  C
  C160     1.0000 0.77760  0.03080  0.07160  Biso   1.000  C
  H97      1.0000 0.74420  0.80470  0.32130  Biso   1.000  H
  H98      1.0000 0.00580  0.94530  0.32130  Biso   1.000  H
  H99      1.0000 0.00580  0.80470  0.42870  Biso   1.000  H
  H100     1.0000 0.74420  0.94530  0.42870  Biso   1.000  H
  H101     1.0000 0.74420  0.30470  0.82130  Biso   1.000  H
  H102     1.0000 0.00580  0.44530  0.82130  Biso   1.000  H
  H103     1.0000 0.00580  0.30470  0.92870  Biso   1.000  H
  H104     1.0000 0.74420  0.44530  0.92870  Biso   1.000  H
  H105     1.0000 0.24420  0.80470  0.82130  Biso   1.000  H
  H106     1.0000 0.50580  0.94530  0.82130  Biso   1.000  H
  H107     1.0000 0.50580  0.80470  0.92870  Biso   1.000  H
  H108     1.0000 0.24420  0.94530  0.92870  Biso   1.000  H
  H109     1.0000 0.24420  0.30470  0.32130  Biso   1.000  H
  H110     1.0000 0.50580  0.44530  0.32130  Biso   1.000  H
  H111     1.0000 0.50580  0.30470  0.42870  Biso   1.000  H
  H112     1.0000 0.24420  0.44530  0.42870  Biso   1.000  H
  H113     1.0000 0.25580  0.19530  0.67870  Biso   1.000  H
  H114     1.0000 0.49420  0.55470  0.67870  Biso   1.000  H
  H115     1.0000 0.49420  0.19530  0.07130  Biso   1.000  H
  H116     1.0000 0.25580  0.55470  0.07130  Biso   1.000  H
  H117     1.0000 0.25580  0.69530  0.17870  Biso   1.000  H
  H118     1.0000 0.49420  0.05470  0.17870  Biso   1.000  H
  H119     1.0000 0.49420  0.69530  0.57130  Biso   1.000  H
  H120     1.0000 0.25580  0.05470  0.57130  Biso   1.000  H
  H121     1.0000 0.75580  0.19530  0.17870  Biso   1.000  H
  H122     1.0000 0.99420  0.55470  0.17870  Biso   1.000  H
  H123     1.0000 0.99420  0.19530  0.57130  Biso   1.000  H
  H124     1.0000 0.75580  0.55470  0.57130  Biso   1.000  H
  H125     1.0000 0.75580  0.69530  0.67870  Biso   1.000  H
  H126     1.0000 0.99420  0.05470  0.67870  Biso   1.000  H
  H127     1.0000 0.99420  0.69530  0.07130  Biso   1.000  H
  H128     1.0000 0.75580  0.05470  0.07130  Biso   1.000  H
  C161     1.0000 0.52510  0.73690  0.26250  Biso   1.000  C
  C162     1.0000 0.22490  0.01310  0.26250  Biso   1.000  C
  C163     1.0000 0.22490  0.73690  0.48750  Biso   1.000  C
  C164     1.0000 0.52510  0.01310  0.48750  Biso   1.000  C
  C165     1.0000 0.52510  0.23690  0.76250  Biso   1.000  C
  C166     1.0000 0.22490  0.51310  0.76250  Biso   1.000  C
  C167     1.0000 0.22490  0.23690  0.98750  Biso   1.000  C
  C168     1.0000 0.52510  0.51310  0.98750  Biso   1.000  C
  C169     1.0000 0.02510  0.73690  0.76250  Biso   1.000  C
  C170     1.0000 0.72490  0.01310  0.76250  Biso   1.000  C
  C171     1.0000 0.72490  0.73690  0.98750  Biso   1.000  C
  C172     1.0000 0.02510  0.01310  0.98750  Biso   1.000  C
  C173     1.0000 0.02510  0.23690  0.26250  Biso   1.000  C
  C174     1.0000 0.72490  0.51310  0.26250  Biso   1.000  C
  C175     1.0000 0.72490  0.23690  0.48750  Biso   1.000  C
  C176     1.0000 0.02510  0.51310  0.48750  Biso   1.000  C
  C177     1.0000 0.47490  0.26310  0.73750  Biso   1.000  C
  C178     1.0000 0.27510  0.48690  0.73750  Biso   1.000  C
  C179     1.0000 0.27510  0.26310  0.01250  Biso   1.000  C
  C180     1.0000 0.47490  0.48690  0.01250  Biso   1.000  C
  C181     1.0000 0.47490  0.76310  0.23750  Biso   1.000  C
  C182     1.0000 0.27510  0.98690  0.23750  Biso   1.000  C
  C183     1.0000 0.27510  0.76310  0.51250  Biso   1.000  C
  C184     1.0000 0.47490  0.98690  0.51250  Biso   1.000  C
  C185     1.0000 0.97490  0.26310  0.23750  Biso   1.000  C
  C186     1.0000 0.77510  0.48690  0.23750  Biso   1.000  C
  C187     1.0000 0.77510  0.26310  0.51250  Biso   1.000  C
  C188     1.0000 0.97490  0.48690  0.51250  Biso   1.000  C
  C189     1.0000 0.97490  0.76310  0.73750  Biso   1.000  C
  C190     1.0000 0.77510  0.98690  0.73750  Biso   1.000  C
  C191     1.0000 0.77510  0.76310  0.01250  Biso   1.000  C
  C192     1.0000 0.97490  0.98690  0.01250  Biso   1.000  C
  H129     1.0000 0.50690  0.71230  0.26360  Biso   1.000  H
  H130     1.0000 0.24310  0.03770  0.26360  Biso   1.000  H
  H131     1.0000 0.24310  0.71230  0.48640  Biso   1.000  H
  H132     1.0000 0.50690  0.03770  0.48640  Biso   1.000  H
  H133     1.0000 0.50690  0.21230  0.76360  Biso   1.000  H
  H134     1.0000 0.24310  0.53770  0.76360  Biso   1.000  H
  H135     1.0000 0.24310  0.21230  0.98640  Biso   1.000  H
  H136     1.0000 0.50690  0.53770  0.98640  Biso   1.000  H
  H137     1.0000 0.00690  0.71230  0.76360  Biso   1.000  H
  H138     1.0000 0.74310  0.03770  0.76360  Biso   1.000  H
  H139     1.0000 0.74310  0.71230  0.98640  Biso   1.000  H
  H140     1.0000 0.00690  0.03770  0.98640  Biso   1.000  H
  H141     1.0000 0.00690  0.21230  0.26360  Biso   1.000  H
  H142     1.0000 0.74310  0.53770  0.26360  Biso   1.000  H
  H143     1.0000 0.74310  0.21230  0.48640  Biso   1.000  H
  H144     1.0000 0.00690  0.53770  0.48640  Biso   1.000  H
  H145     1.0000 0.49310  0.28770  0.73640  Biso   1.000  H
  H146     1.0000 0.25690  0.46230  0.73640  Biso   1.000  H
  H147     1.0000 0.25690  0.28770  0.01360  Biso   1.000  H
  H148     1.0000 0.49310  0.46230  0.01360  Biso   1.000  H
  H149     1.0000 0.49310  0.78770  0.23640  Biso   1.000  H
  H150     1.0000 0.25690  0.96230  0.23640  Biso   1.000  H
  H151     1.0000 0.25690  0.78770  0.51360  Biso   1.000  H
  H152     1.0000 0.49310  0.96230  0.51360  Biso   1.000  H
  H153     1.0000 0.99310  0.28770  0.23640  Biso   1.000  H
  H154     1.0000 0.75690  0.46230  0.23640  Biso   1.000  H
  H155     1.0000 0.75690  0.28770  0.51360  Biso   1.000  H
  H156     1.0000 0.99310  0.46230  0.51360  Biso   1.000  H
  H157     1.0000 0.99310  0.78770  0.73640  Biso   1.000  H
  H158     1.0000 0.75690  0.96230  0.73640  Biso   1.000  H
  H159     1.0000 0.75690  0.78770  0.01360  Biso   1.000  H
  H160     1.0000 0.99310  0.96230  0.01360  Biso   1.000  H
  O1       1.0000 0.10390  0.88750  0.54900  Biso   1.000  O
  O2       1.0000 0.64610  0.86250  0.54900  Biso   1.000  O
  O3       1.0000 0.64610  0.88750  0.20100  Biso   1.000  O
  O4       1.0000 0.10390  0.86250  0.20100  Biso   1.000  O
  O5       1.0000 0.10390  0.38750  0.04900  Biso   1.000  O
  O6       1.0000 0.64610  0.36250  0.04900  Biso   1.000  O
  O7       1.0000 0.64610  0.38750  0.70100  Biso   1.000  O
  O8       1.0000 0.10390  0.36250  0.70100  Biso   1.000  O
  O9       1.0000 0.60390  0.88750  0.04900  Biso   1.000  O
  O10      1.0000 0.14610  0.86250  0.04900  Biso   1.000  O
  O11      1.0000 0.14610  0.88750  0.70100  Biso   1.000  O
  O12      1.0000 0.60390  0.86250  0.70100  Biso   1.000  O
  O13      1.0000 0.60390  0.38750  0.54900  Biso   1.000  O
  O14      1.0000 0.14610  0.36250  0.54900  Biso   1.000  O
  O15      1.0000 0.14610  0.38750  0.20100  Biso   1.000  O
  O16      1.0000 0.60390  0.36250  0.20100  Biso   1.000  O
  O17      1.0000 0.89610  0.11250  0.45100  Biso   1.000  O
  O18      1.0000 0.85390  0.63750  0.45100  Biso   1.000  O
  O19      1.0000 0.85390  0.11250  0.29900  Biso   1.000  O
  O20      1.0000 0.89610  0.63750  0.29900  Biso   1.000  O
  O21      1.0000 0.89610  0.61250  0.95100  Biso   1.000  O
  O22      1.0000 0.85390  0.13750  0.95100  Biso   1.000  O
  O23      1.0000 0.85390  0.61250  0.79900  Biso   1.000  O
  O24      1.0000 0.89610  0.13750  0.79900  Biso   1.000  O
  O25      1.0000 0.39610  0.11250  0.95100  Biso   1.000  O
  O26      1.0000 0.35390  0.63750  0.95100  Biso   1.000  O
  O27      1.0000 0.35390  0.11250  0.79900  Biso   1.000  O
  O28      1.0000 0.39610  0.63750  0.79900  Biso   1.000  O
  O29      1.0000 0.39610  0.61250  0.45100  Biso   1.000  O
  O30      1.0000 0.35390  0.13750  0.45100  Biso   1.000  O
  O31      1.0000 0.35390  0.61250  0.29900  Biso   1.000  O
  O32      1.0000 0.39610  0.13750  0.29900  Biso   1.000  O
  H161     1.0000 0.07770  0.89150  0.47780  Biso   1.000  H
  H162     1.0000 0.67230  0.85850  0.47780  Biso   1.000  H
  H163     1.0000 0.67230  0.89150  0.27220  Biso   1.000  H
  H164     1.0000 0.07770  0.85850  0.27220  Biso   1.000  H
  H165     1.0000 0.07770  0.39150  0.97780  Biso   1.000  H
  H166     1.0000 0.67230  0.35850  0.97780  Biso   1.000  H
  H167     1.0000 0.67230  0.39150  0.77220  Biso   1.000  H
  H168     1.0000 0.07770  0.35850  0.77220  Biso   1.000  H
  H169     1.0000 0.57770  0.89150  0.97780  Biso   1.000  H
  H170     1.0000 0.17230  0.85850  0.97780  Biso   1.000  H
  H171     1.0000 0.17230  0.89150  0.77220  Biso   1.000  H
  H172     1.0000 0.57770  0.85850  0.77220  Biso   1.000  H
  H173     1.0000 0.57770  0.39150  0.47780  Biso   1.000  H
  H174     1.0000 0.17230  0.35850  0.47780  Biso   1.000  H
  H175     1.0000 0.17230  0.39150  0.27220  Biso   1.000  H
  H176     1.0000 0.57770  0.35850  0.27220  Biso   1.000  H
  H177     1.0000 0.92230  0.10850  0.52220  Biso   1.000  H
  H178     1.0000 0.82770  0.64150  0.52220  Biso   1.000  H
  H179     1.0000 0.82770  0.10850  0.22780  Biso   1.000  H
  H180     1.0000 0.92230  0.64150  0.22780  Biso   1.000  H
  H181     1.0000 0.92230  0.60850  0.02220  Biso   1.000  H
  H182     1.0000 0.82770  0.14150  0.02220  Biso   1.000  H
  H183     1.0000 0.82770  0.60850  0.72780  Biso   1.000  H
  H184     1.0000 0.92230  0.14150  0.72780  Biso   1.000  H
  H185     1.0000 0.42230  0.10850  0.02220  Biso   1.000  H
  H186     1.0000 0.32770  0.64150  0.02220  Biso   1.000  H
  H187     1.0000 0.32770  0.10850  0.72780  Biso   1.000  H
  H188     1.0000 0.42230  0.64150  0.72780  Biso   1.000  H
  H189     1.0000 0.42230  0.60850  0.52220  Biso   1.000  H
  H190     1.0000 0.32770  0.14150  0.52220  Biso   1.000  H
  H191     1.0000 0.32770  0.60850  0.22780  Biso   1.000  H
  H192     1.0000 0.42230  0.14150  0.22780  Biso   1.000  H
  H193     1.0000 0.10330  0.86660  0.50410  Biso   1.000  H
  H194     1.0000 0.64670  0.88340  0.50410  Biso   1.000  H
  H195     1.0000 0.64670  0.86660  0.24590  Biso   1.000  H
  H196     1.0000 0.10330  0.88340  0.24590  Biso   1.000  H
  H197     1.0000 0.10330  0.36660  0.00410  Biso   1.000  H
  H198     1.0000 0.64670  0.38340  0.00410  Biso   1.000  H
  H199     1.0000 0.64670  0.36660  0.74590  Biso   1.000  H
  H200     1.0000 0.10330  0.38340  0.74590  Biso   1.000  H
  H201     1.0000 0.60330  0.86660  0.00410  Biso   1.000  H
  H202     1.0000 0.14670  0.88340  0.00410  Biso   1.000  H
  H203     1.0000 0.14670  0.86660  0.74590  Biso   1.000  H
  H204     1.0000 0.60330  0.88340  0.74590  Biso   1.000  H
  H205     1.0000 0.60330  0.36660  0.50410  Biso   1.000  H
  H206     1.0000 0.14670  0.38340  0.50410  Biso   1.000  H
  H207     1.0000 0.14670  0.36660  0.24590  Biso   1.000  H
  H208     1.0000 0.60330  0.38340  0.24590  Biso   1.000  H
  H209     1.0000 0.89670  0.13340  0.49590  Biso   1.000  H
  H210     1.0000 0.85330  0.61660  0.49590  Biso   1.000  H
  H211     1.0000 0.85330  0.13340  0.25410  Biso   1.000  H
  H212     1.0000 0.89670  0.61660  0.25410  Biso   1.000  H
  H213     1.0000 0.89670  0.63340  0.99590  Biso   1.000  H
  H214     1.0000 0.85330  0.11660  0.99590  Biso   1.000  H
  H215     1.0000 0.85330  0.63340  0.75410  Biso   1.000  H
  H216     1.0000 0.89670  0.11660  0.75410  Biso   1.000  H
  H217     1.0000 0.39670  0.13340  0.99590  Biso   1.000  H
  H218     1.0000 0.35330  0.61660  0.99590  Biso   1.000  H
  H219     1.0000 0.35330  0.13340  0.75410  Biso   1.000  H
  H220     1.0000 0.39670  0.61660  0.75410  Biso   1.000  H
  H221     1.0000 0.39670  0.63340  0.49590  Biso   1.000  H
  H222     1.0000 0.35330  0.11660  0.49590  Biso   1.000  H
  H223     1.0000 0.35330  0.63340  0.25410  Biso   1.000  H
  H224     1.0000 0.39670  0.11660  0.25410  Biso   1.000  H
  O33      1.0000 0.00010  0.86210  0.75180  Biso   1.000  O
  O34      1.0000 0.74990  0.88790  0.75180  Biso   1.000  O
  O35      1.0000 0.74990  0.86210  0.99820  Biso   1.000  O
  O36      1.0000 0.00010  0.88790  0.99820  Biso   1.000  O
  O37      1.0000 0.00010  0.36210  0.25180  Biso   1.000  O
  O38      1.0000 0.74990  0.38790  0.25180  Biso   1.000  O
  O39      1.0000 0.74990  0.36210  0.49820  Biso   1.000  O
  O40      1.0000 0.00010  0.38790  0.49820  Biso   1.000  O
  O41      1.0000 0.50010  0.86210  0.25180  Biso   1.000  O
  O42      1.0000 0.24990  0.88790  0.25180  Biso   1.000  O
  O43      1.0000 0.24990  0.86210  0.49820  Biso   1.000  O
  O44      1.0000 0.50010  0.88790  0.49820  Biso   1.000  O
  O45      1.0000 0.50010  0.36210  0.75180  Biso   1.000  O
  O46      1.0000 0.24990  0.38790  0.75180  Biso   1.000  O
  O47      1.0000 0.24990  0.36210  0.99820  Biso   1.000  O
  O48      1.0000 0.50010  0.38790  0.99820  Biso   1.000  O
  O49      1.0000 0.99990  0.13790  0.24820  Biso   1.000  O
  O50      1.0000 0.75010  0.61210  0.24820  Biso   1.000  O
  O51      1.0000 0.75010  0.13790  0.50180  Biso   1.000  O
  O52      1.0000 0.99990  0.61210  0.50180  Biso   1.000  O
  O53      1.0000 0.99990  0.63790  0.74820  Biso   1.000  O
  O54      1.0000 0.75010  0.11210  0.74820  Biso   1.000  O
  O55      1.0000 0.75010  0.63790  0.00180  Biso   1.000  O
  O56      1.0000 0.99990  0.11210  0.00180  Biso   1.000  O
  O57      1.0000 0.49990  0.13790  0.74820  Biso   1.000  O
  O58      1.0000 0.25010  0.61210  0.74820  Biso   1.000  O
  O59      1.0000 0.25010  0.13790  0.00180  Biso   1.000  O
  O60      1.0000 0.49990  0.61210  0.00180  Biso   1.000  O
  O61      1.0000 0.49990  0.63790  0.24820  Biso   1.000  O
  O62      1.0000 0.25010  0.11210  0.24820  Biso   1.000  O
  O63      1.0000 0.25010  0.63790  0.50180  Biso   1.000  O
  O64      1.0000 0.49990  0.11210  0.50180  Biso   1.000  O
  H225     1.0000 0.04200  0.87120  0.71900  Biso   1.000  H
  H226     1.0000 0.70800  0.87880  0.71900  Biso   1.000  H
  H227     1.0000 0.70800  0.87120  0.03100  Biso   1.000  H
  H228     1.0000 0.04200  0.87880  0.03100  Biso   1.000  H
  H229     1.0000 0.04200  0.37120  0.21900  Biso   1.000  H
  H230     1.0000 0.70800  0.37880  0.21900  Biso   1.000  H
  H231     1.0000 0.70800  0.37120  0.53100  Biso   1.000  H
  H232     1.0000 0.04200  0.37880  0.53100  Biso   1.000  H
  H233     1.0000 0.54200  0.87120  0.21900  Biso   1.000  H
  H234     1.0000 0.20800  0.87880  0.21900  Biso   1.000  H
  H235     1.0000 0.20800  0.87120  0.53100  Biso   1.000  H
  H236     1.0000 0.54200  0.87880  0.53100  Biso   1.000  H
  H237     1.0000 0.54200  0.37120  0.71900  Biso   1.000  H
  H238     1.0000 0.20800  0.37880  0.71900  Biso   1.000  H
  H239     1.0000 0.20800  0.37120  0.03100  Biso   1.000  H
  H240     1.0000 0.54200  0.37880  0.03100  Biso   1.000  H
  H241     1.0000 0.95800  0.12880  0.28100  Biso   1.000  H
  H242     1.0000 0.79200  0.62120  0.28100  Biso   1.000  H
  H243     1.0000 0.79200  0.12880  0.46900  Biso   1.000  H
  H244     1.0000 0.95800  0.62120  0.46900  Biso   1.000  H
  H245     1.0000 0.95800  0.62880  0.78100  Biso   1.000  H
  H246     1.0000 0.79200  0.12120  0.78100  Biso   1.000  H
  H247     1.0000 0.79200  0.62880  0.96900  Biso   1.000  H
  H248     1.0000 0.95800  0.12120  0.96900  Biso   1.000  H
  H249     1.0000 0.45800  0.12880  0.78100  Biso   1.000  H
  H250     1.0000 0.29200  0.62120  0.78100  Biso   1.000  H
  H251     1.0000 0.29200  0.12880  0.96900  Biso   1.000  H
  H252     1.0000 0.45800  0.62120  0.96900  Biso   1.000  H
  H253     1.0000 0.45800  0.62880  0.28100  Biso   1.000  H
  H254     1.0000 0.29200  0.12120  0.28100  Biso   1.000  H
  H255     1.0000 0.29200  0.62880  0.46900  Biso   1.000  H
  H256     1.0000 0.45800  0.12120  0.46900  Biso   1.000  H
  H257     1.0000 0.97800  0.86170  0.67430  Biso   1.000  H
  H258     1.0000 0.77200  0.88830  0.67430  Biso   1.000  H
  H259     1.0000 0.77200  0.86170  0.07570  Biso   1.000  H
  H260     1.0000 0.97800  0.88830  0.07570  Biso   1.000  H
  H261     1.0000 0.97800  0.36170  0.17430  Biso   1.000  H
  H262     1.0000 0.77200  0.38830  0.17430  Biso   1.000  H
  H263     1.0000 0.77200  0.36170  0.57570  Biso   1.000  H
  H264     1.0000 0.97800  0.38830  0.57570  Biso   1.000  H
  H265     1.0000 0.47800  0.86170  0.17430  Biso   1.000  H
  H266     1.0000 0.27200  0.88830  0.17430  Biso   1.000  H
  H267     1.0000 0.27200  0.86170  0.57570  Biso   1.000  H
  H268     1.0000 0.47800  0.88830  0.57570  Biso   1.000  H
  H269     1.0000 0.47800  0.36170  0.67430  Biso   1.000  H
  H270     1.0000 0.27200  0.38830  0.67430  Biso   1.000  H
  H271     1.0000 0.27200  0.36170  0.07570  Biso   1.000  H
  H272     1.0000 0.47800  0.38830  0.07570  Biso   1.000  H
  H273     1.0000 0.02200  0.13830  0.32570  Biso   1.000  H
  H274     1.0000 0.72800  0.61170  0.32570  Biso   1.000  H
  H275     1.0000 0.72800  0.13830  0.42430  Biso   1.000  H
  H276     1.0000 0.02200  0.61170  0.42430  Biso   1.000  H
  H277     1.0000 0.02200  0.63830  0.82570  Biso   1.000  H
  H278     1.0000 0.72800  0.11170  0.82570  Biso   1.000  H
  H279     1.0000 0.72800  0.63830  0.92430  Biso   1.000  H
  H280     1.0000 0.02200  0.11170  0.92430  Biso   1.000  H
  H281     1.0000 0.52200  0.13830  0.82570  Biso   1.000  H
  H282     1.0000 0.22800  0.61170  0.82570  Biso   1.000  H
  H283     1.0000 0.22800  0.13830  0.92430  Biso   1.000  H
  H284     1.0000 0.52200  0.61170  0.92430  Biso   1.000  H
  H285     1.0000 0.52200  0.63830  0.32570  Biso   1.000  H
  H286     1.0000 0.22800  0.11170  0.32570  Biso   1.000  H
  H287     1.0000 0.22800  0.63830  0.42430  Biso   1.000  H
  H288     1.0000 0.52200  0.11170  0.42430  Biso   1.000  H
