data_image0
_cell_length_a       19.039
_cell_length_b       23.6793
_cell_length_c       26.077
_cell_angle_alpha    90
_cell_angle_beta     94.572
_cell_angle_gamma    90

_symmetry_space_group_name_H-M    "P 1"
_symmetry_int_tables_number       1

loop_
  _symmetry_equiv_pos_as_xyz
  'x, y, z'

loop_
  _atom_site_label
  _atom_site_occupancy
  _atom_site_fract_x
  _atom_site_fract_y
  _atom_site_fract_z
  _atom_site_thermal_displace_type
  _atom_site_B_iso_or_equiv
  _atom_site_type_symbol
  Cu1      1.0000 0.06884  0.63528  0.77262  Biso   1.000  Cu
  Cu2      1.0000 0.43116  0.13528  0.22738  Biso   1.000  Cu
  Cu3      1.0000 0.93116  0.36472  0.22738  Biso   1.000  Cu
  Cu4      1.0000 0.56884  0.86472  0.77262  Biso   1.000  Cu
  Cu5      1.0000 0.22089  0.01291  0.55025  Biso   1.000  Cu
  Cu6      1.0000 0.27911  0.51291  0.44975  Biso   1.000  Cu
  Cu7      1.0000 0.77911  0.98709  0.44975  Biso   1.000  Cu
  Cu8      1.0000 0.72089  0.48709  0.55025  Biso   1.000  Cu
  Cu9      1.0000 0.01438  0.80871  0.16506  Biso   1.000  Cu
  Cu10     1.0000 0.48562  0.30871  0.83494  Biso   1.000  Cu
  Cu11     1.0000 0.98562  0.19129  0.83494  Biso   1.000  Cu
  Cu12     1.0000 0.51438  0.69129  0.16506  Biso   1.000  Cu
  N1       1.0000 0.11500  0.70252  0.73722  Biso   1.000  N
  N2       1.0000 0.38500  0.20252  0.26278  Biso   1.000  N
  N3       1.0000 0.88500  0.29748  0.26278  Biso   1.000  N
  N4       1.0000 0.61500  0.79748  0.73722  Biso   1.000  N
  C1       1.0000 0.17050  0.70200  0.70900  Biso   1.000  C
  C2       1.0000 0.32950  0.20200  0.29100  Biso   1.000  C
  C3       1.0000 0.82950  0.29800  0.29100  Biso   1.000  C
  C4       1.0000 0.67050  0.79800  0.70900  Biso   1.000  C
  H1       1.0000 0.19780  0.66900  0.70900  Biso   1.000  H
  H2       1.0000 0.30220  0.16900  0.29100  Biso   1.000  H
  H3       1.0000 0.80220  0.33100  0.29100  Biso   1.000  H
  H4       1.0000 0.69780  0.83100  0.70900  Biso   1.000  H
  C5       1.0000 0.19010  0.74700  0.67990  Biso   1.000  C
  C6       1.0000 0.30990  0.24700  0.32010  Biso   1.000  C
  C7       1.0000 0.80990  0.25300  0.32010  Biso   1.000  C
  C8       1.0000 0.69010  0.75300  0.67990  Biso   1.000  C
  H5       1.0000 0.22960  0.74400  0.66050  Biso   1.000  H
  H6       1.0000 0.27040  0.24400  0.33950  Biso   1.000  H
  H7       1.0000 0.77040  0.25600  0.33950  Biso   1.000  H
  H8       1.0000 0.72960  0.75600  0.66050  Biso   1.000  H
  C9       1.0000 0.15150  0.79690  0.67905  Biso   1.000  C
  C10      1.0000 0.34850  0.29690  0.32095  Biso   1.000  C
  C11      1.0000 0.84850  0.20310  0.32095  Biso   1.000  C
  C12      1.0000 0.65150  0.70310  0.67905  Biso   1.000  C
  C13      1.0000 0.09470  0.79740  0.70910  Biso   1.000  C
  C14      1.0000 0.40530  0.29740  0.29090  Biso   1.000  C
  C15      1.0000 0.90530  0.20260  0.29090  Biso   1.000  C
  C16      1.0000 0.59470  0.70260  0.70910  Biso   1.000  C
  H9       1.0000 0.06660  0.82990  0.71060  Biso   1.000  H
  H10      1.0000 0.43340  0.32990  0.28940  Biso   1.000  H
  H11      1.0000 0.93340  0.17010  0.28940  Biso   1.000  H
  H12      1.0000 0.56660  0.67010  0.71060  Biso   1.000  H
  C17      1.0000 0.07980  0.75000  0.73650  Biso   1.000  C
  C18      1.0000 0.42020  0.25000  0.26350  Biso   1.000  C
  C19      1.0000 0.92020  0.25000  0.26350  Biso   1.000  C
  C20      1.0000 0.57980  0.75000  0.73650  Biso   1.000  C
  H13      1.0000 0.04090  0.75180  0.75650  Biso   1.000  H
  H14      1.0000 0.45910  0.25180  0.24350  Biso   1.000  H
  H15      1.0000 0.95910  0.24820  0.24350  Biso   1.000  H
  H16      1.0000 0.54090  0.74820  0.75650  Biso   1.000  H
  C21      1.0000 0.16820  0.84620  0.64757  Biso   1.000  C
  C22      1.0000 0.33180  0.34620  0.35243  Biso   1.000  C
  C23      1.0000 0.83180  0.15380  0.35243  Biso   1.000  C
  C24      1.0000 0.66820  0.65380  0.64757  Biso   1.000  C
  C25      1.0000 0.22420  0.84780  0.61770  Biso   1.000  C
  C26      1.0000 0.27580  0.34780  0.38230  Biso   1.000  C
  C27      1.0000 0.77580  0.15220  0.38230  Biso   1.000  C
  C28      1.0000 0.72420  0.65220  0.61770  Biso   1.000  C
  H17      1.0000 0.25430  0.81640  0.61690  Biso   1.000  H
  H18      1.0000 0.24570  0.31640  0.38310  Biso   1.000  H
  H19      1.0000 0.74570  0.18360  0.38310  Biso   1.000  H
  H20      1.0000 0.75430  0.68360  0.61690  Biso   1.000  H
  C29      1.0000 0.23690  0.89440  0.58900  Biso   1.000  C
  C30      1.0000 0.26310  0.39440  0.41100  Biso   1.000  C
  C31      1.0000 0.76310  0.10560  0.41100  Biso   1.000  C
  C32      1.0000 0.73690  0.60560  0.58900  Biso   1.000  C
  H21      1.0000 0.27610  0.89390  0.56930  Biso   1.000  H
  H22      1.0000 0.22390  0.39390  0.43070  Biso   1.000  H
  H23      1.0000 0.72390  0.10610  0.43070  Biso   1.000  H
  H24      1.0000 0.77610  0.60610  0.56930  Biso   1.000  H
  N5       1.0000 0.19700  0.94049  0.58750  Biso   1.000  N
  N6       1.0000 0.30300  0.44049  0.41250  Biso   1.000  N
  N7       1.0000 0.80300  0.05951  0.41250  Biso   1.000  N
  N8       1.0000 0.69700  0.55951  0.58750  Biso   1.000  N
  C33      1.0000 0.14240  0.93930  0.61610  Biso   1.000  C
  C34      1.0000 0.35760  0.43930  0.38390  Biso   1.000  C
  C35      1.0000 0.85760  0.06070  0.38390  Biso   1.000  C
  C36      1.0000 0.64240  0.56070  0.61610  Biso   1.000  C
  H25      1.0000 0.11280  0.97110  0.61570  Biso   1.000  H
  H26      1.0000 0.38720  0.47110  0.38430  Biso   1.000  H
  H27      1.0000 0.88720  0.02890  0.38430  Biso   1.000  H
  H28      1.0000 0.61280  0.52890  0.61570  Biso   1.000  H
  C37      1.0000 0.12660  0.89440  0.64620  Biso   1.000  C
  C38      1.0000 0.37340  0.39440  0.35380  Biso   1.000  C
  C39      1.0000 0.87340  0.10560  0.35380  Biso   1.000  C
  C40      1.0000 0.62660  0.60560  0.64620  Biso   1.000  C
  H29      1.0000 0.08750  0.89620  0.66610  Biso   1.000  H
  H30      1.0000 0.41250  0.39620  0.33390  Biso   1.000  H
  H31      1.0000 0.91250  0.10380  0.33390  Biso   1.000  H
  H32      1.0000 0.58750  0.60380  0.66610  Biso   1.000  H
  N9       1.0000 0.23110  0.06856  0.61397  Biso   1.000  N
  N10      1.0000 0.26890  0.56856  0.38603  Biso   1.000  N
  N11      1.0000 0.76890  0.93144  0.38603  Biso   1.000  N
  N12      1.0000 0.73110  0.43144  0.61397  Biso   1.000  N
  C41      1.0000 0.26440  0.05030  0.65790  Biso   1.000  C
  C42      1.0000 0.23560  0.55030  0.34210  Biso   1.000  C
  C43      1.0000 0.73560  0.94970  0.34210  Biso   1.000  C
  C44      1.0000 0.76440  0.44970  0.65790  Biso   1.000  C
  H33      1.0000 0.26360  0.01140  0.66490  Biso   1.000  H
  H34      1.0000 0.23640  0.51140  0.33510  Biso   1.000  H
  H35      1.0000 0.73640  0.98860  0.33510  Biso   1.000  H
  H36      1.0000 0.76360  0.48860  0.66490  Biso   1.000  H
  C45      1.0000 0.29970  0.08490  0.69350  Biso   1.000  C
  C46      1.0000 0.20030  0.58490  0.30650  Biso   1.000  C
  C47      1.0000 0.70030  0.91510  0.30650  Biso   1.000  C
  C48      1.0000 0.79970  0.41510  0.69350  Biso   1.000  C
  H37      1.0000 0.32120  0.06960  0.72410  Biso   1.000  H
  H38      1.0000 0.17880  0.56960  0.27590  Biso   1.000  H
  H39      1.0000 0.67880  0.93040  0.27590  Biso   1.000  H
  H40      1.0000 0.82120  0.43040  0.72410  Biso   1.000  H
  C49      1.0000 0.30350  0.14220  0.68430  Biso   1.000  C
  C50      1.0000 0.19650  0.64220  0.31570  Biso   1.000  C
  C51      1.0000 0.69650  0.85780  0.31570  Biso   1.000  C
  C52      1.0000 0.80350  0.35780  0.68430  Biso   1.000  C
  C53      1.0000 0.26570  0.16130  0.64020  Biso   1.000  C
  C54      1.0000 0.23430  0.66130  0.35980  Biso   1.000  C
  C55      1.0000 0.73430  0.83870  0.35980  Biso   1.000  C
  C56      1.0000 0.76570  0.33870  0.64020  Biso   1.000  C
  H41      1.0000 0.26380  0.20020  0.63320  Biso   1.000  H
  H42      1.0000 0.23620  0.70020  0.36680  Biso   1.000  H
  H43      1.0000 0.73620  0.79980  0.36680  Biso   1.000  H
  H44      1.0000 0.76380  0.29980  0.63320  Biso   1.000  H
  C57      1.0000 0.23100  0.12440  0.60680  Biso   1.000  C
  C58      1.0000 0.26900  0.62440  0.39320  Biso   1.000  C
  C59      1.0000 0.76900  0.87560  0.39320  Biso   1.000  C
  C60      1.0000 0.73100  0.37560  0.60680  Biso   1.000  C
  H45      1.0000 0.20580  0.13910  0.57730  Biso   1.000  H
  H46      1.0000 0.29420  0.63910  0.42270  Biso   1.000  H
  H47      1.0000 0.79420  0.86090  0.42270  Biso   1.000  H
  H48      1.0000 0.70580  0.36090  0.57730  Biso   1.000  H
  C61      1.0000 0.34520  0.18030  0.71920  Biso   1.000  C
  C62      1.0000 0.15480  0.68030  0.28080  Biso   1.000  C
  C63      1.0000 0.65480  0.81970  0.28080  Biso   1.000  C
  C64      1.0000 0.84520  0.31970  0.71920  Biso   1.000  C
  C65      1.0000 0.32950  0.23760  0.72280  Biso   1.000  C
  C66      1.0000 0.17050  0.73760  0.27720  Biso   1.000  C
  C67      1.0000 0.67050  0.76240  0.27720  Biso   1.000  C
  C68      1.0000 0.82950  0.26240  0.72280  Biso   1.000  C
  H49      1.0000 0.29130  0.25300  0.70240  Biso   1.000  H
  H50      1.0000 0.20870  0.75300  0.29760  Biso   1.000  H
  H51      1.0000 0.70870  0.74700  0.29760  Biso   1.000  H
  H52      1.0000 0.79130  0.24700  0.70240  Biso   1.000  H
  C69      1.0000 0.36970  0.27130  0.75590  Biso   1.000  C
  C70      1.0000 0.13030  0.77130  0.24410  Biso   1.000  C
  C71      1.0000 0.63030  0.72870  0.24410  Biso   1.000  C
  C72      1.0000 0.86970  0.22870  0.75590  Biso   1.000  C
  H53      1.0000 0.35740  0.30960  0.75770  Biso   1.000  H
  H54      1.0000 0.14260  0.80960  0.24230  Biso   1.000  H
  H55      1.0000 0.64260  0.69040  0.24230  Biso   1.000  H
  H56      1.0000 0.85740  0.19040  0.75770  Biso   1.000  H
  N13      1.0000 0.42490  0.25334  0.78568  Biso   1.000  N
  N14      1.0000 0.07510  0.75334  0.21432  Biso   1.000  N
  N15      1.0000 0.57510  0.74666  0.21432  Biso   1.000  N
  N16      1.0000 0.92490  0.24666  0.78568  Biso   1.000  N
  C73      1.0000 0.44090  0.19910  0.78100  Biso   1.000  C
  C74      1.0000 0.05910  0.69910  0.21900  Biso   1.000  C
  C75      1.0000 0.55910  0.80090  0.21900  Biso   1.000  C
  C76      1.0000 0.94090  0.30090  0.78100  Biso   1.000  C
  H57      1.0000 0.48090  0.18530  0.80050  Biso   1.000  H
  H58      1.0000 0.01910  0.68530  0.19950  Biso   1.000  H
  H59      1.0000 0.51910  0.81470  0.19950  Biso   1.000  H
  H60      1.0000 0.98090  0.31470  0.80050  Biso   1.000  H
  C77      1.0000 0.40280  0.16210  0.74960  Biso   1.000  C
  C78      1.0000 0.09720  0.66210  0.25040  Biso   1.000  C
  C79      1.0000 0.59720  0.83790  0.25040  Biso   1.000  C
  C80      1.0000 0.90280  0.33790  0.74960  Biso   1.000  C
  H61      1.0000 0.41620  0.12390  0.74890  Biso   1.000  H
  H62      1.0000 0.08380  0.62390  0.25110  Biso   1.000  H
  H63      1.0000 0.58380  0.87610  0.25110  Biso   1.000  H
  H64      1.0000 0.91620  0.37610  0.74890  Biso   1.000  H
  N17      1.0000 0.05420  0.66689  0.84465  Biso   1.000  N
  N18      1.0000 0.44580  0.16689  0.15535  Biso   1.000  N
  N19      1.0000 0.94580  0.33311  0.15535  Biso   1.000  N
  N20      1.0000 0.55420  0.83311  0.84465  Biso   1.000  N
  C81      1.0000 0.01650  0.64150  0.87700  Biso   1.000  C
  C82      1.0000 0.48350  0.14150  0.12300  Biso   1.000  C
  C83      1.0000 0.98350  0.35850  0.12300  Biso   1.000  C
  C84      1.0000 0.51650  0.85850  0.87700  Biso   1.000  C
  H65      1.0000 0.99300  0.60810  0.86620  Biso   1.000  H
  H66      1.0000 0.50700  0.10810  0.13380  Biso   1.000  H
  H67      1.0000 0.00700  0.39190  0.13380  Biso   1.000  H
  H68      1.0000 0.49300  0.89190  0.86620  Biso   1.000  H
  C85      1.0000 0.00880  0.66050  0.92590  Biso   1.000  C
  C86      1.0000 0.49120  0.16050  0.07410  Biso   1.000  C
  C87      1.0000 0.99120  0.33950  0.07410  Biso   1.000  C
  C88      1.0000 0.50880  0.83950  0.92590  Biso   1.000  C
  H69      1.0000 0.98140  0.63990  0.94780  Biso   1.000  H
  H70      1.0000 0.51860  0.13990  0.05220  Biso   1.000  H
  H71      1.0000 0.01860  0.36010  0.05220  Biso   1.000  H
  H72      1.0000 0.48140  0.86010  0.94780  Biso   1.000  H
  C89      1.0000 0.04070  0.70890  0.94270  Biso   1.000  C
  C90      1.0000 0.45930  0.20890  0.05730  Biso   1.000  C
  C91      1.0000 0.95930  0.29110  0.05730  Biso   1.000  C
  C92      1.0000 0.54070  0.79110  0.94270  Biso   1.000  C
  C93      1.0000 0.08080  0.73480  0.90970  Biso   1.000  C
  C94      1.0000 0.41920  0.23480  0.09030  Biso   1.000  C
  C95      1.0000 0.91920  0.26520  0.09030  Biso   1.000  C
  C96      1.0000 0.58080  0.76520  0.90970  Biso   1.000  C
  H73      1.0000 0.10400  0.76860  0.91950  Biso   1.000  H
  H74      1.0000 0.39600  0.26860  0.08050  Biso   1.000  H
  H75      1.0000 0.89600  0.23140  0.08050  Biso   1.000  H
  H76      1.0000 0.60400  0.73140  0.91950  Biso   1.000  H
  C97      1.0000 0.08840  0.71230  0.86180  Biso   1.000  C
  C98      1.0000 0.41160  0.21230  0.13820  Biso   1.000  C
  C99      1.0000 0.91160  0.28770  0.13820  Biso   1.000  C
  C100     1.0000 0.58840  0.78770  0.86180  Biso   1.000  C
  H77      1.0000 0.11930  0.73010  0.84050  Biso   1.000  H
  H78      1.0000 0.38070  0.23010  0.15950  Biso   1.000  H
  H79      1.0000 0.88070  0.26990  0.15950  Biso   1.000  H
  H80      1.0000 0.61930  0.76990  0.84050  Biso   1.000  H
  C101     1.0000 0.03220  0.73230  0.99480  Biso   1.000  C
  C102     1.0000 0.46780  0.23230  0.00520  Biso   1.000  C
  C103     1.0000 0.96780  0.26770  0.00520  Biso   1.000  C
  C104     1.0000 0.53220  0.76770  0.99480  Biso   1.000  C
  C105     1.0000 0.02850  0.69840  0.03670  Biso   1.000  C
  C106     1.0000 0.47150  0.19840  0.96330  Biso   1.000  C
  C107     1.0000 0.97150  0.30160  0.96330  Biso   1.000  C
  C108     1.0000 0.52850  0.80160  0.03670  Biso   1.000  C
  H81      1.0000 0.02970  0.65890  0.03290  Biso   1.000  H
  H82      1.0000 0.47030  0.15890  0.96710  Biso   1.000  H
  H83      1.0000 0.97030  0.34110  0.96710  Biso   1.000  H
  H84      1.0000 0.52970  0.84110  0.03290  Biso   1.000  H
  C109     1.0000 0.02310  0.72160  0.08380  Biso   1.000  C
  C110     1.0000 0.47690  0.22160  0.91620  Biso   1.000  C
  C111     1.0000 0.97690  0.27840  0.91620  Biso   1.000  C
  C112     1.0000 0.52310  0.77840  0.08380  Biso   1.000  C
  H85      1.0000 0.02200  0.69690  0.11200  Biso   1.000  H
  H86      1.0000 0.47800  0.19690  0.88800  Biso   1.000  H
  H87      1.0000 0.97800  0.30310  0.88800  Biso   1.000  H
  H88      1.0000 0.52200  0.80310  0.11200  Biso   1.000  H
  N21      1.0000 0.01920  0.77609  0.09297  Biso   1.000  N
  N22      1.0000 0.48080  0.27609  0.90703  Biso   1.000  N
  N23      1.0000 0.98080  0.22391  0.90703  Biso   1.000  N
  N24      1.0000 0.51920  0.72391  0.09297  Biso   1.000  N
  C113     1.0000 0.02280  0.80900  0.05230  Biso   1.000  C
  C114     1.0000 0.47720  0.30900  0.94770  Biso   1.000  C
  C115     1.0000 0.97720  0.19100  0.94770  Biso   1.000  C
  C116     1.0000 0.52280  0.69100  0.05230  Biso   1.000  C
  H89      1.0000 0.02050  0.84830  0.05700  Biso   1.000  H
  H90      1.0000 0.47950  0.34830  0.94300  Biso   1.000  H
  H91      1.0000 0.97950  0.15170  0.94300  Biso   1.000  H
  H92      1.0000 0.52050  0.65170  0.05700  Biso   1.000  H
  C117     1.0000 0.02960  0.78910  0.00360  Biso   1.000  C
  C118     1.0000 0.47040  0.28910  0.99640  Biso   1.000  C
  C119     1.0000 0.97040  0.21090  0.99640  Biso   1.000  C
  C120     1.0000 0.52960  0.71090  0.00360  Biso   1.000  C
  H93      1.0000 0.03240  0.81450  0.97620  Biso   1.000  H
  H94      1.0000 0.46760  0.31450  0.02380  Biso   1.000  H
  H95      1.0000 0.96760  0.18550  0.02380  Biso   1.000  H
  H96      1.0000 0.53240  0.68550  0.97620  Biso   1.000  H
  N25      1.0000 0.14900  0.58007  0.79433  Biso   1.000  N
  N26      1.0000 0.35100  0.08007  0.20567  Biso   1.000  N
  N27      1.0000 0.85100  0.41993  0.20567  Biso   1.000  N
  N28      1.0000 0.64900  0.91993  0.79433  Biso   1.000  N
  C121     1.0000 0.13510  0.52570  0.80160  Biso   1.000  C
  C122     1.0000 0.36490  0.02570  0.19840  Biso   1.000  C
  C123     1.0000 0.86490  0.47430  0.19840  Biso   1.000  C
  C124     1.0000 0.63510  0.97430  0.80160  Biso   1.000  C
  H97      1.0000 0.08790  0.51370  0.79780  Biso   1.000  H
  H98      1.0000 0.41210  0.01370  0.20220  Biso   1.000  H
  H99      1.0000 0.91210  0.48630  0.20220  Biso   1.000  H
  H100     1.0000 0.58790  0.98630  0.79780  Biso   1.000  H
  C125     1.0000 0.18630  0.48650  0.81440  Biso   1.000  C
  C126     1.0000 0.31370  0.98650  0.18560  Biso   1.000  C
  C127     1.0000 0.81370  0.51350  0.18560  Biso   1.000  C
  C128     1.0000 0.68630  0.01350  0.81440  Biso   1.000  C
  H101     1.0000 0.17390  0.44850  0.81900  Biso   1.000  H
  H102     1.0000 0.32610  0.94850  0.18100  Biso   1.000  H
  H103     1.0000 0.82610  0.55150  0.18100  Biso   1.000  H
  H104     1.0000 0.67390  0.05150  0.81900  Biso   1.000  H
  C129     1.0000 0.25510  0.50230  0.82040  Biso   1.000  C
  C130     1.0000 0.24490  0.00230  0.17960  Biso   1.000  C
  C131     1.0000 0.74490  0.49770  0.17960  Biso   1.000  C
  C132     1.0000 0.75510  0.99770  0.82040  Biso   1.000  C
  C133     1.0000 0.26950  0.55820  0.81460  Biso   1.000  C
  C134     1.0000 0.23050  0.05820  0.18540  Biso   1.000  C
  C135     1.0000 0.73050  0.44180  0.18540  Biso   1.000  C
  C136     1.0000 0.76950  0.94180  0.81460  Biso   1.000  C
  H105     1.0000 0.31620  0.57130  0.81920  Biso   1.000  H
  H106     1.0000 0.18380  0.07130  0.18080  Biso   1.000  H
  H107     1.0000 0.68380  0.42870  0.18080  Biso   1.000  H
  H108     1.0000 0.81620  0.92870  0.81920  Biso   1.000  H
  C137     1.0000 0.21560  0.59550  0.80190  Biso   1.000  C
  C138     1.0000 0.28440  0.09550  0.19810  Biso   1.000  C
  C139     1.0000 0.78440  0.40450  0.19810  Biso   1.000  C
  C140     1.0000 0.71560  0.90450  0.80190  Biso   1.000  C
  H109     1.0000 0.22670  0.63390  0.79840  Biso   1.000  H
  H110     1.0000 0.27330  0.13390  0.20160  Biso   1.000  H
  H111     1.0000 0.77330  0.36610  0.20160  Biso   1.000  H
  H112     1.0000 0.72670  0.86610  0.79840  Biso   1.000  H
  C141     1.0000 0.31140  0.45960  0.82970  Biso   1.000  C
  C142     1.0000 0.18860  0.95960  0.17030  Biso   1.000  C
  C143     1.0000 0.68860  0.54040  0.17030  Biso   1.000  C
  C144     1.0000 0.81140  0.04040  0.82970  Biso   1.000  C
  C145     1.0000 0.30110  0.40920  0.85360  Biso   1.000  C
  C146     1.0000 0.19890  0.90920  0.14640  Biso   1.000  C
  C147     1.0000 0.69890  0.59080  0.14640  Biso   1.000  C
  C148     1.0000 0.80110  0.09080  0.85360  Biso   1.000  C
  H113     1.0000 0.25790  0.40200  0.86740  Biso   1.000  H
  H114     1.0000 0.24210  0.90200  0.13260  Biso   1.000  H
  H115     1.0000 0.74210  0.59800  0.13260  Biso   1.000  H
  H116     1.0000 0.75790  0.09800  0.86740  Biso   1.000  H
  C149     1.0000 0.35330  0.36900  0.85780  Biso   1.000  C
  C150     1.0000 0.14670  0.86900  0.14220  Biso   1.000  C
  C151     1.0000 0.64670  0.63100  0.14220  Biso   1.000  C
  C152     1.0000 0.85330  0.13100  0.85780  Biso   1.000  C
  H117     1.0000 0.34420  0.33480  0.87430  Biso   1.000  H
  H118     1.0000 0.15580  0.83480  0.12570  Biso   1.000  H
  H119     1.0000 0.65580  0.66520  0.12570  Biso   1.000  H
  H120     1.0000 0.84420  0.16520  0.87430  Biso   1.000  H
  N29      1.0000 0.41630  0.37604  0.83955  Biso   1.000  N
  N30      1.0000 0.08370  0.87604  0.16045  Biso   1.000  N
  N31      1.0000 0.58370  0.62396  0.16045  Biso   1.000  N
  N32      1.0000 0.91630  0.12396  0.83955  Biso   1.000  N
  C153     1.0000 0.42740  0.42650  0.81870  Biso   1.000  C
  C154     1.0000 0.07260  0.92650  0.18130  Biso   1.000  C
  C155     1.0000 0.57260  0.57350  0.18130  Biso   1.000  C
  C156     1.0000 0.92740  0.07350  0.81870  Biso   1.000  C
  H121     1.0000 0.47210  0.43360  0.80710  Biso   1.000  H
  H122     1.0000 0.02790  0.93360  0.19290  Biso   1.000  H
  H123     1.0000 0.52790  0.56640  0.19290  Biso   1.000  H
  H124     1.0000 0.97210  0.06640  0.80710  Biso   1.000  H
  C157     1.0000 0.37820  0.46850  0.81310  Biso   1.000  C
  C158     1.0000 0.12180  0.96850  0.18690  Biso   1.000  C
  C159     1.0000 0.62180  0.53150  0.18690  Biso   1.000  C
  C160     1.0000 0.87820  0.03150  0.81310  Biso   1.000  C
  H125     1.0000 0.38940  0.50320  0.79810  Biso   1.000  H
  H126     1.0000 0.11060  0.00320  0.20190  Biso   1.000  H
  H127     1.0000 0.61060  0.49680  0.20190  Biso   1.000  H
  H128     1.0000 0.88940  0.99680  0.79810  Biso   1.000  H
  N33      1.0000 0.32700  0.00146  0.54160  Biso   1.000  N
  N34      1.0000 0.17300  0.50146  0.45840  Biso   1.000  N
  N35      1.0000 0.67300  0.99854  0.45840  Biso   1.000  N
  N36      1.0000 0.82700  0.49854  0.54160  Biso   1.000  N
  C161     1.0000 0.34790  0.96360  0.50770  Biso   1.000  C
  C162     1.0000 0.15210  0.46360  0.49230  Biso   1.000  C
  C163     1.0000 0.65210  0.03640  0.49230  Biso   1.000  C
  C164     1.0000 0.84790  0.53640  0.50770  Biso   1.000  C
  H129     1.0000 0.31470  0.93680  0.49470  Biso   1.000  H
  H130     1.0000 0.18530  0.43680  0.50530  Biso   1.000  H
  H131     1.0000 0.68530  0.06320  0.50530  Biso   1.000  H
  H132     1.0000 0.81470  0.56320  0.49470  Biso   1.000  H
  C165     1.0000 0.41360  0.96120  0.49090  Biso   1.000  C
  C166     1.0000 0.08640  0.46120  0.50910  Biso   1.000  C
  C167     1.0000 0.58640  0.03880  0.50910  Biso   1.000  C
  C168     1.0000 0.91360  0.53880  0.49090  Biso   1.000  C
  H133     1.0000 0.42460  0.93310  0.46730  Biso   1.000  H
  H134     1.0000 0.07540  0.43310  0.53270  Biso   1.000  H
  H135     1.0000 0.57540  0.06690  0.53270  Biso   1.000  H
  H136     1.0000 0.92460  0.56690  0.46730  Biso   1.000  H
  C169     1.0000 0.46440  0.00020  0.50845  Biso   1.000  C
  C170     1.0000 0.03560  0.50020  0.49155  Biso   1.000  C
  C171     1.0000 0.53560  0.99980  0.49155  Biso   1.000  C
  C172     1.0000 0.96440  0.49980  0.50845  Biso   1.000  C
  C173     1.0000 0.44310  0.03980  0.54330  Biso   1.000  C
  C174     1.0000 0.05690  0.53980  0.45670  Biso   1.000  C
  C175     1.0000 0.55690  0.96020  0.45670  Biso   1.000  C
  C176     1.0000 0.94310  0.46020  0.54330  Biso   1.000  C
  H137     1.0000 0.47490  0.06750  0.55640  Biso   1.000  H
  H138     1.0000 0.02510  0.56750  0.44360  Biso   1.000  H
  H139     1.0000 0.52510  0.93250  0.44360  Biso   1.000  H
  H140     1.0000 0.97490  0.43250  0.55640  Biso   1.000  H
  C177     1.0000 0.37620  0.03870  0.55850  Biso   1.000  C
  C178     1.0000 0.12380  0.53870  0.44150  Biso   1.000  C
  C179     1.0000 0.62380  0.96130  0.44150  Biso   1.000  C
  C180     1.0000 0.87620  0.46130  0.55850  Biso   1.000  C
  H141     1.0000 0.36400  0.06590  0.58240  Biso   1.000  H
  H142     1.0000 0.13600  0.56590  0.41760  Biso   1.000  H
  H143     1.0000 0.63600  0.93410  0.41760  Biso   1.000  H
  H144     1.0000 0.86400  0.43410  0.58240  Biso   1.000  H
  P1       1.0000 0.98532  0.59817  0.72014  Biso   1.000  P
  P2       1.0000 0.51468  0.09817  0.27986  Biso   1.000  P
  P3       1.0000 0.01468  0.40183  0.27986  Biso   1.000  P
  P4       1.0000 0.48532  0.90183  0.72014  Biso   1.000  P
  C181     1.0000 0.24210  0.10790  0.46014  Biso   1.000  C
  C182     1.0000 0.25790  0.60790  0.53986  Biso   1.000  C
  C183     1.0000 0.75790  0.89210  0.53986  Biso   1.000  C
  C184     1.0000 0.74210  0.39210  0.46014  Biso   1.000  C
  C185     1.0000 0.23010  0.16440  0.47050  Biso   1.000  C
  C186     1.0000 0.26990  0.66440  0.52950  Biso   1.000  C
  C187     1.0000 0.76990  0.83560  0.52950  Biso   1.000  C
  C188     1.0000 0.73010  0.33560  0.47050  Biso   1.000  C
  H145     1.0000 0.18840  0.17560  0.48470  Biso   1.000  H
  H146     1.0000 0.31160  0.67560  0.51530  Biso   1.000  H
  H147     1.0000 0.81160  0.82440  0.51530  Biso   1.000  H
  H148     1.0000 0.68840  0.32440  0.48470  Biso   1.000  H
  C189     1.0000 0.28070  0.20450  0.45970  Biso   1.000  C
  C190     1.0000 0.21930  0.70450  0.54030  Biso   1.000  C
  C191     1.0000 0.71930  0.79550  0.54030  Biso   1.000  C
  C192     1.0000 0.78070  0.29550  0.45970  Biso   1.000  C
  H149     1.0000 0.27260  0.24290  0.46640  Biso   1.000  H
  H150     1.0000 0.22740  0.74290  0.53360  Biso   1.000  H
  H151     1.0000 0.72740  0.75710  0.53360  Biso   1.000  H
  H152     1.0000 0.77260  0.25710  0.46640  Biso   1.000  H
  C193     1.0000 0.34180  0.18880  0.43950  Biso   1.000  C
  C194     1.0000 0.15820  0.68880  0.56050  Biso   1.000  C
  C195     1.0000 0.65820  0.81120  0.56050  Biso   1.000  C
  C196     1.0000 0.84180  0.31120  0.43950  Biso   1.000  C
  H153     1.0000 0.37520  0.21640  0.43220  Biso   1.000  H
  H154     1.0000 0.12480  0.71640  0.56780  Biso   1.000  H
  H155     1.0000 0.62480  0.78360  0.56780  Biso   1.000  H
  H156     1.0000 0.87520  0.28360  0.43220  Biso   1.000  H
  C197     1.0000 0.35440  0.13400  0.42990  Biso   1.000  C
  C198     1.0000 0.14560  0.63400  0.57010  Biso   1.000  C
  C199     1.0000 0.64560  0.86600  0.57010  Biso   1.000  C
  C200     1.0000 0.85440  0.36600  0.42990  Biso   1.000  C
  H157     1.0000 0.39670  0.12340  0.41620  Biso   1.000  H
  H158     1.0000 0.10330  0.62340  0.58380  Biso   1.000  H
  H159     1.0000 0.60330  0.87660  0.58380  Biso   1.000  H
  H160     1.0000 0.89670  0.37660  0.41620  Biso   1.000  H
  C201     1.0000 0.30480  0.09280  0.44020  Biso   1.000  C
  C202     1.0000 0.19520  0.59280  0.55980  Biso   1.000  C
  C203     1.0000 0.69520  0.90720  0.55980  Biso   1.000  C
  C204     1.0000 0.80480  0.40720  0.44020  Biso   1.000  C
  H161     1.0000 0.31400  0.05460  0.43370  Biso   1.000  H
  H162     1.0000 0.18600  0.55460  0.56630  Biso   1.000  H
  H163     1.0000 0.68600  0.94540  0.56630  Biso   1.000  H
  H164     1.0000 0.81400  0.44540  0.43370  Biso   1.000  H
  C205     1.0000 0.17990  0.00920  0.41830  Biso   1.000  C
  C206     1.0000 0.32010  0.50920  0.58170  Biso   1.000  C
  C207     1.0000 0.82010  0.99080  0.58170  Biso   1.000  C
  C208     1.0000 0.67990  0.49080  0.41830  Biso   1.000  C
  C209     1.0000 0.18470  0.95130  0.42340  Biso   1.000  C
  C210     1.0000 0.31530  0.45130  0.57660  Biso   1.000  C
  C211     1.0000 0.81530  0.04870  0.57660  Biso   1.000  C
  C212     1.0000 0.68470  0.54870  0.42340  Biso   1.000  C
  H165     1.0000 0.18660  0.93440  0.45610  Biso   1.000  H
  H166     1.0000 0.31340  0.43440  0.54390  Biso   1.000  H
  H167     1.0000 0.81340  0.06560  0.54390  Biso   1.000  H
  H168     1.0000 0.68660  0.56560  0.45610  Biso   1.000  H
  C213     1.0000 0.18680  0.91820  0.37920  Biso   1.000  C
  C214     1.0000 0.31320  0.41820  0.62080  Biso   1.000  C
  C215     1.0000 0.81320  0.08180  0.62080  Biso   1.000  C
  C216     1.0000 0.68680  0.58180  0.37920  Biso   1.000  C
  H169     1.0000 0.19010  0.87870  0.38180  Biso   1.000  H
  H170     1.0000 0.30990  0.37870  0.61820  Biso   1.000  H
  H171     1.0000 0.80990  0.12130  0.61820  Biso   1.000  H
  H172     1.0000 0.69010  0.62130  0.38180  Biso   1.000  H
  C217     1.0000 0.18390  0.94360  0.33250  Biso   1.000  C
  C218     1.0000 0.31610  0.44360  0.66750  Biso   1.000  C
  C219     1.0000 0.81610  0.05640  0.66750  Biso   1.000  C
  C220     1.0000 0.68390  0.55640  0.33250  Biso   1.000  C
  H173     1.0000 0.18690  0.92150  0.30290  Biso   1.000  H
  H174     1.0000 0.31310  0.42150  0.69710  Biso   1.000  H
  H175     1.0000 0.81310  0.07850  0.69710  Biso   1.000  H
  H176     1.0000 0.68690  0.57850  0.30290  Biso   1.000  H
  C221     1.0000 0.17670  0.99950  0.32790  Biso   1.000  C
  C222     1.0000 0.32330  0.49950  0.67210  Biso   1.000  C
  C223     1.0000 0.82330  0.00050  0.67210  Biso   1.000  C
  C224     1.0000 0.67670  0.50050  0.32790  Biso   1.000  C
  H177     1.0000 0.17270  0.01610  0.29500  Biso   1.000  H
  H178     1.0000 0.32730  0.51610  0.70500  Biso   1.000  H
  H179     1.0000 0.82730  0.98390  0.70500  Biso   1.000  H
  H180     1.0000 0.67270  0.48390  0.29500  Biso   1.000  H
  C225     1.0000 0.17530  0.03300  0.37090  Biso   1.000  C
  C226     1.0000 0.32470  0.53300  0.62910  Biso   1.000  C
  C227     1.0000 0.82470  0.96700  0.62910  Biso   1.000  C
  C228     1.0000 0.67530  0.46700  0.37090  Biso   1.000  C
  H181     1.0000 0.17110  0.07240  0.36750  Biso   1.000  H
  H182     1.0000 0.32890  0.57240  0.63250  Biso   1.000  H
  H183     1.0000 0.82890  0.92760  0.63250  Biso   1.000  H
  H184     1.0000 0.67110  0.42760  0.36750  Biso   1.000  H
  C229     1.0000 0.09570  0.08470  0.47620  Biso   1.000  C
  C230     1.0000 0.40430  0.58470  0.52380  Biso   1.000  C
  C231     1.0000 0.90430  0.91530  0.52380  Biso   1.000  C
  C232     1.0000 0.59570  0.41530  0.47620  Biso   1.000  C
  C233     1.0000 0.06890  0.12290  0.43890  Biso   1.000  C
  C234     1.0000 0.43110  0.62290  0.56110  Biso   1.000  C
  C235     1.0000 0.93110  0.87710  0.56110  Biso   1.000  C
  C236     1.0000 0.56890  0.37710  0.43890  Biso   1.000  C
  H185     1.0000 0.09670  0.13370  0.41230  Biso   1.000  H
  H186     1.0000 0.40330  0.63370  0.58770  Biso   1.000  H
  H187     1.0000 0.90330  0.86630  0.58770  Biso   1.000  H
  H188     1.0000 0.59670  0.36630  0.41230  Biso   1.000  H
  C237     1.0000 0.00310  0.14480  0.44060  Biso   1.000  C
  C238     1.0000 0.49690  0.64480  0.55940  Biso   1.000  C
  C239     1.0000 0.99690  0.85520  0.55940  Biso   1.000  C
  C240     1.0000 0.50310  0.35520  0.44060  Biso   1.000  C
  H189     1.0000 0.98590  0.17070  0.41530  Biso   1.000  H
  H190     1.0000 0.51410  0.67070  0.58470  Biso   1.000  H
  H191     1.0000 0.01410  0.82930  0.58470  Biso   1.000  H
  H192     1.0000 0.48590  0.32930  0.41530  Biso   1.000  H
  C241     1.0000 0.96210  0.12940  0.47850  Biso   1.000  C
  C242     1.0000 0.53790  0.62940  0.52150  Biso   1.000  C
  C243     1.0000 0.03790  0.87060  0.52150  Biso   1.000  C
  C244     1.0000 0.46210  0.37060  0.47850  Biso   1.000  C
  H193     1.0000 0.91670  0.14480  0.47940  Biso   1.000  H
  H194     1.0000 0.58330  0.64480  0.52060  Biso   1.000  H
  H195     1.0000 0.08330  0.85520  0.52060  Biso   1.000  H
  H196     1.0000 0.41670  0.35520  0.47940  Biso   1.000  H
  C245     1.0000 0.98640  0.09170  0.51540  Biso   1.000  C
  C246     1.0000 0.51360  0.59170  0.48460  Biso   1.000  C
  C247     1.0000 0.01360  0.90830  0.48460  Biso   1.000  C
  C248     1.0000 0.48640  0.40830  0.51540  Biso   1.000  C
  H197     1.0000 0.95750  0.08010  0.54100  Biso   1.000  H
  H198     1.0000 0.54250  0.58010  0.45900  Biso   1.000  H
  H199     1.0000 0.04250  0.91990  0.45900  Biso   1.000  H
  H200     1.0000 0.45750  0.41990  0.54100  Biso   1.000  H
  C249     1.0000 0.05440  0.07060  0.51450  Biso   1.000  C
  C250     1.0000 0.44560  0.57060  0.48550  Biso   1.000  C
  C251     1.0000 0.94560  0.92940  0.48550  Biso   1.000  C
  C252     1.0000 0.55440  0.42940  0.51450  Biso   1.000  C
  H201     1.0000 0.07220  0.04610  0.54090  Biso   1.000  H
  H202     1.0000 0.42780  0.54610  0.45910  Biso   1.000  H
  H203     1.0000 0.92780  0.95390  0.45910  Biso   1.000  H
  H204     1.0000 0.57220  0.45390  0.54090  Biso   1.000  H
  P5       1.0000 0.18204  0.05229  0.47710  Biso   1.000  P
  P6       1.0000 0.31796  0.55229  0.52290  Biso   1.000  P
  P7       1.0000 0.81796  0.94771  0.52290  Biso   1.000  P
  P8       1.0000 0.68204  0.44771  0.47710  Biso   1.000  P
  C253     1.0000 0.01850  0.53500  0.69030  Biso   1.000  C
  C254     1.0000 0.48150  0.03500  0.30970  Biso   1.000  C
  C255     1.0000 0.98150  0.46500  0.30970  Biso   1.000  C
  C256     1.0000 0.51850  0.96500  0.69030  Biso   1.000  C
  C257     1.0000 0.08620  0.53690  0.67430  Biso   1.000  C
  C258     1.0000 0.41380  0.03690  0.32570  Biso   1.000  C
  C259     1.0000 0.91380  0.46310  0.32570  Biso   1.000  C
  C260     1.0000 0.58620  0.96310  0.67430  Biso   1.000  C
  H205     1.0000 0.11220  0.57060  0.67750  Biso   1.000  H
  H206     1.0000 0.38780  0.07060  0.32250  Biso   1.000  H
  H207     1.0000 0.88780  0.42940  0.32250  Biso   1.000  H
  H208     1.0000 0.61220  0.92940  0.67750  Biso   1.000  H
  C261     1.0000 0.11520  0.48990  0.65390  Biso   1.000  C
  C262     1.0000 0.38480  0.98990  0.34610  Biso   1.000  C
  C263     1.0000 0.88480  0.51010  0.34610  Biso   1.000  C
  C264     1.0000 0.61520  0.01010  0.65390  Biso   1.000  C
  H209     1.0000 0.16070  0.49180  0.64250  Biso   1.000  H
  H210     1.0000 0.33930  0.99180  0.35750  Biso   1.000  H
  H211     1.0000 0.83930  0.50820  0.35750  Biso   1.000  H
  H212     1.0000 0.66070  0.00820  0.64250  Biso   1.000  H
  C265     1.0000 0.07830  0.44020  0.65010  Biso   1.000  C
  C266     1.0000 0.42170  0.94020  0.34990  Biso   1.000  C
  C267     1.0000 0.92170  0.55980  0.34990  Biso   1.000  C
  C268     1.0000 0.57830  0.05980  0.65010  Biso   1.000  C
  H213     1.0000 0.09890  0.40790  0.63660  Biso   1.000  H
  H214     1.0000 0.40110  0.90790  0.36340  Biso   1.000  H
  H215     1.0000 0.90110  0.59210  0.36340  Biso   1.000  H
  H216     1.0000 0.59890  0.09210  0.63660  Biso   1.000  H
  C269     1.0000 0.01300  0.43770  0.66560  Biso   1.000  C
  C270     1.0000 0.48700  0.93770  0.33440  Biso   1.000  C
  C271     1.0000 0.98700  0.56230  0.33440  Biso   1.000  C
  C272     1.0000 0.51300  0.06230  0.66560  Biso   1.000  C
  H217     1.0000 0.98770  0.40350  0.66280  Biso   1.000  H
  H218     1.0000 0.51230  0.90350  0.33720  Biso   1.000  H
  H219     1.0000 0.01230  0.59650  0.33720  Biso   1.000  H
  H220     1.0000 0.48770  0.09650  0.66280  Biso   1.000  H
  C273     1.0000 0.98210  0.48510  0.68590  Biso   1.000  C
  C274     1.0000 0.51790  0.98510  0.31410  Biso   1.000  C
  C275     1.0000 0.01790  0.51490  0.31410  Biso   1.000  C
  C276     1.0000 0.48210  0.01490  0.68590  Biso   1.000  C
  H221     1.0000 0.93620  0.48290  0.69650  Biso   1.000  H
  H222     1.0000 0.56380  0.98290  0.30350  Biso   1.000  H
  H223     1.0000 0.06380  0.51710  0.30350  Biso   1.000  H
  H224     1.0000 0.43620  0.01710  0.69650  Biso   1.000  H
  C277     1.0000 0.95310  0.64250  0.66630  Biso   1.000  C
  C278     1.0000 0.54690  0.14250  0.33370  Biso   1.000  C
  C279     1.0000 0.04690  0.35750  0.33370  Biso   1.000  C
  C280     1.0000 0.45310  0.85750  0.66630  Biso   1.000  C
  C281     1.0000 0.95070  0.62560  0.61590  Biso   1.000  C
  C282     1.0000 0.54930  0.12560  0.38410  Biso   1.000  C
  C283     1.0000 0.04930  0.37440  0.38410  Biso   1.000  C
  C284     1.0000 0.45070  0.87440  0.61590  Biso   1.000  C
  H225     1.0000 0.96540  0.58890  0.60800  Biso   1.000  H
  H226     1.0000 0.53460  0.08890  0.39200  Biso   1.000  H
  H227     1.0000 0.03460  0.41110  0.39200  Biso   1.000  H
  H228     1.0000 0.46540  0.91110  0.60800  Biso   1.000  H
  C285     1.0000 0.92710  0.66140  0.57660  Biso   1.000  C
  C286     1.0000 0.57290  0.16140  0.42340  Biso   1.000  C
  C287     1.0000 0.07290  0.33860  0.42340  Biso   1.000  C
  C288     1.0000 0.42710  0.83860  0.57660  Biso   1.000  C
  H229     1.0000 0.92570  0.64920  0.54230  Biso   1.000  H
  H230     1.0000 0.57430  0.14920  0.45770  Biso   1.000  H
  H231     1.0000 0.07430  0.35080  0.45770  Biso   1.000  H
  H232     1.0000 0.42570  0.85080  0.54230  Biso   1.000  H
  C289     1.0000 0.90540  0.71520  0.58790  Biso   1.000  C
  C290     1.0000 0.59460  0.21520  0.41210  Biso   1.000  C
  C291     1.0000 0.09460  0.28480  0.41210  Biso   1.000  C
  C292     1.0000 0.40540  0.78480  0.58790  Biso   1.000  C
  H233     1.0000 0.89040  0.74020  0.56120  Biso   1.000  H
  H234     1.0000 0.60960  0.24020  0.43880  Biso   1.000  H
  H235     1.0000 0.10960  0.25980  0.43880  Biso   1.000  H
  H236     1.0000 0.39040  0.75980  0.56120  Biso   1.000  H
  C293     1.0000 0.90600  0.73200  0.63830  Biso   1.000  C
  C294     1.0000 0.59400  0.23200  0.36170  Biso   1.000  C
  C295     1.0000 0.09400  0.26800  0.36170  Biso   1.000  C
  C296     1.0000 0.40600  0.76800  0.63830  Biso   1.000  C
  H237     1.0000 0.88950  0.76820  0.64630  Biso   1.000  H
  H238     1.0000 0.61050  0.26820  0.35370  Biso   1.000  H
  H239     1.0000 0.11050  0.23180  0.35370  Biso   1.000  H
  H240     1.0000 0.38950  0.73180  0.64630  Biso   1.000  H
  C297     1.0000 0.93050  0.69620  0.67720  Biso   1.000  C
  C298     1.0000 0.56950  0.19620  0.32280  Biso   1.000  C
  C299     1.0000 0.06950  0.30380  0.32280  Biso   1.000  C
  C300     1.0000 0.43050  0.80380  0.67720  Biso   1.000  C
  H241     1.0000 0.93180  0.70840  0.71150  Biso   1.000  H
  H242     1.0000 0.56820  0.20840  0.28850  Biso   1.000  H
  H243     1.0000 0.06820  0.29160  0.28850  Biso   1.000  H
  H244     1.0000 0.43180  0.79160  0.71150  Biso   1.000  H
  C301     1.0000 0.90500  0.57350  0.74700  Biso   1.000  C
  C302     1.0000 0.59500  0.07350  0.25300  Biso   1.000  C
  C303     1.0000 0.09500  0.42650  0.25300  Biso   1.000  C
  C304     1.0000 0.40500  0.92650  0.74700  Biso   1.000  C
  C305     1.0000 0.83770  0.58610  0.72690  Biso   1.000  C
  C306     1.0000 0.66230  0.08610  0.27310  Biso   1.000  C
  C307     1.0000 0.16230  0.41390  0.27310  Biso   1.000  C
  C308     1.0000 0.33770  0.91390  0.72690  Biso   1.000  C
  H245     1.0000 0.83100  0.60900  0.69750  Biso   1.000  H
  H246     1.0000 0.66900  0.10900  0.30250  Biso   1.000  H
  H247     1.0000 0.16900  0.39100  0.30250  Biso   1.000  H
  H248     1.0000 0.33100  0.89100  0.69750  Biso   1.000  H
  C309     1.0000 0.78060  0.56550  0.74960  Biso   1.000  C
  C310     1.0000 0.71940  0.06550  0.25040  Biso   1.000  C
  C311     1.0000 0.21940  0.43450  0.25040  Biso   1.000  C
  C312     1.0000 0.28060  0.93450  0.74960  Biso   1.000  C
  H249     1.0000 0.73490  0.57490  0.73580  Biso   1.000  H
  H250     1.0000 0.76510  0.07490  0.26420  Biso   1.000  H
  H251     1.0000 0.26510  0.42510  0.26420  Biso   1.000  H
  H252     1.0000 0.23490  0.92510  0.73580  Biso   1.000  H
  C313     1.0000 0.78910  0.53170  0.79190  Biso   1.000  C
  C314     1.0000 0.71090  0.03170  0.20810  Biso   1.000  C
  C315     1.0000 0.21090  0.46830  0.20810  Biso   1.000  C
  C316     1.0000 0.28910  0.96830  0.79190  Biso   1.000  C
  H253     1.0000 0.74960  0.51760  0.80720  Biso   1.000  H
  H254     1.0000 0.75040  0.01760  0.19280  Biso   1.000  H
  H255     1.0000 0.25040  0.48240  0.19280  Biso   1.000  H
  H256     1.0000 0.24960  0.98240  0.80720  Biso   1.000  H
  C317     1.0000 0.85550  0.51830  0.81190  Biso   1.000  C
  C318     1.0000 0.64450  0.01830  0.18810  Biso   1.000  C
  C319     1.0000 0.14450  0.48170  0.18810  Biso   1.000  C
  C320     1.0000 0.35550  0.98170  0.81190  Biso   1.000  C
  H257     1.0000 0.86170  0.49470  0.84090  Biso   1.000  H
  H258     1.0000 0.63830  0.99470  0.15910  Biso   1.000  H
  H259     1.0000 0.13830  0.50530  0.15910  Biso   1.000  H
  H260     1.0000 0.36170  0.00530  0.84090  Biso   1.000  H
  C321     1.0000 0.91270  0.53910  0.79020  Biso   1.000  C
  C322     1.0000 0.58730  0.03910  0.20980  Biso   1.000  C
  C323     1.0000 0.08730  0.46090  0.20980  Biso   1.000  C
  C324     1.0000 0.41270  0.96090  0.79020  Biso   1.000  C
  H261     1.0000 0.95810  0.53000  0.80460  Biso   1.000  H
  H262     1.0000 0.54190  0.03000  0.19540  Biso   1.000  H
  H263     1.0000 0.04190  0.47000  0.19540  Biso   1.000  H
  H264     1.0000 0.45810  0.97000  0.80460  Biso   1.000  H
  P9       1.0000 0.91657  0.82854  0.20051  Biso   1.000  P
  P10      1.0000 0.58343  0.32854  0.79949  Biso   1.000  P
  P11      1.0000 0.08343  0.17146  0.79949  Biso   1.000  P
  P12      1.0000 0.41657  0.67146  0.20051  Biso   1.000  P
  C325     1.0000 0.84090  0.85540  0.16190  Biso   1.000  C
  C326     1.0000 0.65910  0.35540  0.83810  Biso   1.000  C
  C327     1.0000 0.15910  0.14460  0.83810  Biso   1.000  C
  C328     1.0000 0.34090  0.64460  0.16190  Biso   1.000  C
  C329     1.0000 0.85120  0.88610  0.11820  Biso   1.000  C
  C330     1.0000 0.64880  0.38610  0.88180  Biso   1.000  C
  C331     1.0000 0.14880  0.11390  0.88180  Biso   1.000  C
  C332     1.0000 0.35120  0.61390  0.11820  Biso   1.000  C
  H265     1.0000 0.89710  0.89050  0.10780  Biso   1.000  H
  H266     1.0000 0.60290  0.39050  0.89220  Biso   1.000  H
  H267     1.0000 0.10290  0.10950  0.89220  Biso   1.000  H
  H268     1.0000 0.39710  0.60950  0.10780  Biso   1.000  H
  C333     1.0000 0.79510  0.91040  0.08940  Biso   1.000  C
  C334     1.0000 0.70490  0.41040  0.91060  Biso   1.000  C
  C335     1.0000 0.20490  0.08960  0.91060  Biso   1.000  C
  C336     1.0000 0.29510  0.58960  0.08940  Biso   1.000  C
  H269     1.0000 0.80290  0.93200  0.06010  Biso   1.000  H
  H270     1.0000 0.69710  0.43200  0.93990  Biso   1.000  H
  H271     1.0000 0.19710  0.06800  0.93990  Biso   1.000  H
  H272     1.0000 0.30290  0.56800  0.06010  Biso   1.000  H
  C337     1.0000 0.72850  0.90290  0.10350  Biso   1.000  C
  C338     1.0000 0.77150  0.40290  0.89650  Biso   1.000  C
  C339     1.0000 0.27150  0.09710  0.89650  Biso   1.000  C
  C340     1.0000 0.22850  0.59710  0.10350  Biso   1.000  C
  H273     1.0000 0.69030  0.91870  0.08340  Biso   1.000  H
  H274     1.0000 0.80970  0.41870  0.91660  Biso   1.000  H
  H275     1.0000 0.30970  0.08130  0.91660  Biso   1.000  H
  H276     1.0000 0.19030  0.58130  0.08340  Biso   1.000  H
  C341     1.0000 0.71670  0.87280  0.14650  Biso   1.000  C
  C342     1.0000 0.78330  0.37280  0.85350  Biso   1.000  C
  C343     1.0000 0.28330  0.12720  0.85350  Biso   1.000  C
  C344     1.0000 0.21670  0.62720  0.14650  Biso   1.000  C
  H277     1.0000 0.67060  0.86810  0.15620  Biso   1.000  H
  H278     1.0000 0.82940  0.36810  0.84380  Biso   1.000  H
  H279     1.0000 0.32940  0.13190  0.84380  Biso   1.000  H
  H280     1.0000 0.17060  0.63190  0.15620  Biso   1.000  H
  C345     1.0000 0.77350  0.84920  0.17580  Biso   1.000  C
  C346     1.0000 0.72650  0.34920  0.82420  Biso   1.000  C
  C347     1.0000 0.22650  0.15080  0.82420  Biso   1.000  C
  C348     1.0000 0.27350  0.65080  0.17580  Biso   1.000  C
  H281     1.0000 0.76540  0.82860  0.20560  Biso   1.000  H
  H282     1.0000 0.73460  0.32860  0.79440  Biso   1.000  H
  H283     1.0000 0.23460  0.17140  0.79440  Biso   1.000  H
  H284     1.0000 0.26540  0.67140  0.20560  Biso   1.000  H
  C349     1.0000 0.88220  0.76810  0.23240  Biso   1.000  C
  C350     1.0000 0.61780  0.26810  0.76760  Biso   1.000  C
  C351     1.0000 0.11780  0.23190  0.76760  Biso   1.000  C
  C352     1.0000 0.38220  0.73190  0.23240  Biso   1.000  C
  C353     1.0000 0.86890  0.72030  0.19320  Biso   1.000  C
  C354     1.0000 0.63110  0.22030  0.80680  Biso   1.000  C
  C355     1.0000 0.13110  0.27970  0.80680  Biso   1.000  C
  C356     1.0000 0.36890  0.77970  0.19320  Biso   1.000  C
  H285     1.0000 0.87450  0.72640  0.15810  Biso   1.000  H
  H286     1.0000 0.62550  0.22640  0.84190  Biso   1.000  H
  H287     1.0000 0.12550  0.27360  0.84190  Biso   1.000  H
  H288     1.0000 0.37450  0.77360  0.15810  Biso   1.000  H
  C357     1.0000 0.84880  0.66900  0.21020  Biso   1.000  C
  C358     1.0000 0.65120  0.16900  0.78980  Biso   1.000  C
  C359     1.0000 0.15120  0.33100  0.78980  Biso   1.000  C
  C360     1.0000 0.34880  0.83100  0.21020  Biso   1.000  C
  H289     1.0000 0.84200  0.63820  0.18760  Biso   1.000  H
  H290     1.0000 0.65800  0.13820  0.81240  Biso   1.000  H
  H291     1.0000 0.15800  0.36180  0.81240  Biso   1.000  H
  H292     1.0000 0.34200  0.86180  0.18760  Biso   1.000  H
  C361     1.0000 0.83900  0.66400  0.26020  Biso   1.000  C
  C362     1.0000 0.66100  0.16400  0.73980  Biso   1.000  C
  C363     1.0000 0.16100  0.33600  0.73980  Biso   1.000  C
  C364     1.0000 0.33900  0.83600  0.26020  Biso   1.000  C
  H293     1.0000 0.82530  0.62810  0.27110  Biso   1.000  H
  H294     1.0000 0.67470  0.12810  0.72890  Biso   1.000  H
  H295     1.0000 0.17470  0.37190  0.72890  Biso   1.000  H
  H296     1.0000 0.32530  0.87190  0.27110  Biso   1.000  H
  C365     1.0000 0.84600  0.70260  0.29580  Biso   1.000  C
  C366     1.0000 0.65400  0.20260  0.70420  Biso   1.000  C
  C367     1.0000 0.15400  0.29740  0.70420  Biso   1.000  C
  C368     1.0000 0.34600  0.79740  0.29580  Biso   1.000  C
  H297     1.0000 0.83730  0.69580  0.33030  Biso   1.000  H
  H298     1.0000 0.66270  0.19580  0.66970  Biso   1.000  H
  H299     1.0000 0.16270  0.30420  0.66970  Biso   1.000  H
  H300     1.0000 0.33730  0.80420  0.33030  Biso   1.000  H
  C369     1.0000 0.86870  0.75750  0.27750  Biso   1.000  C
  C370     1.0000 0.63130  0.25750  0.72250  Biso   1.000  C
  C371     1.0000 0.13130  0.24250  0.72250  Biso   1.000  C
  C372     1.0000 0.36870  0.74250  0.27750  Biso   1.000  C
  H301     1.0000 0.87350  0.78710  0.30160  Biso   1.000  H
  H302     1.0000 0.62650  0.28710  0.69840  Biso   1.000  H
  H303     1.0000 0.12650  0.21290  0.69840  Biso   1.000  H
  H304     1.0000 0.37350  0.71290  0.30160  Biso   1.000  H
  C373     1.0000 0.93140  0.88130  0.25060  Biso   1.000  C
  C374     1.0000 0.56860  0.38130  0.74940  Biso   1.000  C
  C375     1.0000 0.06860  0.11870  0.74940  Biso   1.000  C
  C376     1.0000 0.43140  0.61870  0.25060  Biso   1.000  C
  C377     1.0000 0.90030  0.93370  0.24800  Biso   1.000  C
  C378     1.0000 0.59970  0.43370  0.75200  Biso   1.000  C
  C379     1.0000 0.09970  0.06630  0.75200  Biso   1.000  C
  C380     1.0000 0.40030  0.56630  0.24800  Biso   1.000  C
  H305     1.0000 0.86350  0.94100  0.22260  Biso   1.000  H
  H306     1.0000 0.63650  0.44100  0.77740  Biso   1.000  H
  H307     1.0000 0.13650  0.05900  0.77740  Biso   1.000  H
  H308     1.0000 0.36350  0.55900  0.22260  Biso   1.000  H
  C381     1.0000 0.92220  0.97570  0.28200  Biso   1.000  C
  C382     1.0000 0.57780  0.47570  0.71800  Biso   1.000  C
  C383     1.0000 0.07780  0.02430  0.71800  Biso   1.000  C
  C384     1.0000 0.42220  0.52430  0.28200  Biso   1.000  C
  H309     1.0000 0.90100  0.01160  0.27920  Biso   1.000  H
  H310     1.0000 0.59900  0.51160  0.72080  Biso   1.000  H
  H311     1.0000 0.09900  0.98840  0.72080  Biso   1.000  H
  H312     1.0000 0.40100  0.48840  0.27920  Biso   1.000  H
  C385     1.0000 0.97330  0.96590  0.31910  Biso   1.000  C
  C386     1.0000 0.52670  0.46590  0.68090  Biso   1.000  C
  C387     1.0000 0.02670  0.03410  0.68090  Biso   1.000  C
  C388     1.0000 0.47330  0.53410  0.31910  Biso   1.000  C
  H313     1.0000 0.98850  0.99490  0.34200  Biso   1.000  H
  H314     1.0000 0.51150  0.49490  0.65800  Biso   1.000  H
  H315     1.0000 0.01150  0.00510  0.65800  Biso   1.000  H
  H316     1.0000 0.48850  0.50510  0.34200  Biso   1.000  H
  C389     1.0000 0.00340  0.91380  0.32380  Biso   1.000  C
  C390     1.0000 0.49660  0.41380  0.67620  Biso   1.000  C
  C391     1.0000 0.99660  0.08620  0.67620  Biso   1.000  C
  C392     1.0000 0.50340  0.58620  0.32380  Biso   1.000  C
  H317     1.0000 0.03820  0.90660  0.35060  Biso   1.000  H
  H318     1.0000 0.46180  0.40660  0.64940  Biso   1.000  H
  H319     1.0000 0.96180  0.09340  0.64940  Biso   1.000  H
  H320     1.0000 0.53820  0.59340  0.35060  Biso   1.000  H
  C393     1.0000 0.98310  0.87130  0.28930  Biso   1.000  C
  C394     1.0000 0.51690  0.37130  0.71070  Biso   1.000  C
  C395     1.0000 0.01690  0.12870  0.71070  Biso   1.000  C
  C396     1.0000 0.48310  0.62870  0.28930  Biso   1.000  C
  H321     1.0000 0.00460  0.83570  0.29240  Biso   1.000  H
  H322     1.0000 0.49540  0.33570  0.70760  Biso   1.000  H
  H323     1.0000 0.99540  0.16430  0.70760  Biso   1.000  H
  H324     1.0000 0.50460  0.66430  0.29240  Biso   1.000  H
  Cl1      1.0000 0.19841  0.30766  0.55328  Biso   1.000  Cl
  Cl2      1.0000 0.30159  0.80766  0.44672  Biso   1.000  Cl
  Cl3      1.0000 0.80159  0.69234  0.44672  Biso   1.000  Cl
  Cl4      1.0000 0.69841  0.19234  0.55328  Biso   1.000  Cl
  O1       1.0000 0.15750  0.26070  0.53700  Biso   1.000  O
  O2       1.0000 0.34250  0.76070  0.46300  Biso   1.000  O
  O3       1.0000 0.84250  0.73930  0.46300  Biso   1.000  O
  O4       1.0000 0.65750  0.23930  0.53700  Biso   1.000  O
  O5       1.0000 0.15610  0.35030  0.57300  Biso   1.000  O
  O6       1.0000 0.34390  0.85030  0.42700  Biso   1.000  O
  O7       1.0000 0.84390  0.64970  0.42700  Biso   1.000  O
  O8       1.0000 0.65610  0.14970  0.57300  Biso   1.000  O
  O9       1.0000 0.25040  0.29090  0.59260  Biso   1.000  O
  O10      1.0000 0.24960  0.79090  0.40740  Biso   1.000  O
  O11      1.0000 0.74960  0.70910  0.40740  Biso   1.000  O
  O12      1.0000 0.75040  0.20910  0.59260  Biso   1.000  O
  O13      1.0000 0.23290  0.33050  0.51130  Biso   1.000  O
  O14      1.0000 0.26710  0.83050  0.48870  Biso   1.000  O
  O15      1.0000 0.76710  0.66950  0.48870  Biso   1.000  O
  O16      1.0000 0.73290  0.16950  0.51130  Biso   1.000  O
  Cl5      1.0000 0.51623  0.07190  0.87036  Biso   1.000  Cl
  Cl6      1.0000 0.98377  0.57190  0.12964  Biso   1.000  Cl
  Cl7      1.0000 0.48377  0.92810  0.12964  Biso   1.000  Cl
  Cl8      1.0000 0.01623  0.42810  0.87036  Biso   1.000  Cl
  O17      1.0000 0.45010  0.09290  0.88210  Biso   1.000  O
  O18      1.0000 0.04990  0.59290  0.11790  Biso   1.000  O
  O19      1.0000 0.54990  0.90710  0.11790  Biso   1.000  O
  O20      1.0000 0.95010  0.40710  0.88210  Biso   1.000  O
  O21      1.0000 0.52340  0.01340  0.88283  Biso   1.000  O
  O22      1.0000 0.97660  0.51340  0.11717  Biso   1.000  O
  O23      1.0000 0.47660  0.98660  0.11717  Biso   1.000  O
  O24      1.0000 0.02340  0.48660  0.88283  Biso   1.000  O
  O25      1.0000 0.57020  0.10310  0.89380  Biso   1.000  O
  O26      1.0000 0.92980  0.60310  0.10620  Biso   1.000  O
  O27      1.0000 0.42980  0.89690  0.10620  Biso   1.000  O
  O28      1.0000 0.07020  0.39690  0.89380  Biso   1.000  O
  O29      1.0000 0.51950  0.07640  0.81370  Biso   1.000  O
  O30      1.0000 0.98050  0.57640  0.18630  Biso   1.000  O
  O31      1.0000 0.48050  0.92360  0.18630  Biso   1.000  O
  O32      1.0000 0.01950  0.42360  0.81370  Biso   1.000  O
  Cl9      1.0000 0.08583  0.13647  0.26670  Biso   1.000  Cl
  Cl10     1.0000 0.41417  0.63647  0.73330  Biso   1.000  Cl
  Cl11     1.0000 0.91417  0.86353  0.73330  Biso   1.000  Cl
  Cl12     1.0000 0.58583  0.36353  0.26670  Biso   1.000  Cl
  O33      1.0000 0.08080  0.09210  0.23080  Biso   1.000  O
  O34      1.0000 0.41920  0.59210  0.76920  Biso   1.000  O
  O35      1.0000 0.91920  0.90790  0.76920  Biso   1.000  O
  O36      1.0000 0.58080  0.40790  0.23080  Biso   1.000  O
  O37      1.0000 0.05880  0.18620  0.24280  Biso   1.000  O
  O38      1.0000 0.44120  0.68620  0.75720  Biso   1.000  O
  O39      1.0000 0.94120  0.81380  0.75720  Biso   1.000  O
  O40      1.0000 0.55880  0.31380  0.24280  Biso   1.000  O
  O41      1.0000 0.04540  0.12310  0.30850  Biso   1.000  O
  O42      1.0000 0.45460  0.62310  0.69150  Biso   1.000  O
  O43      1.0000 0.95460  0.87690  0.69150  Biso   1.000  O
  O44      1.0000 0.54540  0.37690  0.30850  Biso   1.000  O
  O45      1.0000 0.15640  0.14320  0.28510  Biso   1.000  O
  O46      1.0000 0.34360  0.64320  0.71490  Biso   1.000  O
  O47      1.0000 0.84360  0.85680  0.71490  Biso   1.000  O
  O48      1.0000 0.65640  0.35680  0.28510  Biso   1.000  O
  O49      1.0000 0.74760  0.25610  0.17100  Biso   1.000  O
  O50      1.0000 0.75240  0.75610  0.82900  Biso   1.000  O
  O51      1.0000 0.25240  0.74390  0.82900  Biso   1.000  O
  O52      1.0000 0.24760  0.24390  0.17100  Biso   1.000  O
  C397     1.0000 0.70790  0.22240  0.19930  Biso   1.000  C
  C398     1.0000 0.79210  0.72240  0.80070  Biso   1.000  C
  C399     1.0000 0.29210  0.77760  0.80070  Biso   1.000  C
  C400     1.0000 0.20790  0.27760  0.19930  Biso   1.000  C
  H325     1.0000 0.69080  0.24390  0.22790  Biso   1.000  H
  H326     1.0000 0.80920  0.74390  0.77210  Biso   1.000  H
  H327     1.0000 0.30920  0.75610  0.77210  Biso   1.000  H
  H328     1.0000 0.19080  0.25610  0.22790  Biso   1.000  H
  H329     1.0000 0.73640  0.19080  0.21360  Biso   1.000  H
  H330     1.0000 0.76360  0.69080  0.78640  Biso   1.000  H
  H331     1.0000 0.26360  0.80920  0.78640  Biso   1.000  H
  H332     1.0000 0.23640  0.30920  0.21360  Biso   1.000  H
  C401     1.0000 0.65080  0.20190  0.16770  Biso   1.000  C
  C402     1.0000 0.84920  0.70190  0.83230  Biso   1.000  C
  C403     1.0000 0.34920  0.79810  0.83230  Biso   1.000  C
  C404     1.0000 0.15080  0.29810  0.16770  Biso   1.000  C
  H333     1.0000 0.66300  0.16670  0.15080  Biso   1.000  H
  H334     1.0000 0.83700  0.66670  0.84920  Biso   1.000  H
  H335     1.0000 0.33700  0.83330  0.84920  Biso   1.000  H
  H336     1.0000 0.16300  0.33330  0.15080  Biso   1.000  H
  H337     1.0000 0.60990  0.19520  0.18740  Biso   1.000  H
  H338     1.0000 0.89010  0.69520  0.81260  Biso   1.000  H
  H339     1.0000 0.39010  0.80480  0.81260  Biso   1.000  H
  H340     1.0000 0.10990  0.30480  0.18740  Biso   1.000  H
  C405     1.0000 0.63740  0.24460  0.13220  Biso   1.000  C
  C406     1.0000 0.86260  0.74460  0.86780  Biso   1.000  C
  C407     1.0000 0.36260  0.75540  0.86780  Biso   1.000  C
  C408     1.0000 0.13740  0.25540  0.13220  Biso   1.000  C
  H341     1.0000 0.59780  0.26790  0.14140  Biso   1.000  H
  H342     1.0000 0.90220  0.76790  0.85860  Biso   1.000  H
  H343     1.0000 0.40220  0.73210  0.85860  Biso   1.000  H
  H344     1.0000 0.09780  0.23210  0.14140  Biso   1.000  H
  H345     1.0000 0.62620  0.22890  0.09770  Biso   1.000  H
  H346     1.0000 0.87380  0.72890  0.90230  Biso   1.000  H
  H347     1.0000 0.37380  0.77110  0.90230  Biso   1.000  H
  H348     1.0000 0.12620  0.27110  0.09770  Biso   1.000  H
  C409     1.0000 0.70050  0.27750  0.13350  Biso   1.000  C
  C410     1.0000 0.79950  0.77750  0.86650  Biso   1.000  C
  C411     1.0000 0.29950  0.72250  0.86650  Biso   1.000  C
  C412     1.0000 0.20050  0.22250  0.13350  Biso   1.000  C
  H349     1.0000 0.72050  0.27580  0.10000  Biso   1.000  H
  H350     1.0000 0.77950  0.77580  0.90000  Biso   1.000  H
  H351     1.0000 0.27950  0.72420  0.90000  Biso   1.000  H
  H352     1.0000 0.22050  0.22420  0.10000  Biso   1.000  H
  H353     1.0000 0.69010  0.31700  0.14100  Biso   1.000  H
  H354     1.0000 0.80990  0.81700  0.85900  Biso   1.000  H
  H355     1.0000 0.30990  0.68300  0.85900  Biso   1.000  H
  H356     1.0000 0.19010  0.18300  0.14100  Biso   1.000  H
  O53      1.0000 0.06260  0.67810  0.38890  Biso   1.000  O
  O54      1.0000 0.43740  0.17810  0.61110  Biso   1.000  O
  O55      1.0000 0.93740  0.32190  0.61110  Biso   1.000  O
  O56      1.0000 0.56260  0.82190  0.38890  Biso   1.000  O
  C413     1.0000 0.01530  0.71800  0.37080  Biso   1.000  C
  C414     1.0000 0.48470  0.21800  0.62920  Biso   1.000  C
  C415     1.0000 0.98470  0.28200  0.62920  Biso   1.000  C
  C416     1.0000 0.51530  0.78200  0.37080  Biso   1.000  C
  H357     1.0000 0.96740  0.70270  0.37010  Biso   1.000  H
  H358     1.0000 0.53260  0.20270  0.62990  Biso   1.000  H
  H359     1.0000 0.03260  0.29730  0.62990  Biso   1.000  H
  H360     1.0000 0.46740  0.79730  0.37010  Biso   1.000  H
  H361     1.0000 0.02450  0.72860  0.33570  Biso   1.000  H
  H362     1.0000 0.47550  0.22860  0.66430  Biso   1.000  H
  H363     1.0000 0.97550  0.27140  0.66430  Biso   1.000  H
  H364     1.0000 0.52450  0.77140  0.33570  Biso   1.000  H
  C417     1.0000 0.02100  0.76670  0.40320  Biso   1.000  C
  C418     1.0000 0.47900  0.26670  0.59680  Biso   1.000  C
  C419     1.0000 0.97900  0.23330  0.59680  Biso   1.000  C
  C420     1.0000 0.52100  0.73330  0.40320  Biso   1.000  C
  H365     1.0000 0.04900  0.79630  0.38840  Biso   1.000  H
  H366     1.0000 0.45100  0.29630  0.61160  Biso   1.000  H
  H367     1.0000 0.95100  0.20370  0.61160  Biso   1.000  H
  H368     1.0000 0.54900  0.70370  0.38840  Biso   1.000  H
  H369     1.0000 0.97440  0.78180  0.40920  Biso   1.000  H
  H370     1.0000 0.52560  0.28180  0.59080  Biso   1.000  H
  H371     1.0000 0.02560  0.21820  0.59080  Biso   1.000  H
  H372     1.0000 0.47440  0.71820  0.40920  Biso   1.000  H
  C421     1.0000 0.05550  0.74490  0.44900  Biso   1.000  C
  C422     1.0000 0.44450  0.24490  0.55100  Biso   1.000  C
  C423     1.0000 0.94450  0.25510  0.55100  Biso   1.000  C
  C424     1.0000 0.55550  0.75510  0.44900  Biso   1.000  C
  H373     1.0000 0.09480  0.76940  0.46120  Biso   1.000  H
  H374     1.0000 0.40520  0.26940  0.53880  Biso   1.000  H
  H375     1.0000 0.90520  0.23060  0.53880  Biso   1.000  H
  H376     1.0000 0.59480  0.73060  0.46120  Biso   1.000  H
  H377     1.0000 0.02260  0.74220  0.47600  Biso   1.000  H
  H378     1.0000 0.47740  0.24220  0.52400  Biso   1.000  H
  H379     1.0000 0.97740  0.25780  0.52400  Biso   1.000  H
  H380     1.0000 0.52260  0.75780  0.47600  Biso   1.000  H
  C425     1.0000 0.08020  0.69140  0.43690  Biso   1.000  C
  C426     1.0000 0.41980  0.19140  0.56310  Biso   1.000  C
  C427     1.0000 0.91980  0.30860  0.56310  Biso   1.000  C
  C428     1.0000 0.58020  0.80860  0.43690  Biso   1.000  C
  H381     1.0000 0.13160  0.69060  0.44310  Biso   1.000  H
  H382     1.0000 0.36840  0.19060  0.55690  Biso   1.000  H
  H383     1.0000 0.86840  0.30940  0.55690  Biso   1.000  H
  H384     1.0000 0.63160  0.80940  0.44310  Biso   1.000  H
  H385     1.0000 0.06070  0.66330  0.45940  Biso   1.000  H
  H386     1.0000 0.43930  0.16330  0.54060  Biso   1.000  H
  H387     1.0000 0.93930  0.33670  0.54060  Biso   1.000  H
  H388     1.0000 0.56070  0.83670  0.45940  Biso   1.000  H
  O57      1.0000 0.41750  0.37930  0.08950  Biso   1.000  O
  O58      1.0000 0.08250  0.87930  0.91050  Biso   1.000  O
  O59      1.0000 0.58250  0.62070  0.91050  Biso   1.000  O
  O60      1.0000 0.91750  0.12070  0.08950  Biso   1.000  O
  C429     1.0000 0.35730  0.41090  0.08920  Biso   1.000  C
  C430     1.0000 0.14270  0.91090  0.91080  Biso   1.000  C
  C431     1.0000 0.64270  0.58910  0.91080  Biso   1.000  C
  C432     1.0000 0.85730  0.08910  0.08920  Biso   1.000  C
  H389     1.0000 0.31640  0.38760  0.09560  Biso   1.000  H
  H390     1.0000 0.18360  0.88760  0.90440  Biso   1.000  H
  H391     1.0000 0.68360  0.61240  0.90440  Biso   1.000  H
  H392     1.0000 0.81640  0.11240  0.09560  Biso   1.000  H
  H393     1.0000 0.34790  0.43140  0.05670  Biso   1.000  H
  H394     1.0000 0.15210  0.93140  0.94330  Biso   1.000  H
  H395     1.0000 0.65210  0.56860  0.94330  Biso   1.000  H
  H396     1.0000 0.84790  0.06860  0.05670  Biso   1.000  H
  C433     1.0000 0.37550  0.44900  0.13150  Biso   1.000  C
  C434     1.0000 0.12450  0.94900  0.86850  Biso   1.000  C
  C435     1.0000 0.62450  0.55100  0.86850  Biso   1.000  C
  C436     1.0000 0.87550  0.05100  0.13150  Biso   1.000  C
  H397     1.0000 0.41250  0.47570  0.12350  Biso   1.000  H
  H398     1.0000 0.08750  0.97570  0.87650  Biso   1.000  H
  H399     1.0000 0.58750  0.52430  0.87650  Biso   1.000  H
  H400     1.0000 0.91250  0.02430  0.12350  Biso   1.000  H
  H401     1.0000 0.33440  0.47000  0.14160  Biso   1.000  H
  H402     1.0000 0.16560  0.97000  0.85840  Biso   1.000  H
  H403     1.0000 0.66560  0.53000  0.85840  Biso   1.000  H
  H404     1.0000 0.83440  0.03000  0.14160  Biso   1.000  H
  C437     1.0000 0.40010  0.40950  0.16970  Biso   1.000  C
  C438     1.0000 0.09990  0.90950  0.83030  Biso   1.000  C
  C439     1.0000 0.59990  0.59050  0.83030  Biso   1.000  C
  C440     1.0000 0.90010  0.09050  0.16970  Biso   1.000  C
  H405     1.0000 0.42510  0.42770  0.19960  Biso   1.000  H
  H406     1.0000 0.07490  0.92770  0.80040  Biso   1.000  H
  H407     1.0000 0.57490  0.57230  0.80040  Biso   1.000  H
  H408     1.0000 0.92510  0.07230  0.19960  Biso   1.000  H
  H409     1.0000 0.36220  0.38550  0.18080  Biso   1.000  H
  H410     1.0000 0.13780  0.88550  0.81920  Biso   1.000  H
  H411     1.0000 0.63780  0.61450  0.81920  Biso   1.000  H
  H412     1.0000 0.86220  0.11450  0.18080  Biso   1.000  H
  C441     1.0000 0.44540  0.38030  0.13970  Biso   1.000  C
  C442     1.0000 0.05460  0.88030  0.86030  Biso   1.000  C
  C443     1.0000 0.55460  0.61970  0.86030  Biso   1.000  C
  C444     1.0000 0.94540  0.11970  0.13970  Biso   1.000  C
  H413     1.0000 0.49160  0.39890  0.14180  Biso   1.000  H
  H414     1.0000 0.00840  0.89890  0.85820  Biso   1.000  H
  H415     1.0000 0.50840  0.60110  0.85820  Biso   1.000  H
  H416     1.0000 0.99160  0.10110  0.14180  Biso   1.000  H
  H417     1.0000 0.45190  0.34160  0.15250  Biso   1.000  H
  H418     1.0000 0.04810  0.84160  0.84750  Biso   1.000  H
  H419     1.0000 0.54810  0.65840  0.84750  Biso   1.000  H
  H420     1.0000 0.95190  0.15840  0.15250  Biso   1.000  H
  O61      1.0000 0.74320  0.68080  0.04300  Biso   1.000  O
  O62      1.0000 0.75680  0.18080  0.95700  Biso   1.000  O
  O63      1.0000 0.25680  0.31920  0.95700  Biso   1.000  O
  O64      1.0000 0.24320  0.81920  0.04300  Biso   1.000  O
  C445     1.0000 0.73030  0.73430  0.05590  Biso   1.000  C
  C446     1.0000 0.76970  0.23430  0.94410  Biso   1.000  C
  C447     1.0000 0.26970  0.26570  0.94410  Biso   1.000  C
  C448     1.0000 0.23030  0.76570  0.05590  Biso   1.000  C
  H421     1.0000 0.75500  0.74440  0.08910  Biso   1.000  H
  H422     1.0000 0.74500  0.24440  0.91090  Biso   1.000  H
  H423     1.0000 0.24500  0.25560  0.91090  Biso   1.000  H
  H424     1.0000 0.25500  0.75560  0.08910  Biso   1.000  H
  H425     1.0000 0.67970  0.74130  0.05720  Biso   1.000  H
  H426     1.0000 0.82030  0.24130  0.94280  Biso   1.000  H
  H427     1.0000 0.32030  0.25870  0.94280  Biso   1.000  H
  H428     1.0000 0.17970  0.75870  0.05720  Biso   1.000  H
  C449     1.0000 0.75780  0.76380  0.01480  Biso   1.000  C
  C450     1.0000 0.74220  0.26380  0.98520  Biso   1.000  C
  C451     1.0000 0.24220  0.23620  0.98520  Biso   1.000  C
  C452     1.0000 0.25780  0.73620  0.01480  Biso   1.000  C
  H429     1.0000 0.75510  0.80490  0.01820  Biso   1.000  H
  H430     1.0000 0.74490  0.30490  0.98180  Biso   1.000  H
  H431     1.0000 0.24490  0.19510  0.98180  Biso   1.000  H
  H432     1.0000 0.25510  0.69510  0.01820  Biso   1.000  H
  H433     1.0000 0.73740  0.75170  0.98090  Biso   1.000  H
  H434     1.0000 0.76260  0.25170  0.01910  Biso   1.000  H
  H435     1.0000 0.26260  0.24830  0.01910  Biso   1.000  H
  H436     1.0000 0.23740  0.74830  0.98090  Biso   1.000  H
  C453     1.0000 0.82740  0.74150  0.02770  Biso   1.000  C
  C454     1.0000 0.67260  0.24150  0.97230  Biso   1.000  C
  C455     1.0000 0.17260  0.25850  0.97230  Biso   1.000  C
  C456     1.0000 0.32740  0.75850  0.02770  Biso   1.000  C
  H437     1.0000 0.85970  0.75020  0.00130  Biso   1.000  H
  H438     1.0000 0.64030  0.25020  0.99870  Biso   1.000  H
  H439     1.0000 0.14030  0.24980  0.99870  Biso   1.000  H
  H440     1.0000 0.35970  0.74980  0.00130  Biso   1.000  H
  H441     1.0000 0.84750  0.75510  0.06120  Biso   1.000  H
  H442     1.0000 0.65250  0.25510  0.93880  Biso   1.000  H
  H443     1.0000 0.15250  0.24490  0.93880  Biso   1.000  H
  H444     1.0000 0.34750  0.74490  0.06120  Biso   1.000  H
  C457     1.0000 0.81030  0.68410  0.02870  Biso   1.000  C
  C458     1.0000 0.68970  0.18410  0.97130  Biso   1.000  C
  C459     1.0000 0.18970  0.31590  0.97130  Biso   1.000  C
  C460     1.0000 0.31030  0.81590  0.02870  Biso   1.000  C
  H445     1.0000 0.81330  0.66720  0.99470  Biso   1.000  H
  H446     1.0000 0.68670  0.16720  0.00530  Biso   1.000  H
  H447     1.0000 0.18670  0.33280  0.00530  Biso   1.000  H
  H448     1.0000 0.31330  0.83280  0.99470  Biso   1.000  H
  H449     1.0000 0.84280  0.66400  0.05350  Biso   1.000  H
  H450     1.0000 0.65720  0.16400  0.94650  Biso   1.000  H
  H451     1.0000 0.15720  0.33600  0.94650  Biso   1.000  H
  H452     1.0000 0.34280  0.83600  0.05350  Biso   1.000  H
  O65      1.0000 0.79070  0.49910  0.03000  Biso   1.000  O
  O66      1.0000 0.70930  0.99910  0.97000  Biso   1.000  O
  O67      1.0000 0.20930  0.50090  0.97000  Biso   1.000  O
  O68      1.0000 0.29070  0.00090  0.03000  Biso   1.000  O
  C461     1.0000 0.83800  0.45420  0.03750  Biso   1.000  C
  C462     1.0000 0.66200  0.95420  0.96250  Biso   1.000  C
  C463     1.0000 0.16200  0.54580  0.96250  Biso   1.000  C
  C464     1.0000 0.33800  0.04580  0.03750  Biso   1.000  C
  H453     1.0000 0.81370  0.41850  0.02910  Biso   1.000  H
  H454     1.0000 0.68630  0.91850  0.97090  Biso   1.000  H
  H455     1.0000 0.18630  0.58150  0.97090  Biso   1.000  H
  H456     1.0000 0.31370  0.08150  0.02910  Biso   1.000  H
  H457     1.0000 0.85650  0.45280  0.07360  Biso   1.000  H
  H458     1.0000 0.64350  0.95280  0.92640  Biso   1.000  H
  H459     1.0000 0.14350  0.54720  0.92640  Biso   1.000  H
  H460     1.0000 0.35650  0.04720  0.07360  Biso   1.000  H
  C465     1.0000 0.89480  0.46160  0.00510  Biso   1.000  C
  C466     1.0000 0.60520  0.96160  0.99490  Biso   1.000  C
  C467     1.0000 0.10520  0.53840  0.99490  Biso   1.000  C
  C468     1.0000 0.39480  0.03840  0.00510  Biso   1.000  C
  H461     1.0000 0.89250  0.43360  0.97730  Biso   1.000  H
  H462     1.0000 0.60750  0.93360  0.02270  Biso   1.000  H
  H463     1.0000 0.10750  0.56640  0.02270  Biso   1.000  H
  H464     1.0000 0.39250  0.06640  0.97730  Biso   1.000  H
  H465     1.0000 0.94060  0.45870  0.02490  Biso   1.000  H
  H466     1.0000 0.55940  0.95870  0.97510  Biso   1.000  H
  H467     1.0000 0.05940  0.54130  0.97510  Biso   1.000  H
  H468     1.0000 0.44060  0.04130  0.02490  Biso   1.000  H
  C469     1.0000 0.88250  0.51780  0.98540  Biso   1.000  C
  C470     1.0000 0.61750  0.01780  0.01460  Biso   1.000  C
  C471     1.0000 0.11750  0.48220  0.01460  Biso   1.000  C
  C472     1.0000 0.38250  0.98220  0.98540  Biso   1.000  C
  H469     1.0000 0.90580  0.54610  0.00820  Biso   1.000  H
  H470     1.0000 0.59420  0.04610  0.99180  Biso   1.000  H
  H471     1.0000 0.09420  0.45390  0.99180  Biso   1.000  H
  H472     1.0000 0.40580  0.95390  0.00820  Biso   1.000  H
  H473     1.0000 0.89910  0.52180  0.95090  Biso   1.000  H
  H474     1.0000 0.60090  0.02180  0.04910  Biso   1.000  H
  H475     1.0000 0.10090  0.47820  0.04910  Biso   1.000  H
  H476     1.0000 0.39910  0.97820  0.95090  Biso   1.000  H
  C473     1.0000 0.80760  0.52260  0.98400  Biso   1.000  C
  C474     1.0000 0.69240  0.02260  0.01600  Biso   1.000  C
  C475     1.0000 0.19240  0.47740  0.01600  Biso   1.000  C
  C476     1.0000 0.30760  0.97740  0.98400  Biso   1.000  C
  H477     1.0000 0.79290  0.56220  0.98160  Biso   1.000  H
  H478     1.0000 0.70710  0.06220  0.01840  Biso   1.000  H
  H479     1.0000 0.20710  0.43780  0.01840  Biso   1.000  H
  H480     1.0000 0.29290  0.93780  0.98160  Biso   1.000  H
  H481     1.0000 0.78490  0.50180  0.95470  Biso   1.000  H
  H482     1.0000 0.71510  0.00180  0.04530  Biso   1.000  H
  H483     1.0000 0.21510  0.49820  0.04530  Biso   1.000  H
  H484     1.0000 0.28490  0.99820  0.95470  Biso   1.000  H
  C477     1.0000 0.61890  0.21940  0.78450  Biso   1.000  C
  C478     1.0000 0.88110  0.71940  0.21550  Biso   1.000  C
  C479     1.0000 0.38110  0.78060  0.21550  Biso   1.000  C
  C480     1.0000 0.11890  0.28060  0.78450  Biso   1.000  C
  C481     1.0000 0.64740  0.17120  0.76170  Biso   1.000  C
  C482     1.0000 0.85260  0.67120  0.23830  Biso   1.000  C
  C483     1.0000 0.35260  0.82880  0.23830  Biso   1.000  C
  C484     1.0000 0.14740  0.32880  0.76170  Biso   1.000  C
  C485     1.0000 0.66510  0.17810  0.71300  Biso   1.000  C
  C486     1.0000 0.83490  0.67810  0.28700  Biso   1.000  C
  C487     1.0000 0.33490  0.82190  0.28700  Biso   1.000  C
  C488     1.0000 0.16510  0.32190  0.71300  Biso   1.000  C
  C489     1.0000 0.65770  0.22950  0.68710  Biso   1.000  C
  C490     1.0000 0.84230  0.72950  0.31290  Biso   1.000  C
  C491     1.0000 0.34230  0.77050  0.31290  Biso   1.000  C
  C492     1.0000 0.15770  0.27050  0.68710  Biso   1.000  C
  C493     1.0000 0.63480  0.27870  0.71190  Biso   1.000  C
  C494     1.0000 0.86520  0.77870  0.28810  Biso   1.000  C
  C495     1.0000 0.36520  0.72130  0.28810  Biso   1.000  C
  C496     1.0000 0.13480  0.22130  0.71190  Biso   1.000  C
  H485     1.0000 0.59870  0.21380  0.81580  Biso   1.000  H
  H486     1.0000 0.90130  0.71380  0.18420  Biso   1.000  H
  H487     1.0000 0.40130  0.78620  0.18420  Biso   1.000  H
  H488     1.0000 0.09870  0.28620  0.81580  Biso   1.000  H
  H489     1.0000 0.65350  0.13660  0.77920  Biso   1.000  H
  H490     1.0000 0.84650  0.63660  0.22080  Biso   1.000  H
  H491     1.0000 0.34650  0.86340  0.22080  Biso   1.000  H
  H492     1.0000 0.15350  0.36340  0.77920  Biso   1.000  H
  H493     1.0000 0.68330  0.14710  0.69590  Biso   1.000  H
  H494     1.0000 0.81670  0.64710  0.30410  Biso   1.000  H
  H495     1.0000 0.31670  0.85290  0.30410  Biso   1.000  H
  H496     1.0000 0.18330  0.35290  0.69590  Biso   1.000  H
  H497     1.0000 0.66800  0.23150  0.65250  Biso   1.000  H
  H498     1.0000 0.83200  0.73150  0.34750  Biso   1.000  H
  H499     1.0000 0.33200  0.76850  0.34750  Biso   1.000  H
  H500     1.0000 0.16800  0.26850  0.65250  Biso   1.000  H
  H501     1.0000 0.63050  0.31430  0.69590  Biso   1.000  H
  H502     1.0000 0.86950  0.81430  0.30410  Biso   1.000  H
  H503     1.0000 0.36950  0.68570  0.30410  Biso   1.000  H
  H504     1.0000 0.13050  0.18570  0.69590  Biso   1.000  H
