data_image0
_cell_length_a       19.0455
_cell_length_b       19.2388
_cell_length_c       24.4262
_cell_angle_alpha    90
_cell_angle_beta     90
_cell_angle_gamma    90

_symmetry_space_group_name_H-M    "P 1"
_symmetry_int_tables_number       1

loop_
  _symmetry_equiv_pos_as_xyz
  'x, y, z'

loop_
  _atom_site_label
  _atom_site_occupancy
  _atom_site_fract_x
  _atom_site_fract_y
  _atom_site_fract_z
  _atom_site_thermal_displace_type
  _atom_site_B_iso_or_equiv
  _atom_site_type_symbol
  Cu1      1.0000 0.05070  0.25003  0.10738  Biso   1.000  Cu
  Cu2      1.0000 0.94930  0.24997  0.60738  Biso   1.000  Cu
  Cu3      1.0000 0.55070  0.74997  0.39262  Biso   1.000  Cu
  Cu4      1.0000 0.44930  0.75003  0.89262  Biso   1.000  Cu
  Cu5      1.0000 0.94930  0.74997  0.89262  Biso   1.000  Cu
  Cu6      1.0000 0.05070  0.75003  0.39262  Biso   1.000  Cu
  Cu7      1.0000 0.44930  0.25003  0.60738  Biso   1.000  Cu
  Cu8      1.0000 0.55070  0.24997  0.10738  Biso   1.000  Cu
  N1       1.0000 0.98470  0.25330  0.17601  Biso   1.000  N
  N2       1.0000 0.01530  0.24670  0.67601  Biso   1.000  N
  N3       1.0000 0.48470  0.74670  0.32399  Biso   1.000  N
  N4       1.0000 0.51530  0.75330  0.82399  Biso   1.000  N
  N5       1.0000 0.01530  0.74670  0.82399  Biso   1.000  N
  N6       1.0000 0.98470  0.75330  0.32399  Biso   1.000  N
  N7       1.0000 0.51530  0.25330  0.67601  Biso   1.000  N
  N8       1.0000 0.48470  0.24670  0.17601  Biso   1.000  N
  N9       1.0000 0.65130  0.25320  0.14016  Biso   1.000  N
  N10      1.0000 0.34870  0.24680  0.64016  Biso   1.000  N
  N11      1.0000 0.15130  0.74680  0.35984  Biso   1.000  N
  N12      1.0000 0.84870  0.75320  0.85984  Biso   1.000  N
  N13      1.0000 0.34870  0.74680  0.85984  Biso   1.000  N
  N14      1.0000 0.65130  0.75320  0.35984  Biso   1.000  N
  N15      1.0000 0.84870  0.25320  0.64016  Biso   1.000  N
  N16      1.0000 0.15130  0.24680  0.14016  Biso   1.000  N
  C1       1.0000 0.00080  0.27410  0.22620  Biso   1.000  C
  C2       1.0000 0.99920  0.22590  0.72620  Biso   1.000  C
  C3       1.0000 0.50080  0.72590  0.27380  Biso   1.000  C
  C4       1.0000 0.49920  0.77410  0.77380  Biso   1.000  C
  C5       1.0000 0.99920  0.72590  0.77380  Biso   1.000  C
  C6       1.0000 0.00080  0.77410  0.27380  Biso   1.000  C
  C7       1.0000 0.49920  0.27410  0.72620  Biso   1.000  C
  C8       1.0000 0.50080  0.22590  0.22620  Biso   1.000  C
  H1       1.0000 0.04850  0.27840  0.23570  Biso   1.000  H
  H2       1.0000 0.95150  0.22160  0.73570  Biso   1.000  H
  H3       1.0000 0.54850  0.72160  0.26430  Biso   1.000  H
  H4       1.0000 0.45150  0.77840  0.76430  Biso   1.000  H
  H5       1.0000 0.95150  0.72160  0.76430  Biso   1.000  H
  H6       1.0000 0.04850  0.77840  0.26430  Biso   1.000  H
  H7       1.0000 0.45150  0.27840  0.73570  Biso   1.000  H
  H8       1.0000 0.54850  0.22160  0.23570  Biso   1.000  H
  C9       1.0000 0.95140  0.28980  0.26490  Biso   1.000  C
  C10      1.0000 0.04860  0.21020  0.76490  Biso   1.000  C
  C11      1.0000 0.45140  0.71020  0.23510  Biso   1.000  C
  C12      1.0000 0.54860  0.78980  0.73510  Biso   1.000  C
  C13      1.0000 0.04860  0.71020  0.73510  Biso   1.000  C
  C14      1.0000 0.95140  0.78980  0.23510  Biso   1.000  C
  C15      1.0000 0.54860  0.28980  0.76490  Biso   1.000  C
  C16      1.0000 0.45140  0.21020  0.26490  Biso   1.000  C
  H9       1.0000 0.96520  0.30310  0.30040  Biso   1.000  H
  H10      1.0000 0.03480  0.19690  0.80040  Biso   1.000  H
  H11      1.0000 0.46520  0.69690  0.19960  Biso   1.000  H
  H12      1.0000 0.53480  0.80310  0.69960  Biso   1.000  H
  H13      1.0000 0.03480  0.69690  0.69960  Biso   1.000  H
  H14      1.0000 0.96520  0.80310  0.19960  Biso   1.000  H
  H15      1.0000 0.53480  0.30310  0.80040  Biso   1.000  H
  H16      1.0000 0.46520  0.19690  0.30040  Biso   1.000  H
  C17      1.0000 0.88150  0.28590  0.25150  Biso   1.000  C
  C18      1.0000 0.11850  0.21410  0.75150  Biso   1.000  C
  C19      1.0000 0.38150  0.71410  0.24850  Biso   1.000  C
  C20      1.0000 0.61850  0.78590  0.74850  Biso   1.000  C
  C21      1.0000 0.11850  0.71410  0.74850  Biso   1.000  C
  C22      1.0000 0.88150  0.78590  0.24850  Biso   1.000  C
  C23      1.0000 0.61850  0.28590  0.75150  Biso   1.000  C
  C24      1.0000 0.38150  0.21410  0.25150  Biso   1.000  C
  H17      1.0000 0.84690  0.29800  0.27730  Biso   1.000  H
  H18      1.0000 0.15310  0.20200  0.77730  Biso   1.000  H
  H19      1.0000 0.34690  0.70200  0.22270  Biso   1.000  H
  H20      1.0000 0.65310  0.79800  0.72270  Biso   1.000  H
  H21      1.0000 0.15310  0.70200  0.72270  Biso   1.000  H
  H22      1.0000 0.84690  0.79800  0.22270  Biso   1.000  H
  H23      1.0000 0.65310  0.29800  0.77730  Biso   1.000  H
  H24      1.0000 0.34690  0.20200  0.27730  Biso   1.000  H
  C25      1.0000 0.86240  0.26410  0.20000  Biso   1.000  C
  C26      1.0000 0.13760  0.23590  0.70000  Biso   1.000  C
  C27      1.0000 0.36240  0.73590  0.30000  Biso   1.000  C
  C28      1.0000 0.63760  0.76410  0.80000  Biso   1.000  C
  C29      1.0000 0.13760  0.73590  0.80000  Biso   1.000  C
  C30      1.0000 0.86240  0.76410  0.30000  Biso   1.000  C
  C31      1.0000 0.63760  0.26410  0.70000  Biso   1.000  C
  C32      1.0000 0.36240  0.23590  0.20000  Biso   1.000  C
  C33      1.0000 0.91640  0.24740  0.16470  Biso   1.000  C
  C34      1.0000 0.08360  0.25260  0.66470  Biso   1.000  C
  C35      1.0000 0.41640  0.75260  0.33530  Biso   1.000  C
  C36      1.0000 0.58360  0.74740  0.83530  Biso   1.000  C
  C37      1.0000 0.08360  0.75260  0.83530  Biso   1.000  C
  C38      1.0000 0.91640  0.74740  0.33530  Biso   1.000  C
  C39      1.0000 0.58360  0.24740  0.66470  Biso   1.000  C
  C40      1.0000 0.41640  0.25260  0.16470  Biso   1.000  C
  H25      1.0000 0.90400  0.23040  0.12990  Biso   1.000  H
  H26      1.0000 0.09600  0.26960  0.62990  Biso   1.000  H
  H27      1.0000 0.40400  0.76960  0.37010  Biso   1.000  H
  H28      1.0000 0.59600  0.73040  0.87010  Biso   1.000  H
  H29      1.0000 0.09600  0.76960  0.87010  Biso   1.000  H
  H30      1.0000 0.90400  0.73040  0.37010  Biso   1.000  H
  H31      1.0000 0.59600  0.23040  0.62990  Biso   1.000  H
  H32      1.0000 0.40400  0.26960  0.12990  Biso   1.000  H
  C41      1.0000 0.78880  0.25920  0.18070  Biso   1.000  C
  C42      1.0000 0.21120  0.24080  0.68070  Biso   1.000  C
  C43      1.0000 0.28880  0.74080  0.31930  Biso   1.000  C
  C44      1.0000 0.71120  0.75920  0.81930  Biso   1.000  C
  C45      1.0000 0.21120  0.74080  0.81930  Biso   1.000  C
  C46      1.0000 0.78880  0.75920  0.31930  Biso   1.000  C
  C47      1.0000 0.71120  0.25920  0.68070  Biso   1.000  C
  C48      1.0000 0.28880  0.24080  0.18070  Biso   1.000  C
  C49      1.0000 0.73780  0.30470  0.19820  Biso   1.000  C
  C50      1.0000 0.26220  0.19530  0.69820  Biso   1.000  C
  C51      1.0000 0.23780  0.69530  0.30180  Biso   1.000  C
  C52      1.0000 0.76220  0.80470  0.80180  Biso   1.000  C
  C53      1.0000 0.26220  0.69530  0.80180  Biso   1.000  C
  C54      1.0000 0.73780  0.80470  0.30180  Biso   1.000  C
  C55      1.0000 0.76220  0.30470  0.69820  Biso   1.000  C
  C56      1.0000 0.23780  0.19530  0.19820  Biso   1.000  C
  H33      1.0000 0.74860  0.33920  0.22410  Biso   1.000  H
  H34      1.0000 0.25140  0.16080  0.72410  Biso   1.000  H
  H35      1.0000 0.24860  0.66080  0.27590  Biso   1.000  H
  H36      1.0000 0.75140  0.83920  0.77590  Biso   1.000  H
  H37      1.0000 0.25140  0.66080  0.77590  Biso   1.000  H
  H38      1.0000 0.74860  0.83920  0.27590  Biso   1.000  H
  H39      1.0000 0.75140  0.33920  0.72410  Biso   1.000  H
  H40      1.0000 0.24860  0.16080  0.22410  Biso   1.000  H
  C57      1.0000 0.67080  0.29930  0.17740  Biso   1.000  C
  C58      1.0000 0.32920  0.20070  0.67740  Biso   1.000  C
  C59      1.0000 0.17080  0.70070  0.32260  Biso   1.000  C
  C60      1.0000 0.82920  0.79930  0.82260  Biso   1.000  C
  C61      1.0000 0.32920  0.70070  0.82260  Biso   1.000  C
  C62      1.0000 0.67080  0.79930  0.32260  Biso   1.000  C
  C63      1.0000 0.82920  0.29930  0.67740  Biso   1.000  C
  C64      1.0000 0.17080  0.20070  0.17740  Biso   1.000  C
  H41      1.0000 0.63670  0.33050  0.19040  Biso   1.000  H
  H42      1.0000 0.36330  0.16950  0.69040  Biso   1.000  H
  H43      1.0000 0.13670  0.66950  0.30960  Biso   1.000  H
  H44      1.0000 0.86330  0.83050  0.80960  Biso   1.000  H
  H45      1.0000 0.36330  0.66950  0.80960  Biso   1.000  H
  H46      1.0000 0.63670  0.83050  0.30960  Biso   1.000  H
  H47      1.0000 0.86330  0.33050  0.69040  Biso   1.000  H
  H48      1.0000 0.13670  0.16950  0.19040  Biso   1.000  H
  C65      1.0000 0.70140  0.20850  0.12320  Biso   1.000  C
  C66      1.0000 0.29860  0.29150  0.62320  Biso   1.000  C
  C67      1.0000 0.20140  0.79150  0.37680  Biso   1.000  C
  C68      1.0000 0.79860  0.70850  0.87680  Biso   1.000  C
  C69      1.0000 0.29860  0.79150  0.87680  Biso   1.000  C
  C70      1.0000 0.70140  0.70850  0.37680  Biso   1.000  C
  C71      1.0000 0.79860  0.20850  0.62320  Biso   1.000  C
  C72      1.0000 0.20140  0.29150  0.12320  Biso   1.000  C
  H49      1.0000 0.68940  0.17480  0.09700  Biso   1.000  H
  H50      1.0000 0.31060  0.32520  0.59700  Biso   1.000  H
  H51      1.0000 0.18940  0.82520  0.40300  Biso   1.000  H
  H52      1.0000 0.81060  0.67480  0.90300  Biso   1.000  H
  H53      1.0000 0.31060  0.82520  0.90300  Biso   1.000  H
  H54      1.0000 0.68940  0.67480  0.40300  Biso   1.000  H
  H55      1.0000 0.81060  0.17480  0.59700  Biso   1.000  H
  H56      1.0000 0.18940  0.32520  0.09700  Biso   1.000  H
  C73      1.0000 0.76920  0.20980  0.14250  Biso   1.000  C
  C74      1.0000 0.23080  0.29020  0.64250  Biso   1.000  C
  C75      1.0000 0.26920  0.79020  0.35750  Biso   1.000  C
  C76      1.0000 0.73080  0.70980  0.85750  Biso   1.000  C
  C77      1.0000 0.23080  0.79020  0.85750  Biso   1.000  C
  C78      1.0000 0.76920  0.70980  0.35750  Biso   1.000  C
  C79      1.0000 0.73080  0.20980  0.64250  Biso   1.000  C
  C80      1.0000 0.26920  0.29020  0.14250  Biso   1.000  C
  H57      1.0000 0.80210  0.17720  0.12980  Biso   1.000  H
  H58      1.0000 0.19790  0.32280  0.62980  Biso   1.000  H
  H59      1.0000 0.30210  0.82280  0.37020  Biso   1.000  H
  H60      1.0000 0.69790  0.67720  0.87020  Biso   1.000  H
  H61      1.0000 0.19790  0.82280  0.87020  Biso   1.000  H
  H62      1.0000 0.80210  0.67720  0.37020  Biso   1.000  H
  H63      1.0000 0.69790  0.17720  0.62980  Biso   1.000  H
  H64      1.0000 0.30210  0.32280  0.12980  Biso   1.000  H
  P1       1.0000 0.03010  0.35232  0.06376  Biso   1.000  P
  P2       1.0000 0.96990  0.14768  0.56376  Biso   1.000  P
  P3       1.0000 0.53010  0.64768  0.43624  Biso   1.000  P
  P4       1.0000 0.46990  0.85232  0.93624  Biso   1.000  P
  P5       1.0000 0.96990  0.64768  0.93624  Biso   1.000  P
  P6       1.0000 0.03010  0.85232  0.43624  Biso   1.000  P
  P7       1.0000 0.46990  0.35232  0.56376  Biso   1.000  P
  P8       1.0000 0.53010  0.14768  0.06376  Biso   1.000  P
  C81      1.0000 0.04550  0.34930  0.99050  Biso   1.000  C
  C82      1.0000 0.95450  0.15070  0.49050  Biso   1.000  C
  C83      1.0000 0.54550  0.65070  0.50950  Biso   1.000  C
  C84      1.0000 0.45450  0.84930  0.00950  Biso   1.000  C
  C85      1.0000 0.95450  0.65070  0.00950  Biso   1.000  C
  C86      1.0000 0.04550  0.84930  0.50950  Biso   1.000  C
  C87      1.0000 0.45450  0.34930  0.49050  Biso   1.000  C
  C88      1.0000 0.54550  0.15070  0.99050  Biso   1.000  C
  C89      1.0000 0.99580  0.36560  0.95110  Biso   1.000  C
  C90      1.0000 0.00420  0.13440  0.45110  Biso   1.000  C
  C91      1.0000 0.49580  0.63440  0.54890  Biso   1.000  C
  C92      1.0000 0.50420  0.86560  0.04890  Biso   1.000  C
  C93      1.0000 0.00420  0.63440  0.04890  Biso   1.000  C
  C94      1.0000 0.99580  0.86560  0.54890  Biso   1.000  C
  C95      1.0000 0.50420  0.36560  0.45110  Biso   1.000  C
  C96      1.0000 0.49580  0.13440  0.95110  Biso   1.000  C
  H65      1.0000 0.95160  0.38230  0.96190  Biso   1.000  H
  H66      1.0000 0.04840  0.11770  0.46190  Biso   1.000  H
  H67      1.0000 0.45160  0.61770  0.53810  Biso   1.000  H
  H68      1.0000 0.54840  0.88230  0.03810  Biso   1.000  H
  H69      1.0000 0.04840  0.61770  0.03810  Biso   1.000  H
  H70      1.0000 0.95160  0.88230  0.53810  Biso   1.000  H
  H71      1.0000 0.54840  0.38230  0.46190  Biso   1.000  H
  H72      1.0000 0.45160  0.11770  0.96190  Biso   1.000  H
  C97      1.0000 0.01030  0.35760  0.89650  Biso   1.000  C
  C98      1.0000 0.98970  0.14240  0.39650  Biso   1.000  C
  C99      1.0000 0.51030  0.64240  0.60350  Biso   1.000  C
  C100     1.0000 0.48970  0.85760  0.10350  Biso   1.000  C
  C101     1.0000 0.98970  0.64240  0.10350  Biso   1.000  C
  C102     1.0000 0.01030  0.85760  0.60350  Biso   1.000  C
  C103     1.0000 0.48970  0.35760  0.39650  Biso   1.000  C
  C104     1.0000 0.51030  0.14240  0.89650  Biso   1.000  C
  H73      1.0000 0.97570  0.36770  0.87030  Biso   1.000  H
  H74      1.0000 0.02430  0.13230  0.37030  Biso   1.000  H
  H75      1.0000 0.47570  0.63230  0.62970  Biso   1.000  H
  H76      1.0000 0.52430  0.86770  0.12970  Biso   1.000  H
  H77      1.0000 0.02430  0.63230  0.12970  Biso   1.000  H
  H78      1.0000 0.97570  0.86770  0.62970  Biso   1.000  H
  H79      1.0000 0.52430  0.36770  0.37030  Biso   1.000  H
  H80      1.0000 0.47570  0.13230  0.87030  Biso   1.000  H
  C105     1.0000 0.07520  0.33500  0.87990  Biso   1.000  C
  C106     1.0000 0.92480  0.16500  0.37990  Biso   1.000  C
  C107     1.0000 0.57520  0.66500  0.62010  Biso   1.000  C
  C108     1.0000 0.42480  0.83500  0.12010  Biso   1.000  C
  C109     1.0000 0.92480  0.66500  0.12010  Biso   1.000  C
  C110     1.0000 0.07520  0.83500  0.62010  Biso   1.000  C
  C111     1.0000 0.42480  0.33500  0.37990  Biso   1.000  C
  C112     1.0000 0.57520  0.16500  0.87990  Biso   1.000  C
  H81      1.0000 0.08520  0.33080  0.84240  Biso   1.000  H
  H82      1.0000 0.91480  0.16920  0.34240  Biso   1.000  H
  H83      1.0000 0.58520  0.66920  0.65760  Biso   1.000  H
  H84      1.0000 0.41480  0.83080  0.15760  Biso   1.000  H
  H85      1.0000 0.91480  0.66920  0.15760  Biso   1.000  H
  H86      1.0000 0.08520  0.83080  0.65760  Biso   1.000  H
  H87      1.0000 0.41480  0.33080  0.34240  Biso   1.000  H
  H88      1.0000 0.58520  0.16920  0.84240  Biso   1.000  H
  C113     1.0000 0.12540  0.31870  0.91760  Biso   1.000  C
  C114     1.0000 0.87460  0.18130  0.41760  Biso   1.000  C
  C115     1.0000 0.62540  0.68130  0.58240  Biso   1.000  C
  C116     1.0000 0.37460  0.81870  0.08240  Biso   1.000  C
  C117     1.0000 0.87460  0.68130  0.08240  Biso   1.000  C
  C118     1.0000 0.12540  0.81870  0.58240  Biso   1.000  C
  C119     1.0000 0.37460  0.31870  0.41760  Biso   1.000  C
  C120     1.0000 0.62540  0.18130  0.91760  Biso   1.000  C
  H89      1.0000 0.16990  0.30310  0.90630  Biso   1.000  H
  H90      1.0000 0.83010  0.19690  0.40630  Biso   1.000  H
  H91      1.0000 0.66990  0.69690  0.59370  Biso   1.000  H
  H92      1.0000 0.33010  0.80310  0.09370  Biso   1.000  H
  H93      1.0000 0.83010  0.69690  0.09370  Biso   1.000  H
  H94      1.0000 0.16990  0.80310  0.59370  Biso   1.000  H
  H95      1.0000 0.33010  0.30310  0.40630  Biso   1.000  H
  H96      1.0000 0.66990  0.19690  0.90630  Biso   1.000  H
  C121     1.0000 0.11010  0.32540  0.97300  Biso   1.000  C
  C122     1.0000 0.88990  0.17460  0.47300  Biso   1.000  C
  C123     1.0000 0.61010  0.67460  0.52700  Biso   1.000  C
  C124     1.0000 0.38990  0.82540  0.02700  Biso   1.000  C
  C125     1.0000 0.88990  0.67460  0.02700  Biso   1.000  C
  C126     1.0000 0.11010  0.82540  0.52700  Biso   1.000  C
  C127     1.0000 0.38990  0.32540  0.47300  Biso   1.000  C
  C128     1.0000 0.61010  0.17460  0.97300  Biso   1.000  C
  H97      1.0000 0.14440  0.31350  0.99900  Biso   1.000  H
  H98      1.0000 0.85560  0.18650  0.49900  Biso   1.000  H
  H99      1.0000 0.64440  0.68650  0.50100  Biso   1.000  H
  H100     1.0000 0.35560  0.81350  0.00100  Biso   1.000  H
  H101     1.0000 0.85560  0.68650  0.00100  Biso   1.000  H
  H102     1.0000 0.14440  0.81350  0.50100  Biso   1.000  H
  H103     1.0000 0.35560  0.31350  0.49900  Biso   1.000  H
  H104     1.0000 0.64440  0.18650  0.99900  Biso   1.000  H
  C129     1.0000 0.94200  0.38830  0.07020  Biso   1.000  C
  C130     1.0000 0.05800  0.11170  0.57020  Biso   1.000  C
  C131     1.0000 0.44200  0.61170  0.42980  Biso   1.000  C
  C132     1.0000 0.55800  0.88830  0.92980  Biso   1.000  C
  C133     1.0000 0.05800  0.61170  0.92980  Biso   1.000  C
  C134     1.0000 0.94200  0.88830  0.42980  Biso   1.000  C
  C135     1.0000 0.55800  0.38830  0.57020  Biso   1.000  C
  C136     1.0000 0.44200  0.11170  0.07020  Biso   1.000  C
  C137     1.0000 0.88590  0.34540  0.05980  Biso   1.000  C
  C138     1.0000 0.11410  0.15460  0.55980  Biso   1.000  C
  C139     1.0000 0.38590  0.65460  0.44020  Biso   1.000  C
  C140     1.0000 0.61410  0.84540  0.94020  Biso   1.000  C
  C141     1.0000 0.11410  0.65460  0.94020  Biso   1.000  C
  C142     1.0000 0.88590  0.84540  0.44020  Biso   1.000  C
  C143     1.0000 0.61410  0.34540  0.55980  Biso   1.000  C
  C144     1.0000 0.38590  0.15460  0.05980  Biso   1.000  C
  H105     1.0000 0.89390  0.29910  0.04920  Biso   1.000  H
  H106     1.0000 0.10610  0.20090  0.54920  Biso   1.000  H
  H107     1.0000 0.39390  0.70090  0.45080  Biso   1.000  H
  H108     1.0000 0.60610  0.79910  0.95080  Biso   1.000  H
  H109     1.0000 0.10610  0.70090  0.95080  Biso   1.000  H
  H110     1.0000 0.89390  0.79910  0.45080  Biso   1.000  H
  H111     1.0000 0.60610  0.29910  0.54920  Biso   1.000  H
  H112     1.0000 0.39390  0.20090  0.04920  Biso   1.000  H
  C145     1.0000 0.81790  0.36970  0.06470  Biso   1.000  C
  C146     1.0000 0.18210  0.13030  0.56470  Biso   1.000  C
  C147     1.0000 0.31790  0.63030  0.43530  Biso   1.000  C
  C148     1.0000 0.68210  0.86970  0.93530  Biso   1.000  C
  C149     1.0000 0.18210  0.63030  0.93530  Biso   1.000  C
  C150     1.0000 0.81790  0.86970  0.43530  Biso   1.000  C
  C151     1.0000 0.68210  0.36970  0.56470  Biso   1.000  C
  C152     1.0000 0.31790  0.13030  0.06470  Biso   1.000  C
  H113     1.0000 0.78010  0.33950  0.05790  Biso   1.000  H
  H114     1.0000 0.21990  0.16050  0.55790  Biso   1.000  H
  H115     1.0000 0.28010  0.66050  0.44210  Biso   1.000  H
  H116     1.0000 0.71990  0.83950  0.94210  Biso   1.000  H
  H117     1.0000 0.21990  0.66050  0.94210  Biso   1.000  H
  H118     1.0000 0.78010  0.83950  0.44210  Biso   1.000  H
  H119     1.0000 0.71990  0.33950  0.55790  Biso   1.000  H
  H120     1.0000 0.28010  0.16050  0.05790  Biso   1.000  H
  C153     1.0000 0.80480  0.43730  0.07940  Biso   1.000  C
  C154     1.0000 0.19520  0.06270  0.57940  Biso   1.000  C
  C155     1.0000 0.30480  0.56270  0.42060  Biso   1.000  C
  C156     1.0000 0.69520  0.93730  0.92060  Biso   1.000  C
  C157     1.0000 0.19520  0.56270  0.92060  Biso   1.000  C
  C158     1.0000 0.80480  0.93730  0.42060  Biso   1.000  C
  C159     1.0000 0.69520  0.43730  0.57940  Biso   1.000  C
  C160     1.0000 0.30480  0.06270  0.07940  Biso   1.000  C
  H121     1.0000 0.75840  0.45340  0.08250  Biso   1.000  H
  H122     1.0000 0.24160  0.04660  0.58250  Biso   1.000  H
  H123     1.0000 0.25840  0.54660  0.41750  Biso   1.000  H
  H124     1.0000 0.74160  0.95340  0.91750  Biso   1.000  H
  H125     1.0000 0.24160  0.54660  0.91750  Biso   1.000  H
  H126     1.0000 0.75840  0.95340  0.41750  Biso   1.000  H
  H127     1.0000 0.74160  0.45340  0.58250  Biso   1.000  H
  H128     1.0000 0.25840  0.04660  0.08250  Biso   1.000  H
  C161     1.0000 0.85970  0.48050  0.08950  Biso   1.000  C
  C162     1.0000 0.14030  0.01950  0.58950  Biso   1.000  C
  C163     1.0000 0.35970  0.51950  0.41050  Biso   1.000  C
  C164     1.0000 0.64030  0.98050  0.91050  Biso   1.000  C
  C165     1.0000 0.14030  0.51950  0.91050  Biso   1.000  C
  C166     1.0000 0.85970  0.98050  0.41050  Biso   1.000  C
  C167     1.0000 0.64030  0.48050  0.58950  Biso   1.000  C
  C168     1.0000 0.35970  0.01950  0.08950  Biso   1.000  C
  H129     1.0000 0.85130  0.52700  0.09940  Biso   1.000  H
  H130     1.0000 0.14870  0.97300  0.59940  Biso   1.000  H
  H131     1.0000 0.35130  0.47300  0.40060  Biso   1.000  H
  H132     1.0000 0.64870  0.02700  0.90060  Biso   1.000  H
  H133     1.0000 0.14870  0.47300  0.90060  Biso   1.000  H
  H134     1.0000 0.85130  0.02700  0.40060  Biso   1.000  H
  H135     1.0000 0.64870  0.52700  0.59940  Biso   1.000  H
  H136     1.0000 0.35130  0.97300  0.09940  Biso   1.000  H
  C169     1.0000 0.92890  0.45600  0.08510  Biso   1.000  C
  C170     1.0000 0.07110  0.04400  0.58510  Biso   1.000  C
  C171     1.0000 0.42890  0.54400  0.41490  Biso   1.000  C
  C172     1.0000 0.57110  0.95600  0.91490  Biso   1.000  C
  C173     1.0000 0.07110  0.54400  0.91490  Biso   1.000  C
  C174     1.0000 0.92890  0.95600  0.41490  Biso   1.000  C
  C175     1.0000 0.57110  0.45600  0.58510  Biso   1.000  C
  C176     1.0000 0.42890  0.04400  0.08510  Biso   1.000  C
  H137     1.0000 0.96660  0.48610  0.09250  Biso   1.000  H
  H138     1.0000 0.03340  0.01390  0.59250  Biso   1.000  H
  H139     1.0000 0.46660  0.51390  0.40750  Biso   1.000  H
  H140     1.0000 0.53340  0.98610  0.90750  Biso   1.000  H
  H141     1.0000 0.03340  0.51390  0.90750  Biso   1.000  H
  H142     1.0000 0.96660  0.98610  0.40750  Biso   1.000  H
  H143     1.0000 0.53340  0.48610  0.59250  Biso   1.000  H
  H144     1.0000 0.46660  0.01390  0.09250  Biso   1.000  H
  C177     1.0000 0.08410  0.42390  0.08810  Biso   1.000  C
  C178     1.0000 0.91590  0.07610  0.58810  Biso   1.000  C
  C179     1.0000 0.58410  0.57610  0.41190  Biso   1.000  C
  C180     1.0000 0.41590  0.92390  0.91190  Biso   1.000  C
  C181     1.0000 0.91590  0.57610  0.91190  Biso   1.000  C
  C182     1.0000 0.08410  0.92390  0.41190  Biso   1.000  C
  C183     1.0000 0.41590  0.42390  0.58810  Biso   1.000  C
  C184     1.0000 0.58410  0.07610  0.08810  Biso   1.000  C
  C185     1.0000 0.11690  0.47100  0.05410  Biso   1.000  C
  C186     1.0000 0.88310  0.02900  0.55410  Biso   1.000  C
  C187     1.0000 0.61690  0.52900  0.44590  Biso   1.000  C
  C188     1.0000 0.38310  0.97100  0.94590  Biso   1.000  C
  C189     1.0000 0.88310  0.52900  0.94590  Biso   1.000  C
  C190     1.0000 0.11690  0.97100  0.44590  Biso   1.000  C
  C191     1.0000 0.38310  0.47100  0.55410  Biso   1.000  C
  C192     1.0000 0.61690  0.02900  0.05410  Biso   1.000  C
  H145     1.0000 0.11290  0.46610  0.01600  Biso   1.000  H
  H146     1.0000 0.88710  0.03390  0.51600  Biso   1.000  H
  H147     1.0000 0.61290  0.53390  0.48400  Biso   1.000  H
  H148     1.0000 0.38710  0.96610  0.98400  Biso   1.000  H
  H149     1.0000 0.88710  0.53390  0.98400  Biso   1.000  H
  H150     1.0000 0.11290  0.96610  0.48400  Biso   1.000  H
  H151     1.0000 0.38710  0.46610  0.51600  Biso   1.000  H
  H152     1.0000 0.61290  0.03390  0.01600  Biso   1.000  H
  C193     1.0000 0.15550  0.52520  0.07540  Biso   1.000  C
  C194     1.0000 0.84450  0.97480  0.57540  Biso   1.000  C
  C195     1.0000 0.65550  0.47480  0.42460  Biso   1.000  C
  C196     1.0000 0.34450  0.02520  0.92460  Biso   1.000  C
  C197     1.0000 0.84450  0.47480  0.92460  Biso   1.000  C
  C198     1.0000 0.15550  0.02520  0.42460  Biso   1.000  C
  C199     1.0000 0.34450  0.52520  0.57540  Biso   1.000  C
  C200     1.0000 0.65550  0.97480  0.07540  Biso   1.000  C
  H153     1.0000 0.17720  0.55720  0.05170  Biso   1.000  H
  H154     1.0000 0.82280  0.94280  0.55170  Biso   1.000  H
  H155     1.0000 0.67720  0.44280  0.44830  Biso   1.000  H
  H156     1.0000 0.32280  0.05720  0.94830  Biso   1.000  H
  H157     1.0000 0.82280  0.44280  0.94830  Biso   1.000  H
  H158     1.0000 0.17720  0.05720  0.44830  Biso   1.000  H
  H159     1.0000 0.32280  0.55720  0.55170  Biso   1.000  H
  H160     1.0000 0.67720  0.94280  0.05170  Biso   1.000  H
  C201     1.0000 0.16230  0.53280  0.13040  Biso   1.000  C
  C202     1.0000 0.83770  0.96720  0.63040  Biso   1.000  C
  C203     1.0000 0.66230  0.46720  0.36960  Biso   1.000  C
  C204     1.0000 0.33770  0.03280  0.86960  Biso   1.000  C
  C205     1.0000 0.83770  0.46720  0.86960  Biso   1.000  C
  C206     1.0000 0.16230  0.03280  0.36960  Biso   1.000  C
  C207     1.0000 0.33770  0.53280  0.63040  Biso   1.000  C
  C208     1.0000 0.66230  0.96720  0.13040  Biso   1.000  C
  H161     1.0000 0.18860  0.57000  0.14460  Biso   1.000  H
  H162     1.0000 0.81140  0.93000  0.64460  Biso   1.000  H
  H163     1.0000 0.68860  0.43000  0.35540  Biso   1.000  H
  H164     1.0000 0.31140  0.07000  0.85540  Biso   1.000  H
  H165     1.0000 0.81140  0.43000  0.85540  Biso   1.000  H
  H166     1.0000 0.18860  0.07000  0.35540  Biso   1.000  H
  H167     1.0000 0.31140  0.57000  0.64460  Biso   1.000  H
  H168     1.0000 0.68860  0.93000  0.14460  Biso   1.000  H
  C209     1.0000 0.13080  0.48610  0.16540  Biso   1.000  C
  C210     1.0000 0.86920  0.01390  0.66540  Biso   1.000  C
  C211     1.0000 0.63080  0.51390  0.33460  Biso   1.000  C
  C212     1.0000 0.36920  0.98610  0.83460  Biso   1.000  C
  C213     1.0000 0.86920  0.51390  0.83460  Biso   1.000  C
  C214     1.0000 0.13080  0.98610  0.33460  Biso   1.000  C
  C215     1.0000 0.36920  0.48610  0.66540  Biso   1.000  C
  C216     1.0000 0.63080  0.01390  0.16540  Biso   1.000  C
  H169     1.0000 0.13550  0.49140  0.20340  Biso   1.000  H
  H170     1.0000 0.86450  0.00860  0.70340  Biso   1.000  H
  H171     1.0000 0.63550  0.50860  0.29660  Biso   1.000  H
  H172     1.0000 0.36450  0.99140  0.79660  Biso   1.000  H
  H173     1.0000 0.86450  0.50860  0.79660  Biso   1.000  H
  H174     1.0000 0.13550  0.99140  0.29660  Biso   1.000  H
  H175     1.0000 0.36450  0.49140  0.70340  Biso   1.000  H
  H176     1.0000 0.63550  0.00860  0.20340  Biso   1.000  H
  C217     1.0000 0.09250  0.43180  0.14430  Biso   1.000  C
  C218     1.0000 0.90750  0.06820  0.64430  Biso   1.000  C
  C219     1.0000 0.59250  0.56820  0.35570  Biso   1.000  C
  C220     1.0000 0.40750  0.93180  0.85570  Biso   1.000  C
  C221     1.0000 0.90750  0.56820  0.85570  Biso   1.000  C
  C222     1.0000 0.09250  0.93180  0.35570  Biso   1.000  C
  C223     1.0000 0.40750  0.43180  0.64430  Biso   1.000  C
  C224     1.0000 0.59250  0.06820  0.14430  Biso   1.000  C
  H177     1.0000 0.07160  0.39960  0.16820  Biso   1.000  H
  H178     1.0000 0.92840  0.10040  0.66820  Biso   1.000  H
  H179     1.0000 0.57160  0.60040  0.33180  Biso   1.000  H
  H180     1.0000 0.42840  0.89960  0.83180  Biso   1.000  H
  H181     1.0000 0.92840  0.60040  0.83180  Biso   1.000  H
  H182     1.0000 0.07160  0.89960  0.33180  Biso   1.000  H
  H183     1.0000 0.42840  0.39960  0.66820  Biso   1.000  H
  H184     1.0000 0.57160  0.10040  0.16820  Biso   1.000  H
  P9       1.0000 0.02914  0.14872  0.06263  Biso   1.000  P
  P10      1.0000 0.97086  0.35128  0.56263  Biso   1.000  P
  P11      1.0000 0.52914  0.85128  0.43737  Biso   1.000  P
  P12      1.0000 0.47086  0.64872  0.93737  Biso   1.000  P
  P13      1.0000 0.97086  0.85128  0.93737  Biso   1.000  P
  P14      1.0000 0.02914  0.64872  0.43737  Biso   1.000  P
  P15      1.0000 0.47086  0.14872  0.56263  Biso   1.000  P
  P16      1.0000 0.52914  0.35128  0.06263  Biso   1.000  P
  C225     1.0000 0.93750  0.12910  0.04460  Biso   1.000  C
  C226     1.0000 0.06250  0.37090  0.54460  Biso   1.000  C
  C227     1.0000 0.43750  0.87090  0.45540  Biso   1.000  C
  C228     1.0000 0.56250  0.62910  0.95540  Biso   1.000  C
  C229     1.0000 0.06250  0.87090  0.95540  Biso   1.000  C
  C230     1.0000 0.93750  0.62910  0.45540  Biso   1.000  C
  C231     1.0000 0.56250  0.12910  0.54460  Biso   1.000  C
  C232     1.0000 0.43750  0.37090  0.04460  Biso   1.000  C
  C233     1.0000 0.90340  0.17280  0.00810  Biso   1.000  C
  C234     1.0000 0.09660  0.32720  0.50810  Biso   1.000  C
  C235     1.0000 0.40340  0.82720  0.49190  Biso   1.000  C
  C236     1.0000 0.59660  0.67280  0.99190  Biso   1.000  C
  C237     1.0000 0.09660  0.82720  0.99190  Biso   1.000  C
  C238     1.0000 0.90340  0.67280  0.49190  Biso   1.000  C
  C239     1.0000 0.59660  0.17280  0.50810  Biso   1.000  C
  C240     1.0000 0.40340  0.32720  0.00810  Biso   1.000  C
  H185     1.0000 0.92750  0.21050  0.99250  Biso   1.000  H
  H186     1.0000 0.07250  0.28950  0.49250  Biso   1.000  H
  H187     1.0000 0.42750  0.78950  0.50750  Biso   1.000  H
  H188     1.0000 0.57250  0.71050  0.00750  Biso   1.000  H
  H189     1.0000 0.07250  0.78950  0.00750  Biso   1.000  H
  H190     1.0000 0.92750  0.71050  0.50750  Biso   1.000  H
  H191     1.0000 0.57250  0.21050  0.49250  Biso   1.000  H
  H192     1.0000 0.42750  0.28950  0.99250  Biso   1.000  H
  C241     1.0000 0.83400  0.16080  0.99470  Biso   1.000  C
  C242     1.0000 0.16600  0.33920  0.49470  Biso   1.000  C
  C243     1.0000 0.33400  0.83920  0.50530  Biso   1.000  C
  C244     1.0000 0.66600  0.66080  0.00530  Biso   1.000  C
  C245     1.0000 0.16600  0.83920  0.00530  Biso   1.000  C
  C246     1.0000 0.83400  0.66080  0.50530  Biso   1.000  C
  C247     1.0000 0.66600  0.16080  0.49470  Biso   1.000  C
  C248     1.0000 0.33400  0.33920  0.99470  Biso   1.000  C
  H193     1.0000 0.81090  0.19080  0.97030  Biso   1.000  H
  H194     1.0000 0.18910  0.30920  0.47030  Biso   1.000  H
  H195     1.0000 0.31090  0.80920  0.52970  Biso   1.000  H
  H196     1.0000 0.68910  0.69080  0.02970  Biso   1.000  H
  H197     1.0000 0.18910  0.80920  0.02970  Biso   1.000  H
  H198     1.0000 0.81090  0.69080  0.52970  Biso   1.000  H
  H199     1.0000 0.68910  0.19080  0.47030  Biso   1.000  H
  H200     1.0000 0.31090  0.30920  0.97030  Biso   1.000  H
  C249     1.0000 0.79870  0.10560  0.01670  Biso   1.000  C
  C250     1.0000 0.20130  0.39440  0.51670  Biso   1.000  C
  C251     1.0000 0.29870  0.89440  0.48330  Biso   1.000  C
  C252     1.0000 0.70130  0.60560  0.98330  Biso   1.000  C
  C253     1.0000 0.20130  0.89440  0.98330  Biso   1.000  C
  C254     1.0000 0.79870  0.60560  0.48330  Biso   1.000  C
  C255     1.0000 0.70130  0.10560  0.51670  Biso   1.000  C
  C256     1.0000 0.29870  0.39440  0.01670  Biso   1.000  C
  H201     1.0000 0.75160  0.09750  0.00720  Biso   1.000  H
  H202     1.0000 0.24840  0.40250  0.50720  Biso   1.000  H
  H203     1.0000 0.25160  0.90250  0.49280  Biso   1.000  H
  H204     1.0000 0.74840  0.59750  0.99280  Biso   1.000  H
  H205     1.0000 0.24840  0.90250  0.99280  Biso   1.000  H
  H206     1.0000 0.75160  0.59750  0.49280  Biso   1.000  H
  H207     1.0000 0.74840  0.09750  0.50720  Biso   1.000  H
  H208     1.0000 0.25160  0.40250  0.00720  Biso   1.000  H
  C257     1.0000 0.83220  0.06190  0.05260  Biso   1.000  C
  C258     1.0000 0.16780  0.43810  0.55260  Biso   1.000  C
  C259     1.0000 0.33220  0.93810  0.44740  Biso   1.000  C
  C260     1.0000 0.66780  0.56190  0.94740  Biso   1.000  C
  C261     1.0000 0.16780  0.93810  0.94740  Biso   1.000  C
  C262     1.0000 0.83220  0.56190  0.44740  Biso   1.000  C
  C263     1.0000 0.66780  0.06190  0.55260  Biso   1.000  C
  C264     1.0000 0.33220  0.43810  0.05260  Biso   1.000  C
  H209     1.0000 0.80780  0.02400  0.06780  Biso   1.000  H
  H210     1.0000 0.19220  0.47600  0.56780  Biso   1.000  H
  H211     1.0000 0.30780  0.97600  0.43220  Biso   1.000  H
  H212     1.0000 0.69220  0.52400  0.93220  Biso   1.000  H
  H213     1.0000 0.19220  0.97600  0.93220  Biso   1.000  H
  H214     1.0000 0.80780  0.52400  0.43220  Biso   1.000  H
  H215     1.0000 0.69220  0.02400  0.56780  Biso   1.000  H
  H216     1.0000 0.30780  0.47600  0.06780  Biso   1.000  H
  C265     1.0000 0.90110  0.07320  0.06640  Biso   1.000  C
  C266     1.0000 0.09890  0.42680  0.56640  Biso   1.000  C
  C267     1.0000 0.40110  0.92680  0.43360  Biso   1.000  C
  C268     1.0000 0.59890  0.57320  0.93360  Biso   1.000  C
  C269     1.0000 0.09890  0.92680  0.93360  Biso   1.000  C
  C270     1.0000 0.90110  0.57320  0.43360  Biso   1.000  C
  C271     1.0000 0.59890  0.07320  0.56640  Biso   1.000  C
  C272     1.0000 0.40110  0.42680  0.06640  Biso   1.000  C
  H217     1.0000 0.92380  0.04280  0.09080  Biso   1.000  H
  H218     1.0000 0.07620  0.45720  0.59080  Biso   1.000  H
  H219     1.0000 0.42380  0.95720  0.40920  Biso   1.000  H
  H220     1.0000 0.57620  0.54280  0.90920  Biso   1.000  H
  H221     1.0000 0.07620  0.95720  0.90920  Biso   1.000  H
  H222     1.0000 0.92380  0.54280  0.40920  Biso   1.000  H
  H223     1.0000 0.57620  0.04280  0.59080  Biso   1.000  H
  H224     1.0000 0.42380  0.45720  0.09080  Biso   1.000  H
  C273     1.0000 0.05540  0.07410  0.10340  Biso   1.000  C
  C274     1.0000 0.94460  0.42590  0.60340  Biso   1.000  C
  C275     1.0000 0.55540  0.92590  0.39660  Biso   1.000  C
  C276     1.0000 0.44460  0.57410  0.89660  Biso   1.000  C
  C277     1.0000 0.94460  0.92590  0.89660  Biso   1.000  C
  C278     1.0000 0.05540  0.57410  0.39660  Biso   1.000  C
  C279     1.0000 0.44460  0.07410  0.60340  Biso   1.000  C
  C280     1.0000 0.55540  0.42590  0.10340  Biso   1.000  C
  C281     1.0000 0.09420  0.01850  0.08370  Biso   1.000  C
  C282     1.0000 0.90580  0.48150  0.58370  Biso   1.000  C
  C283     1.0000 0.59420  0.98150  0.41630  Biso   1.000  C
  C284     1.0000 0.40580  0.51850  0.91630  Biso   1.000  C
  C285     1.0000 0.90580  0.98150  0.91630  Biso   1.000  C
  C286     1.0000 0.09420  0.51850  0.41630  Biso   1.000  C
  C287     1.0000 0.40580  0.01850  0.58370  Biso   1.000  C
  C288     1.0000 0.59420  0.48150  0.08370  Biso   1.000  C
  H225     1.0000 0.10840  0.01810  0.04680  Biso   1.000  H
  H226     1.0000 0.89160  0.48190  0.54680  Biso   1.000  H
  H227     1.0000 0.60840  0.98190  0.45320  Biso   1.000  H
  H228     1.0000 0.39160  0.51810  0.95320  Biso   1.000  H
  H229     1.0000 0.89160  0.98190  0.95320  Biso   1.000  H
  H230     1.0000 0.10840  0.51810  0.45320  Biso   1.000  H
  H231     1.0000 0.39160  0.01810  0.54680  Biso   1.000  H
  H232     1.0000 0.60840  0.48190  0.04680  Biso   1.000  H
  C289     1.0000 0.11220  0.96430  0.11700  Biso   1.000  C
  C290     1.0000 0.88780  0.53570  0.61700  Biso   1.000  C
  C291     1.0000 0.61220  0.03570  0.38300  Biso   1.000  C
  C292     1.0000 0.38780  0.46430  0.88300  Biso   1.000  C
  C293     1.0000 0.88780  0.03570  0.88300  Biso   1.000  C
  C294     1.0000 0.11220  0.46430  0.38300  Biso   1.000  C
  C295     1.0000 0.38780  0.96430  0.61700  Biso   1.000  C
  C296     1.0000 0.61220  0.53570  0.11700  Biso   1.000  C
  H233     1.0000 0.13960  0.92770  0.10300  Biso   1.000  H
  H234     1.0000 0.86040  0.57230  0.60300  Biso   1.000  H
  H235     1.0000 0.63960  0.07230  0.39700  Biso   1.000  H
  H236     1.0000 0.36040  0.42770  0.89700  Biso   1.000  H
  H237     1.0000 0.86040  0.07230  0.89700  Biso   1.000  H
  H238     1.0000 0.13960  0.42770  0.39700  Biso   1.000  H
  H239     1.0000 0.36040  0.92770  0.60300  Biso   1.000  H
  H240     1.0000 0.63960  0.57230  0.10300  Biso   1.000  H
  C297     1.0000 0.09090  0.96270  0.17060  Biso   1.000  C
  C298     1.0000 0.90910  0.53730  0.67060  Biso   1.000  C
  C299     1.0000 0.59090  0.03730  0.32940  Biso   1.000  C
  C300     1.0000 0.40910  0.46270  0.82940  Biso   1.000  C
  C301     1.0000 0.90910  0.03730  0.82940  Biso   1.000  C
  C302     1.0000 0.09090  0.46270  0.32940  Biso   1.000  C
  C303     1.0000 0.40910  0.96270  0.67060  Biso   1.000  C
  C304     1.0000 0.59090  0.53730  0.17060  Biso   1.000  C
  H241     1.0000 0.10270  0.92470  0.19300  Biso   1.000  H
  H242     1.0000 0.89730  0.57530  0.69300  Biso   1.000  H
  H243     1.0000 0.60270  0.07530  0.30700  Biso   1.000  H
  H244     1.0000 0.39730  0.42470  0.80700  Biso   1.000  H
  H245     1.0000 0.89730  0.07530  0.80700  Biso   1.000  H
  H246     1.0000 0.10270  0.42470  0.30700  Biso   1.000  H
  H247     1.0000 0.39730  0.92470  0.69300  Biso   1.000  H
  H248     1.0000 0.60270  0.57530  0.19300  Biso   1.000  H
  C305     1.0000 0.05210  0.01710  0.19140  Biso   1.000  C
  C306     1.0000 0.94790  0.48290  0.69140  Biso   1.000  C
  C307     1.0000 0.55210  0.98290  0.30860  Biso   1.000  C
  C308     1.0000 0.44790  0.51710  0.80860  Biso   1.000  C
  C309     1.0000 0.94790  0.98290  0.80860  Biso   1.000  C
  C310     1.0000 0.05210  0.51710  0.30860  Biso   1.000  C
  C311     1.0000 0.44790  0.01710  0.69140  Biso   1.000  C
  C312     1.0000 0.55210  0.48290  0.19140  Biso   1.000  C
  H249     1.0000 0.03710  0.01630  0.22800  Biso   1.000  H
  H250     1.0000 0.96290  0.48370  0.72800  Biso   1.000  H
  H251     1.0000 0.53710  0.98370  0.27200  Biso   1.000  H
  H252     1.0000 0.46290  0.51630  0.77200  Biso   1.000  H
  H253     1.0000 0.96290  0.98370  0.77200  Biso   1.000  H
  H254     1.0000 0.03710  0.51630  0.27200  Biso   1.000  H
  H255     1.0000 0.46290  0.01630  0.72800  Biso   1.000  H
  H256     1.0000 0.53710  0.48370  0.22800  Biso   1.000  H
  C313     1.0000 0.03540  0.07300  0.15840  Biso   1.000  C
  C314     1.0000 0.96460  0.42700  0.65840  Biso   1.000  C
  C315     1.0000 0.53540  0.92700  0.34160  Biso   1.000  C
  C316     1.0000 0.46460  0.57300  0.84160  Biso   1.000  C
  C317     1.0000 0.96460  0.92700  0.84160  Biso   1.000  C
  C318     1.0000 0.03540  0.57300  0.34160  Biso   1.000  C
  C319     1.0000 0.46460  0.07300  0.65840  Biso   1.000  C
  C320     1.0000 0.53540  0.42700  0.15840  Biso   1.000  C
  H257     1.0000 0.01020  0.11060  0.17300  Biso   1.000  H
  H258     1.0000 0.98980  0.38940  0.67300  Biso   1.000  H
  H259     1.0000 0.51020  0.88940  0.32700  Biso   1.000  H
  H260     1.0000 0.48980  0.61060  0.82700  Biso   1.000  H
  H261     1.0000 0.98980  0.88940  0.82700  Biso   1.000  H
  H262     1.0000 0.01020  0.61060  0.32700  Biso   1.000  H
  H263     1.0000 0.48980  0.11060  0.67300  Biso   1.000  H
  H264     1.0000 0.51020  0.38940  0.17300  Biso   1.000  H
  C321     1.0000 0.07610  0.13770  0.99840  Biso   1.000  C
  C322     1.0000 0.92390  0.36230  0.49840  Biso   1.000  C
  C323     1.0000 0.57610  0.86230  0.50160  Biso   1.000  C
  C324     1.0000 0.42390  0.63770  0.00160  Biso   1.000  C
  C325     1.0000 0.92390  0.86230  0.00160  Biso   1.000  C
  C326     1.0000 0.07610  0.63770  0.50160  Biso   1.000  C
  C327     1.0000 0.42390  0.13770  0.49840  Biso   1.000  C
  C328     1.0000 0.57610  0.36230  0.99840  Biso   1.000  C
  C329     1.0000 0.14590  0.15670  0.99750  Biso   1.000  C
  C330     1.0000 0.85410  0.34330  0.49750  Biso   1.000  C
  C331     1.0000 0.64590  0.84330  0.50250  Biso   1.000  C
  C332     1.0000 0.35410  0.65670  0.00250  Biso   1.000  C
  C333     1.0000 0.85410  0.84330  0.00250  Biso   1.000  C
  C334     1.0000 0.14590  0.65670  0.50250  Biso   1.000  C
  C335     1.0000 0.35410  0.15670  0.49750  Biso   1.000  C
  C336     1.0000 0.64590  0.34330  0.99750  Biso   1.000  C
  H265     1.0000 0.16720  0.17370  0.02950  Biso   1.000  H
  H266     1.0000 0.83280  0.32630  0.52950  Biso   1.000  H
  H267     1.0000 0.66720  0.82630  0.47050  Biso   1.000  H
  H268     1.0000 0.33280  0.67370  0.97050  Biso   1.000  H
  H269     1.0000 0.83280  0.82630  0.97050  Biso   1.000  H
  H270     1.0000 0.16720  0.67370  0.47050  Biso   1.000  H
  H271     1.0000 0.33280  0.17370  0.52950  Biso   1.000  H
  H272     1.0000 0.66720  0.32630  0.02950  Biso   1.000  H
  C337     1.0000 0.18490  0.15100  0.95000  Biso   1.000  C
  C338     1.0000 0.81510  0.34900  0.45000  Biso   1.000  C
  C339     1.0000 0.68490  0.84900  0.55000  Biso   1.000  C
  C340     1.0000 0.31510  0.65100  0.05000  Biso   1.000  C
  C341     1.0000 0.81510  0.84900  0.05000  Biso   1.000  C
  C342     1.0000 0.18490  0.65100  0.55000  Biso   1.000  C
  C343     1.0000 0.31510  0.15100  0.45000  Biso   1.000  C
  C344     1.0000 0.68490  0.34900  0.95000  Biso   1.000  C
  H273     1.0000 0.23260  0.16340  0.95000  Biso   1.000  H
  H274     1.0000 0.76740  0.33660  0.45000  Biso   1.000  H
  H275     1.0000 0.73260  0.83660  0.55000  Biso   1.000  H
  H276     1.0000 0.26740  0.66340  0.05000  Biso   1.000  H
  H277     1.0000 0.76740  0.83660  0.05000  Biso   1.000  H
  H278     1.0000 0.23260  0.66340  0.55000  Biso   1.000  H
  H279     1.0000 0.26740  0.16340  0.45000  Biso   1.000  H
  H280     1.0000 0.73260  0.33660  0.95000  Biso   1.000  H
  C345     1.0000 0.15410  0.12740  0.90270  Biso   1.000  C
  C346     1.0000 0.84590  0.37260  0.40270  Biso   1.000  C
  C347     1.0000 0.65410  0.87260  0.59730  Biso   1.000  C
  C348     1.0000 0.34590  0.62740  0.09730  Biso   1.000  C
  C349     1.0000 0.84590  0.87260  0.09730  Biso   1.000  C
  C350     1.0000 0.15410  0.62740  0.59730  Biso   1.000  C
  C351     1.0000 0.34590  0.12740  0.40270  Biso   1.000  C
  C352     1.0000 0.65410  0.37260  0.90270  Biso   1.000  C
  H281     1.0000 0.18020  0.12430  0.87020  Biso   1.000  H
  H282     1.0000 0.81980  0.37570  0.37020  Biso   1.000  H
  H283     1.0000 0.68020  0.87570  0.62980  Biso   1.000  H
  H284     1.0000 0.31980  0.62430  0.12980  Biso   1.000  H
  H285     1.0000 0.81980  0.87570  0.12980  Biso   1.000  H
  H286     1.0000 0.18020  0.62430  0.62980  Biso   1.000  H
  H287     1.0000 0.31980  0.12430  0.37020  Biso   1.000  H
  H288     1.0000 0.68020  0.37570  0.87020  Biso   1.000  H
  C353     1.0000 0.08510  0.10840  0.90360  Biso   1.000  C
  C354     1.0000 0.91490  0.39160  0.40360  Biso   1.000  C
  C355     1.0000 0.58510  0.89160  0.59640  Biso   1.000  C
  C356     1.0000 0.41490  0.60840  0.09640  Biso   1.000  C
  C357     1.0000 0.91490  0.89160  0.09640  Biso   1.000  C
  C358     1.0000 0.08510  0.60840  0.59640  Biso   1.000  C
  C359     1.0000 0.41490  0.10840  0.40360  Biso   1.000  C
  C360     1.0000 0.58510  0.39160  0.90360  Biso   1.000  C
  H289     1.0000 0.06410  0.09140  0.87140  Biso   1.000  H
  H290     1.0000 0.93590  0.40860  0.37140  Biso   1.000  H
  H291     1.0000 0.56410  0.90860  0.62860  Biso   1.000  H
  H292     1.0000 0.43590  0.59140  0.12860  Biso   1.000  H
  H293     1.0000 0.93590  0.90860  0.12860  Biso   1.000  H
  H294     1.0000 0.06410  0.59140  0.62860  Biso   1.000  H
  H295     1.0000 0.43590  0.09140  0.37140  Biso   1.000  H
  H296     1.0000 0.56410  0.40860  0.87140  Biso   1.000  H
  C361     1.0000 0.04540  0.11370  0.95070  Biso   1.000  C
  C362     1.0000 0.95460  0.38630  0.45070  Biso   1.000  C
  C363     1.0000 0.54540  0.88630  0.54930  Biso   1.000  C
  C364     1.0000 0.45460  0.61370  0.04930  Biso   1.000  C
  C365     1.0000 0.95460  0.88630  0.04930  Biso   1.000  C
  C366     1.0000 0.04540  0.61370  0.54930  Biso   1.000  C
  C367     1.0000 0.45460  0.11370  0.45070  Biso   1.000  C
  C368     1.0000 0.54540  0.38630  0.95070  Biso   1.000  C
  H297     1.0000 0.99780  0.10100  0.95030  Biso   1.000  H
  H298     1.0000 0.00220  0.39900  0.45030  Biso   1.000  H
  H299     1.0000 0.49780  0.89900  0.54970  Biso   1.000  H
  H300     1.0000 0.50220  0.60100  0.04970  Biso   1.000  H
  H301     1.0000 0.00220  0.89900  0.04970  Biso   1.000  H
  H302     1.0000 0.99780  0.60100  0.54970  Biso   1.000  H
  H303     1.0000 0.50220  0.10100  0.45030  Biso   1.000  H
  H304     1.0000 0.49780  0.39900  0.95030  Biso   1.000  H
  P17      1.0000 0.16203  0.25392  0.33887  Biso   1.000  P
  P18      1.0000 0.83797  0.24608  0.83887  Biso   1.000  P
  P19      1.0000 0.66203  0.74608  0.16113  Biso   1.000  P
  P20      1.0000 0.33797  0.75392  0.66113  Biso   1.000  P
  P21      1.0000 0.83797  0.74608  0.66113  Biso   1.000  P
  P22      1.0000 0.16203  0.75392  0.16113  Biso   1.000  P
  P23      1.0000 0.33797  0.25392  0.83887  Biso   1.000  P
  P24      1.0000 0.66203  0.24608  0.33887  Biso   1.000  P
  F1       1.0000 0.15980  0.21240  0.39522  Biso   1.000  F
  F2       1.0000 0.84020  0.28760  0.89522  Biso   1.000  F
  F3       1.0000 0.65980  0.78760  0.10478  Biso   1.000  F
  F4       1.0000 0.34020  0.71240  0.60478  Biso   1.000  F
  F5       1.0000 0.84020  0.78760  0.60478  Biso   1.000  F
  F6       1.0000 0.15980  0.71240  0.10478  Biso   1.000  F
  F7       1.0000 0.34020  0.21240  0.89522  Biso   1.000  F
  F8       1.0000 0.65980  0.28760  0.39522  Biso   1.000  F
  F9       1.0000 0.16350  0.29800  0.28341  Biso   1.000  F
  F10      1.0000 0.83650  0.20200  0.78341  Biso   1.000  F
  F11      1.0000 0.66350  0.70200  0.21659  Biso   1.000  F
  F12      1.0000 0.33650  0.79800  0.71659  Biso   1.000  F
  F13      1.0000 0.83650  0.70200  0.71659  Biso   1.000  F
  F14      1.0000 0.16350  0.79800  0.21659  Biso   1.000  F
  F15      1.0000 0.33650  0.29800  0.78341  Biso   1.000  F
  F16      1.0000 0.66350  0.20200  0.28341  Biso   1.000  F
  F17      1.0000 0.12250  0.19370  0.30751  Biso   1.000  F
  F18      1.0000 0.87750  0.30630  0.80751  Biso   1.000  F
  F19      1.0000 0.62250  0.80630  0.19249  Biso   1.000  F
  F20      1.0000 0.37750  0.69370  0.69249  Biso   1.000  F
  F21      1.0000 0.87750  0.80630  0.69249  Biso   1.000  F
  F22      1.0000 0.12250  0.69370  0.19249  Biso   1.000  F
  F23      1.0000 0.37750  0.19370  0.80751  Biso   1.000  F
  F24      1.0000 0.62250  0.30630  0.30751  Biso   1.000  F
  F25      1.0000 0.09070  0.29040  0.35450  Biso   1.000  F
  F26      1.0000 0.90930  0.20960  0.85450  Biso   1.000  F
  F27      1.0000 0.59070  0.70960  0.14550  Biso   1.000  F
  F28      1.0000 0.40930  0.79040  0.64550  Biso   1.000  F
  F29      1.0000 0.90930  0.70960  0.64550  Biso   1.000  F
  F30      1.0000 0.09070  0.79040  0.14550  Biso   1.000  F
  F31      1.0000 0.40930  0.29040  0.85450  Biso   1.000  F
  F32      1.0000 0.59070  0.20960  0.35450  Biso   1.000  F
  F33      1.0000 0.20420  0.31550  0.36750  Biso   1.000  F
  F34      1.0000 0.79580  0.18450  0.86750  Biso   1.000  F
  F35      1.0000 0.70420  0.68450  0.13250  Biso   1.000  F
  F36      1.0000 0.29580  0.81550  0.63250  Biso   1.000  F
  F37      1.0000 0.79580  0.68450  0.63250  Biso   1.000  F
  F38      1.0000 0.20420  0.81550  0.13250  Biso   1.000  F
  F39      1.0000 0.29580  0.31550  0.86750  Biso   1.000  F
  F40      1.0000 0.70420  0.18450  0.36750  Biso   1.000  F
  F41      1.0000 0.23420  0.21810  0.32453  Biso   1.000  F
  F42      1.0000 0.76580  0.28190  0.82453  Biso   1.000  F
  F43      1.0000 0.73420  0.78190  0.17547  Biso   1.000  F
  F44      1.0000 0.26580  0.71810  0.67547  Biso   1.000  F
  F45      1.0000 0.76580  0.78190  0.67547  Biso   1.000  F
  F46      1.0000 0.23420  0.71810  0.17547  Biso   1.000  F
  F47      1.0000 0.26580  0.21810  0.82453  Biso   1.000  F
  F48      1.0000 0.73420  0.28190  0.32453  Biso   1.000  F
  O1       1.0000 0.30760  0.04010  0.26250  Biso   1.000  O
  O2       1.0000 0.69240  0.45990  0.76250  Biso   1.000  O
  O3       1.0000 0.80760  0.95990  0.23750  Biso   1.000  O
  O4       1.0000 0.19240  0.54010  0.73750  Biso   1.000  O
  O5       1.0000 0.69240  0.95990  0.73750  Biso   1.000  O
  O6       1.0000 0.30760  0.54010  0.23750  Biso   1.000  O
  O7       1.0000 0.19240  0.04010  0.76250  Biso   1.000  O
  O8       1.0000 0.80760  0.45990  0.26250  Biso   1.000  O
  C369     1.0000 0.27080  0.99920  0.22500  Biso   1.000  C
  C370     1.0000 0.72920  0.50080  0.72500  Biso   1.000  C
  C371     1.0000 0.77080  0.00080  0.27500  Biso   1.000  C
  C372     1.0000 0.22920  0.49920  0.77500  Biso   1.000  C
  C373     1.0000 0.72920  0.00080  0.77500  Biso   1.000  C
  C374     1.0000 0.27080  0.49920  0.27500  Biso   1.000  C
  C375     1.0000 0.22920  0.99920  0.72500  Biso   1.000  C
  C376     1.0000 0.77080  0.50080  0.22500  Biso   1.000  C
  H305     1.0000 0.28210  0.01320  0.18750  Biso   1.000  H
  H306     1.0000 0.71790  0.48680  0.68750  Biso   1.000  H
  H307     1.0000 0.78210  0.98680  0.31250  Biso   1.000  H
  H308     1.0000 0.21790  0.51320  0.81250  Biso   1.000  H
  H309     1.0000 0.71790  0.98680  0.81250  Biso   1.000  H
  H310     1.0000 0.28210  0.51320  0.31250  Biso   1.000  H
  H311     1.0000 0.21790  0.01320  0.68750  Biso   1.000  H
  H312     1.0000 0.78210  0.48680  0.18750  Biso   1.000  H
  H313     1.0000 0.22010  0.00410  0.23060  Biso   1.000  H
  H314     1.0000 0.77990  0.49590  0.73060  Biso   1.000  H
  H315     1.0000 0.72010  0.99590  0.26940  Biso   1.000  H
  H316     1.0000 0.27990  0.50410  0.76940  Biso   1.000  H
  H317     1.0000 0.77990  0.99590  0.76940  Biso   1.000  H
  H318     1.0000 0.22010  0.50410  0.26940  Biso   1.000  H
  H319     1.0000 0.27990  0.00410  0.73060  Biso   1.000  H
  H320     1.0000 0.72010  0.49590  0.23060  Biso   1.000  H
  C377     1.0000 0.29250  0.92810  0.23470  Biso   1.000  C
  C378     1.0000 0.70750  0.57190  0.73470  Biso   1.000  C
  C379     1.0000 0.79250  0.07190  0.26530  Biso   1.000  C
  C380     1.0000 0.20750  0.42810  0.76530  Biso   1.000  C
  C381     1.0000 0.70750  0.07190  0.76530  Biso   1.000  C
  C382     1.0000 0.29250  0.42810  0.26530  Biso   1.000  C
  C383     1.0000 0.20750  0.92810  0.73470  Biso   1.000  C
  C384     1.0000 0.79250  0.57190  0.23470  Biso   1.000  C
  H321     1.0000 0.25910  0.90430  0.25890  Biso   1.000  H
  H322     1.0000 0.74090  0.59570  0.75890  Biso   1.000  H
  H323     1.0000 0.75910  0.09570  0.24110  Biso   1.000  H
  H324     1.0000 0.24090  0.40430  0.74110  Biso   1.000  H
  H325     1.0000 0.74090  0.09570  0.74110  Biso   1.000  H
  H326     1.0000 0.25910  0.40430  0.24110  Biso   1.000  H
  H327     1.0000 0.24090  0.90430  0.75890  Biso   1.000  H
  H328     1.0000 0.75910  0.59570  0.25890  Biso   1.000  H
  H329     1.0000 0.29570  0.90240  0.20020  Biso   1.000  H
  H330     1.0000 0.70430  0.59760  0.70020  Biso   1.000  H
  H331     1.0000 0.79570  0.09760  0.29980  Biso   1.000  H
  H332     1.0000 0.20430  0.40240  0.79980  Biso   1.000  H
  H333     1.0000 0.70430  0.09760  0.79980  Biso   1.000  H
  H334     1.0000 0.29570  0.40240  0.29980  Biso   1.000  H
  H335     1.0000 0.20430  0.90240  0.70020  Biso   1.000  H
  H336     1.0000 0.79570  0.59760  0.20020  Biso   1.000  H
  C385     1.0000 0.36060  0.93330  0.26040  Biso   1.000  C
  C386     1.0000 0.63940  0.56670  0.76040  Biso   1.000  C
  C387     1.0000 0.86060  0.06670  0.23960  Biso   1.000  C
  C388     1.0000 0.13940  0.43330  0.73960  Biso   1.000  C
  C389     1.0000 0.63940  0.06670  0.73960  Biso   1.000  C
  C390     1.0000 0.36060  0.43330  0.23960  Biso   1.000  C
  C391     1.0000 0.13940  0.93330  0.76040  Biso   1.000  C
  C392     1.0000 0.86060  0.56670  0.26040  Biso   1.000  C
  H337     1.0000 0.39680  0.91060  0.23820  Biso   1.000  H
  H338     1.0000 0.60320  0.58940  0.73820  Biso   1.000  H
  H339     1.0000 0.89680  0.08940  0.26180  Biso   1.000  H
  H340     1.0000 0.10320  0.41060  0.76180  Biso   1.000  H
  H341     1.0000 0.60320  0.08940  0.76180  Biso   1.000  H
  H342     1.0000 0.39680  0.41060  0.26180  Biso   1.000  H
  H343     1.0000 0.10320  0.91060  0.73820  Biso   1.000  H
  H344     1.0000 0.89680  0.58940  0.23820  Biso   1.000  H
  H345     1.0000 0.36020  0.91220  0.29700  Biso   1.000  H
  H346     1.0000 0.63980  0.58780  0.79700  Biso   1.000  H
  H347     1.0000 0.86020  0.08780  0.20300  Biso   1.000  H
  H348     1.0000 0.13980  0.41220  0.70300  Biso   1.000  H
  H349     1.0000 0.63980  0.08780  0.70300  Biso   1.000  H
  H350     1.0000 0.36020  0.41220  0.20300  Biso   1.000  H
  H351     1.0000 0.13980  0.91220  0.79700  Biso   1.000  H
  H352     1.0000 0.86020  0.58780  0.29700  Biso   1.000  H
  C393     1.0000 0.37220  0.00770  0.26360  Biso   1.000  C
  C394     1.0000 0.62780  0.49230  0.76360  Biso   1.000  C
  C395     1.0000 0.87220  0.99230  0.23640  Biso   1.000  C
  C396     1.0000 0.12780  0.50770  0.73640  Biso   1.000  C
  C397     1.0000 0.62780  0.99230  0.73640  Biso   1.000  C
  C398     1.0000 0.37220  0.50770  0.23640  Biso   1.000  C
  C399     1.0000 0.12780  0.00770  0.76360  Biso   1.000  C
  C400     1.0000 0.87220  0.49230  0.26360  Biso   1.000  C
  H353     1.0000 0.39710  0.01940  0.29750  Biso   1.000  H
  H354     1.0000 0.60290  0.48060  0.79750  Biso   1.000  H
  H355     1.0000 0.89710  0.98060  0.20250  Biso   1.000  H
  H356     1.0000 0.10290  0.51940  0.70250  Biso   1.000  H
  H357     1.0000 0.60290  0.98060  0.70250  Biso   1.000  H
  H358     1.0000 0.39710  0.51940  0.20250  Biso   1.000  H
  H359     1.0000 0.10290  0.01940  0.79750  Biso   1.000  H
  H360     1.0000 0.89710  0.48060  0.29750  Biso   1.000  H
  H361     1.0000 0.40090  0.02320  0.23250  Biso   1.000  H
  H362     1.0000 0.59910  0.47680  0.73250  Biso   1.000  H
  H363     1.0000 0.90090  0.97680  0.26750  Biso   1.000  H
  H364     1.0000 0.09910  0.52320  0.76750  Biso   1.000  H
  H365     1.0000 0.59910  0.97680  0.76750  Biso   1.000  H
  H366     1.0000 0.40090  0.52320  0.26750  Biso   1.000  H
  H367     1.0000 0.09910  0.02320  0.73250  Biso   1.000  H
  H368     1.0000 0.90090  0.47680  0.23250  Biso   1.000  H
