data_image0
_cell_length_a       19.044
_cell_length_b       23.6112
_cell_length_c       26.174
_cell_angle_alpha    90
_cell_angle_beta     94.589
_cell_angle_gamma    90

_symmetry_space_group_name_H-M    "P 1"
_symmetry_int_tables_number       1

loop_
  _symmetry_equiv_pos_as_xyz
  'x, y, z'

loop_
  _atom_site_label
  _atom_site_occupancy
  _atom_site_fract_x
  _atom_site_fract_y
  _atom_site_fract_z
  _atom_site_thermal_displace_type
  _atom_site_B_iso_or_equiv
  _atom_site_type_symbol
  Cu1      1.0000 0.21934  0.51361  0.04909  Biso   1.000  Cu
  Cu2      1.0000 0.28066  0.01361  0.95091  Biso   1.000  Cu
  Cu3      1.0000 0.78066  0.48639  0.95091  Biso   1.000  Cu
  Cu4      1.0000 0.71934  0.98639  0.04909  Biso   1.000  Cu
  Cu5      1.0000 0.07066  0.13481  0.27369  Biso   1.000  Cu
  Cu6      1.0000 0.42934  0.63481  0.72631  Biso   1.000  Cu
  Cu7      1.0000 0.92934  0.86519  0.72631  Biso   1.000  Cu
  Cu8      1.0000 0.57066  0.36519  0.27369  Biso   1.000  Cu
  Cu9      1.0000 0.49067  0.80686  0.33452  Biso   1.000  Cu
  Cu10     1.0000 0.00933  0.30686  0.66548  Biso   1.000  Cu
  Cu11     1.0000 0.50933  0.19314  0.66548  Biso   1.000  Cu
  Cu12     1.0000 0.99067  0.69314  0.33452  Biso   1.000  Cu
  C1       1.0000 0.14120  0.44000  0.11510  Biso   1.000  C
  C2       1.0000 0.35880  0.94000  0.88490  Biso   1.000  C
  C3       1.0000 0.85880  0.56000  0.88490  Biso   1.000  C
  C4       1.0000 0.64120  0.06000  0.11510  Biso   1.000  C
  H1       1.0000 0.11150  0.47180  0.11410  Biso   1.000  H
  H2       1.0000 0.38850  0.97180  0.88590  Biso   1.000  H
  H3       1.0000 0.88850  0.52820  0.88590  Biso   1.000  H
  H4       1.0000 0.61150  0.02820  0.11410  Biso   1.000  H
  C5       1.0000 0.12510  0.39590  0.14590  Biso   1.000  C
  C6       1.0000 0.37490  0.89590  0.85410  Biso   1.000  C
  C7       1.0000 0.87490  0.60410  0.85410  Biso   1.000  C
  C8       1.0000 0.62510  0.10410  0.14590  Biso   1.000  C
  H5       1.0000 0.08590  0.39830  0.16550  Biso   1.000  H
  H6       1.0000 0.41410  0.89830  0.83450  Biso   1.000  H
  H7       1.0000 0.91410  0.60170  0.83450  Biso   1.000  H
  H8       1.0000 0.58590  0.10170  0.16550  Biso   1.000  H
  C9       1.0000 0.16720  0.34680  0.14820  Biso   1.000  C
  C10      1.0000 0.33280  0.84680  0.85180  Biso   1.000  C
  C11      1.0000 0.83280  0.65320  0.85180  Biso   1.000  C
  C12      1.0000 0.66720  0.15320  0.14820  Biso   1.000  C
  C13      1.0000 0.22470  0.34840  0.11880  Biso   1.000  C
  C14      1.0000 0.27530  0.84840  0.88120  Biso   1.000  C
  C15      1.0000 0.77530  0.65160  0.88120  Biso   1.000  C
  C16      1.0000 0.72470  0.15160  0.11880  Biso   1.000  C
  H9       1.0000 0.25520  0.31710  0.11860  Biso   1.000  H
  H10      1.0000 0.24480  0.81710  0.88140  Biso   1.000  H
  H11      1.0000 0.74480  0.68290  0.88140  Biso   1.000  H
  H12      1.0000 0.75520  0.18290  0.11860  Biso   1.000  H
  C17      1.0000 0.23740  0.39540  0.08970  Biso   1.000  C
  C18      1.0000 0.26260  0.89540  0.91030  Biso   1.000  C
  C19      1.0000 0.76260  0.60460  0.91030  Biso   1.000  C
  C20      1.0000 0.73740  0.10460  0.08970  Biso   1.000  C
  H13      1.0000 0.27760  0.39540  0.07110  Biso   1.000  H
  H14      1.0000 0.22240  0.89540  0.92890  Biso   1.000  H
  H15      1.0000 0.72240  0.60460  0.92890  Biso   1.000  H
  H16      1.0000 0.77760  0.10460  0.07110  Biso   1.000  H
  C21      1.0000 0.15040  0.29820  0.17980  Biso   1.000  C
  C22      1.0000 0.34960  0.79820  0.82020  Biso   1.000  C
  C23      1.0000 0.84960  0.70180  0.82020  Biso   1.000  C
  C24      1.0000 0.65040  0.20180  0.17980  Biso   1.000  C
  C25      1.0000 0.09590  0.29930  0.21130  Biso   1.000  C
  C26      1.0000 0.40410  0.79930  0.78870  Biso   1.000  C
  C27      1.0000 0.90410  0.70070  0.78870  Biso   1.000  C
  C28      1.0000 0.59590  0.20070  0.21130  Biso   1.000  C
  H17      1.0000 0.06890  0.33240  0.21330  Biso   1.000  H
  H18      1.0000 0.43110  0.83240  0.78670  Biso   1.000  H
  H19      1.0000 0.93110  0.66760  0.78670  Biso   1.000  H
  H20      1.0000 0.56890  0.16760  0.21330  Biso   1.000  H
  C29      1.0000 0.08040  0.25270  0.23990  Biso   1.000  C
  C30      1.0000 0.41960  0.75270  0.76010  Biso   1.000  C
  C31      1.0000 0.91960  0.74730  0.76010  Biso   1.000  C
  C32      1.0000 0.58040  0.24730  0.23990  Biso   1.000  C
  H21      1.0000 0.04300  0.25520  0.26110  Biso   1.000  H
  H22      1.0000 0.45700  0.75520  0.73890  Biso   1.000  H
  H23      1.0000 0.95700  0.74480  0.73890  Biso   1.000  H
  H24      1.0000 0.54300  0.24480  0.26110  Biso   1.000  H
  C33      1.0000 0.17020  0.20240  0.20890  Biso   1.000  C
  C34      1.0000 0.32980  0.70240  0.79110  Biso   1.000  C
  C35      1.0000 0.82980  0.79760  0.79110  Biso   1.000  C
  C36      1.0000 0.67020  0.29760  0.20890  Biso   1.000  C
  H25      1.0000 0.19680  0.16890  0.20800  Biso   1.000  H
  H26      1.0000 0.30320  0.66890  0.79200  Biso   1.000  H
  H27      1.0000 0.80320  0.83110  0.79200  Biso   1.000  H
  H28      1.0000 0.69680  0.33110  0.20800  Biso   1.000  H
  C37      1.0000 0.18930  0.24830  0.17910  Biso   1.000  C
  C38      1.0000 0.31070  0.74830  0.82090  Biso   1.000  C
  C39      1.0000 0.81070  0.75170  0.82090  Biso   1.000  C
  C40      1.0000 0.68930  0.25170  0.17910  Biso   1.000  C
  H29      1.0000 0.22780  0.24550  0.15890  Biso   1.000  H
  H30      1.0000 0.27220  0.74550  0.84110  Biso   1.000  H
  H31      1.0000 0.77220  0.75450  0.84110  Biso   1.000  H
  H32      1.0000 0.72780  0.25450  0.15890  Biso   1.000  H
  C41      1.0000 0.26450  0.55110  0.15630  Biso   1.000  C
  C42      1.0000 0.23550  0.05110  0.84370  Biso   1.000  C
  C43      1.0000 0.73550  0.44890  0.84370  Biso   1.000  C
  C44      1.0000 0.76450  0.94890  0.15630  Biso   1.000  C
  H33      1.0000 0.26390  0.51190  0.16260  Biso   1.000  H
  H34      1.0000 0.23610  0.01190  0.83740  Biso   1.000  H
  H35      1.0000 0.73610  0.48810  0.83740  Biso   1.000  H
  H36      1.0000 0.76390  0.98810  0.16260  Biso   1.000  H
  C45      1.0000 0.30010  0.58420  0.19200  Biso   1.000  C
  C46      1.0000 0.19990  0.08420  0.80800  Biso   1.000  C
  C47      1.0000 0.69990  0.41580  0.80800  Biso   1.000  C
  C48      1.0000 0.80010  0.91580  0.19200  Biso   1.000  C
  H37      1.0000 0.32130  0.56860  0.22250  Biso   1.000  H
  H38      1.0000 0.17870  0.06860  0.77750  Biso   1.000  H
  H39      1.0000 0.67870  0.43140  0.77750  Biso   1.000  H
  H40      1.0000 0.82130  0.93140  0.22250  Biso   1.000  H
  C49      1.0000 0.30440  0.64330  0.18190  Biso   1.000  C
  C50      1.0000 0.19560  0.14330  0.81810  Biso   1.000  C
  C51      1.0000 0.69560  0.35670  0.81810  Biso   1.000  C
  C52      1.0000 0.80440  0.85670  0.18190  Biso   1.000  C
  C53      1.0000 0.26770  0.66180  0.13940  Biso   1.000  C
  C54      1.0000 0.23230  0.16180  0.86060  Biso   1.000  C
  C55      1.0000 0.73230  0.33820  0.86060  Biso   1.000  C
  C56      1.0000 0.76770  0.83820  0.13940  Biso   1.000  C
  H41      1.0000 0.26690  0.70080  0.13240  Biso   1.000  H
  H42      1.0000 0.23310  0.20080  0.86760  Biso   1.000  H
  H43      1.0000 0.73310  0.29920  0.86760  Biso   1.000  H
  H44      1.0000 0.76690  0.79920  0.13240  Biso   1.000  H
  C57      1.0000 0.23150  0.62610  0.10590  Biso   1.000  C
  C58      1.0000 0.26850  0.12610  0.89410  Biso   1.000  C
  C59      1.0000 0.76850  0.37390  0.89410  Biso   1.000  C
  C60      1.0000 0.73150  0.87390  0.10590  Biso   1.000  C
  H45      1.0000 0.20650  0.64120  0.07660  Biso   1.000  H
  H46      1.0000 0.29350  0.14120  0.92340  Biso   1.000  H
  H47      1.0000 0.79350  0.35880  0.92340  Biso   1.000  H
  H48      1.0000 0.70650  0.85880  0.07660  Biso   1.000  H
  C61      1.0000 0.34860  0.68020  0.21820  Biso   1.000  C
  C62      1.0000 0.15140  0.18020  0.78180  Biso   1.000  C
  C63      1.0000 0.65140  0.31980  0.78180  Biso   1.000  C
  C64      1.0000 0.84860  0.81980  0.21820  Biso   1.000  C
  C65      1.0000 0.40530  0.66110  0.24830  Biso   1.000  C
  C66      1.0000 0.09470  0.16110  0.75170  Biso   1.000  C
  C67      1.0000 0.59470  0.33890  0.75170  Biso   1.000  C
  C68      1.0000 0.90530  0.83890  0.24830  Biso   1.000  C
  H49      1.0000 0.41790  0.62270  0.24700  Biso   1.000  H
  H50      1.0000 0.08210  0.12270  0.75300  Biso   1.000  H
  H51      1.0000 0.58210  0.37730  0.75300  Biso   1.000  H
  H52      1.0000 0.91790  0.87730  0.24700  Biso   1.000  H
  C69      1.0000 0.44430  0.69720  0.28070  Biso   1.000  C
  C70      1.0000 0.05570  0.19720  0.71930  Biso   1.000  C
  C71      1.0000 0.55570  0.30280  0.71930  Biso   1.000  C
  C72      1.0000 0.94430  0.80280  0.28070  Biso   1.000  C
  H53      1.0000 0.48320  0.68260  0.30090  Biso   1.000  H
  H54      1.0000 0.01680  0.18260  0.69910  Biso   1.000  H
  H55      1.0000 0.51680  0.31740  0.69910  Biso   1.000  H
  H56      1.0000 0.98320  0.81740  0.30090  Biso   1.000  H
  C73      1.0000 0.37340  0.77090  0.25480  Biso   1.000  C
  C74      1.0000 0.12660  0.27090  0.74520  Biso   1.000  C
  C75      1.0000 0.62660  0.22910  0.74520  Biso   1.000  C
  C76      1.0000 0.87340  0.72910  0.25480  Biso   1.000  C
  H57      1.0000 0.36090  0.80930  0.25710  Biso   1.000  H
  H58      1.0000 0.13910  0.30930  0.74290  Biso   1.000  H
  H59      1.0000 0.63910  0.19070  0.74290  Biso   1.000  H
  H60      1.0000 0.86090  0.69070  0.25710  Biso   1.000  H
  C77      1.0000 0.33380  0.73790  0.22160  Biso   1.000  C
  C78      1.0000 0.16620  0.23790  0.77840  Biso   1.000  C
  C79      1.0000 0.66620  0.26210  0.77840  Biso   1.000  C
  C80      1.0000 0.83380  0.76210  0.22160  Biso   1.000  C
  H61      1.0000 0.29640  0.75370  0.20070  Biso   1.000  H
  H62      1.0000 0.20360  0.25370  0.79930  Biso   1.000  H
  H63      1.0000 0.70360  0.24630  0.79930  Biso   1.000  H
  H64      1.0000 0.79640  0.74630  0.20070  Biso   1.000  H
  C81      1.0000 0.34720  0.46310  0.00690  Biso   1.000  C
  C82      1.0000 0.15280  0.96310  0.99310  Biso   1.000  C
  C83      1.0000 0.65280  0.53690  0.99310  Biso   1.000  C
  C84      1.0000 0.84720  0.03690  0.00690  Biso   1.000  C
  H65      1.0000 0.31420  0.43610  0.99400  Biso   1.000  H
  H66      1.0000 0.18580  0.93610  0.00600  Biso   1.000  H
  H67      1.0000 0.68580  0.56390  0.00600  Biso   1.000  H
  H68      1.0000 0.81420  0.06390  0.99400  Biso   1.000  H
  C85      1.0000 0.41290  0.46080  0.99090  Biso   1.000  C
  C86      1.0000 0.08710  0.96080  0.00910  Biso   1.000  C
  C87      1.0000 0.58710  0.53920  0.00910  Biso   1.000  C
  C88      1.0000 0.91290  0.03920  0.99090  Biso   1.000  C
  H69      1.0000 0.42450  0.43240  0.96780  Biso   1.000  H
  H70      1.0000 0.07550  0.93240  0.03220  Biso   1.000  H
  H71      1.0000 0.57550  0.56760  0.03220  Biso   1.000  H
  H72      1.0000 0.92450  0.06760  0.96780  Biso   1.000  H
  C89      1.0000 0.46390  0.50060  0.00870  Biso   1.000  C
  C90      1.0000 0.03610  0.00060  0.99130  Biso   1.000  C
  C91      1.0000 0.53610  0.49940  0.99130  Biso   1.000  C
  C92      1.0000 0.96390  0.99940  0.00870  Biso   1.000  C
  C93      1.0000 0.44170  0.54180  0.04190  Biso   1.000  C
  C94      1.0000 0.05830  0.04180  0.95810  Biso   1.000  C
  C95      1.0000 0.55830  0.45820  0.95810  Biso   1.000  C
  C96      1.0000 0.94170  0.95820  0.04190  Biso   1.000  C
  H73      1.0000 0.47300  0.57020  0.05450  Biso   1.000  H
  H74      1.0000 0.02700  0.07020  0.94550  Biso   1.000  H
  H75      1.0000 0.52700  0.42980  0.94550  Biso   1.000  H
  H76      1.0000 0.97300  0.92980  0.05450  Biso   1.000  H
  C97      1.0000 0.37450  0.54080  0.05620  Biso   1.000  C
  C98      1.0000 0.12550  0.04080  0.94380  Biso   1.000  C
  C99      1.0000 0.62550  0.45920  0.94380  Biso   1.000  C
  C100     1.0000 0.87450  0.95920  0.05620  Biso   1.000  C
  H77      1.0000 0.36110  0.56910  0.07870  Biso   1.000  H
  H78      1.0000 0.13890  0.06910  0.92130  Biso   1.000  H
  H79      1.0000 0.63890  0.43090  0.92130  Biso   1.000  H
  H80      1.0000 0.86110  0.93090  0.07870  Biso   1.000  H
  C101     1.0000 0.01840  0.21910  0.58480  Biso   1.000  C
  C102     1.0000 0.48160  0.71910  0.41520  Biso   1.000  C
  C103     1.0000 0.98160  0.78090  0.41520  Biso   1.000  C
  C104     1.0000 0.51840  0.28090  0.58480  Biso   1.000  C
  H81      1.0000 0.01610  0.19450  0.61280  Biso   1.000  H
  H82      1.0000 0.48390  0.69450  0.38720  Biso   1.000  H
  H83      1.0000 0.98390  0.80550  0.38720  Biso   1.000  H
  H84      1.0000 0.51610  0.30550  0.61280  Biso   1.000  H
  C105     1.0000 0.02470  0.19590  0.53740  Biso   1.000  C
  C106     1.0000 0.47530  0.69590  0.46260  Biso   1.000  C
  C107     1.0000 0.97530  0.80410  0.46260  Biso   1.000  C
  C108     1.0000 0.52470  0.30410  0.53740  Biso   1.000  C
  H85      1.0000 0.02420  0.15640  0.53310  Biso   1.000  H
  H86      1.0000 0.47580  0.65640  0.46690  Biso   1.000  H
  H87      1.0000 0.97580  0.84360  0.46690  Biso   1.000  H
  H88      1.0000 0.52420  0.34360  0.53310  Biso   1.000  H
  C109     1.0000 0.03170  0.23100  0.49570  Biso   1.000  C
  C110     1.0000 0.46830  0.73100  0.50430  Biso   1.000  C
  C111     1.0000 0.96830  0.76900  0.50430  Biso   1.000  C
  C112     1.0000 0.53170  0.26900  0.49570  Biso   1.000  C
  C113     1.0000 0.02900  0.28850  0.50480  Biso   1.000  C
  C114     1.0000 0.47100  0.78850  0.49520  Biso   1.000  C
  C115     1.0000 0.97100  0.71150  0.49520  Biso   1.000  C
  C116     1.0000 0.52900  0.21150  0.50480  Biso   1.000  C
  H89      1.0000 0.03220  0.31460  0.47810  Biso   1.000  H
  H90      1.0000 0.46780  0.81460  0.52190  Biso   1.000  H
  H91      1.0000 0.96780  0.68540  0.52190  Biso   1.000  H
  H92      1.0000 0.53220  0.18540  0.47810  Biso   1.000  H
  C117     1.0000 0.02140  0.30650  0.55370  Biso   1.000  C
  C118     1.0000 0.47860  0.80650  0.44630  Biso   1.000  C
  C119     1.0000 0.97860  0.69350  0.44630  Biso   1.000  C
  C120     1.0000 0.52140  0.19350  0.55370  Biso   1.000  C
  H93      1.0000 0.02040  0.34590  0.55920  Biso   1.000  H
  H94      1.0000 0.47960  0.84590  0.44080  Biso   1.000  H
  H95      1.0000 0.97960  0.65410  0.44080  Biso   1.000  H
  H96      1.0000 0.52040  0.15410  0.55920  Biso   1.000  H
  C121     1.0000 0.04020  0.20800  0.44410  Biso   1.000  C
  C122     1.0000 0.45980  0.70800  0.55590  Biso   1.000  C
  C123     1.0000 0.95980  0.79200  0.55590  Biso   1.000  C
  C124     1.0000 0.54020  0.29200  0.44410  Biso   1.000  C
  C125     1.0000 0.00750  0.15840  0.42670  Biso   1.000  C
  C126     1.0000 0.49250  0.65840  0.57330  Biso   1.000  C
  C127     1.0000 0.99250  0.84160  0.57330  Biso   1.000  C
  C128     1.0000 0.50750  0.34160  0.42670  Biso   1.000  C
  H97      1.0000 0.97960  0.13740  0.44790  Biso   1.000  H
  H98      1.0000 0.52040  0.63740  0.55210  Biso   1.000  H
  H99      1.0000 0.02040  0.86260  0.55210  Biso   1.000  H
  H100     1.0000 0.47960  0.36260  0.44790  Biso   1.000  H
  C129     1.0000 0.01670  0.14040  0.37730  Biso   1.000  C
  C130     1.0000 0.48330  0.64040  0.62270  Biso   1.000  C
  C131     1.0000 0.98330  0.85960  0.62270  Biso   1.000  C
  C132     1.0000 0.51670  0.35960  0.37730  Biso   1.000  C
  H101     1.0000 0.99290  0.10740  0.36560  Biso   1.000  H
  H102     1.0000 0.50710  0.60740  0.63440  Biso   1.000  H
  H103     1.0000 0.00710  0.89260  0.63440  Biso   1.000  H
  H104     1.0000 0.49290  0.39260  0.36560  Biso   1.000  H
  C133     1.0000 0.09050  0.21110  0.36410  Biso   1.000  C
  C134     1.0000 0.40950  0.71110  0.63590  Biso   1.000  C
  C135     1.0000 0.90950  0.78890  0.63590  Biso   1.000  C
  C136     1.0000 0.59050  0.28890  0.36410  Biso   1.000  C
  H105     1.0000 0.12250  0.22850  0.34350  Biso   1.000  H
  H106     1.0000 0.37750  0.72850  0.65650  Biso   1.000  H
  H107     1.0000 0.87750  0.77150  0.65650  Biso   1.000  H
  H108     1.0000 0.62250  0.27150  0.34350  Biso   1.000  H
  C137     1.0000 0.08190  0.23390  0.41150  Biso   1.000  C
  C138     1.0000 0.41810  0.73390  0.58850  Biso   1.000  C
  C139     1.0000 0.91810  0.76610  0.58850  Biso   1.000  C
  C140     1.0000 0.58190  0.26610  0.41150  Biso   1.000  C
  H109     1.0000 0.10520  0.26770  0.42150  Biso   1.000  H
  H110     1.0000 0.39480  0.76770  0.57850  Biso   1.000  H
  H111     1.0000 0.89480  0.73230  0.57850  Biso   1.000  H
  H112     1.0000 0.60520  0.23230  0.42150  Biso   1.000  H
  C141     1.0000 0.35830  0.86830  0.35710  Biso   1.000  C
  C142     1.0000 0.14170  0.36830  0.64290  Biso   1.000  C
  C143     1.0000 0.64170  0.13170  0.64290  Biso   1.000  C
  C144     1.0000 0.85830  0.63170  0.35710  Biso   1.000  C
  H113     1.0000 0.34960  0.83400  0.37370  Biso   1.000  H
  H114     1.0000 0.15040  0.33400  0.62630  Biso   1.000  H
  H115     1.0000 0.65040  0.16600  0.62630  Biso   1.000  H
  H116     1.0000 0.84960  0.66600  0.37370  Biso   1.000  H
  C145     1.0000 0.30540  0.90750  0.35290  Biso   1.000  C
  C146     1.0000 0.19460  0.40750  0.64710  Biso   1.000  C
  C147     1.0000 0.69460  0.09250  0.64710  Biso   1.000  C
  C148     1.0000 0.80540  0.59250  0.35290  Biso   1.000  C
  H117     1.0000 0.26190  0.89970  0.36600  Biso   1.000  H
  H118     1.0000 0.23810  0.39970  0.63400  Biso   1.000  H
  H119     1.0000 0.73810  0.10030  0.63400  Biso   1.000  H
  H120     1.0000 0.76190  0.60030  0.36600  Biso   1.000  H
  C149     1.0000 0.31630  0.95870  0.32930  Biso   1.000  C
  C150     1.0000 0.18370  0.45870  0.67070  Biso   1.000  C
  C151     1.0000 0.68370  0.04130  0.67070  Biso   1.000  C
  C152     1.0000 0.81630  0.54130  0.32930  Biso   1.000  C
  C153     1.0000 0.38250  0.96760  0.31280  Biso   1.000  C
  C154     1.0000 0.11750  0.46760  0.68720  Biso   1.000  C
  C155     1.0000 0.61750  0.03240  0.68720  Biso   1.000  C
  C156     1.0000 0.88250  0.53240  0.31280  Biso   1.000  C
  H121     1.0000 0.39320  0.00220  0.29740  Biso   1.000  H
  H122     1.0000 0.10680  0.50220  0.70260  Biso   1.000  H
  H123     1.0000 0.60680  0.99780  0.70260  Biso   1.000  H
  H124     1.0000 0.89320  0.49780  0.29740  Biso   1.000  H
  C157     1.0000 0.43310  0.92560  0.31890  Biso   1.000  C
  C158     1.0000 0.06690  0.42560  0.68110  Biso   1.000  C
  C159     1.0000 0.56690  0.07440  0.68110  Biso   1.000  C
  C160     1.0000 0.93310  0.57440  0.31890  Biso   1.000  C
  H125     1.0000 0.47810  0.93290  0.30800  Biso   1.000  H
  H126     1.0000 0.02190  0.43290  0.69200  Biso   1.000  H
  H127     1.0000 0.52190  0.06710  0.69200  Biso   1.000  H
  H128     1.0000 0.97810  0.56710  0.30800  Biso   1.000  H
  C161     1.0000 0.25930  0.00200  0.32060  Biso   1.000  C
  C162     1.0000 0.24070  0.50200  0.67940  Biso   1.000  C
  C163     1.0000 0.74070  0.99800  0.67940  Biso   1.000  C
  C164     1.0000 0.75930  0.49800  0.32060  Biso   1.000  C
  C165     1.0000 0.19030  0.98700  0.31720  Biso   1.000  C
  C166     1.0000 0.30970  0.48700  0.68280  Biso   1.000  C
  C167     1.0000 0.80970  0.01300  0.68280  Biso   1.000  C
  C168     1.0000 0.69030  0.51300  0.31720  Biso   1.000  C
  H129     1.0000 0.17760  0.94940  0.32360  Biso   1.000  H
  H130     1.0000 0.32240  0.44940  0.67640  Biso   1.000  H
  H131     1.0000 0.82240  0.05060  0.67640  Biso   1.000  H
  H132     1.0000 0.67760  0.55060  0.32360  Biso   1.000  H
  C169     1.0000 0.13970  0.02610  0.30470  Biso   1.000  C
  C170     1.0000 0.36030  0.52610  0.69530  Biso   1.000  C
  C171     1.0000 0.86030  0.97390  0.69530  Biso   1.000  C
  C172     1.0000 0.63970  0.47390  0.30470  Biso   1.000  C
  H133     1.0000 0.09250  0.01420  0.30280  Biso   1.000  H
  H134     1.0000 0.40750  0.51420  0.69720  Biso   1.000  H
  H135     1.0000 0.90750  0.98580  0.69720  Biso   1.000  H
  H136     1.0000 0.59250  0.48580  0.30280  Biso   1.000  H
  C173     1.0000 0.21920  0.09440  0.29960  Biso   1.000  C
  C174     1.0000 0.28080  0.59440  0.70040  Biso   1.000  C
  C175     1.0000 0.78080  0.90560  0.70040  Biso   1.000  C
  C176     1.0000 0.71920  0.40560  0.29960  Biso   1.000  C
  H137     1.0000 0.23050  0.13270  0.29500  Biso   1.000  H
  H138     1.0000 0.26950  0.63270  0.70500  Biso   1.000  H
  H139     1.0000 0.76950  0.86730  0.70500  Biso   1.000  H
  H140     1.0000 0.73050  0.36730  0.29500  Biso   1.000  H
  C177     1.0000 0.27400  0.05730  0.31080  Biso   1.000  C
  C178     1.0000 0.22600  0.55730  0.68920  Biso   1.000  C
  C179     1.0000 0.72600  0.94270  0.68920  Biso   1.000  C
  C180     1.0000 0.77400  0.44270  0.31080  Biso   1.000  C
  H141     1.0000 0.32090  0.06990  0.31170  Biso   1.000  H
  H142     1.0000 0.17910  0.56990  0.68830  Biso   1.000  H
  H143     1.0000 0.67910  0.93010  0.68830  Biso   1.000  H
  H144     1.0000 0.82090  0.43010  0.31170  Biso   1.000  H
  P1       1.0000 0.17992  0.55333  0.97628  Biso   1.000  P
  P2       1.0000 0.32008  0.05333  0.02372  Biso   1.000  P
  P3       1.0000 0.82008  0.44667  0.02372  Biso   1.000  P
  P4       1.0000 0.67992  0.94667  0.97628  Biso   1.000  P
  C181     1.0000 0.17760  0.50960  0.91820  Biso   1.000  C
  C182     1.0000 0.32240  0.00960  0.08180  Biso   1.000  C
  C183     1.0000 0.82240  0.49040  0.08180  Biso   1.000  C
  C184     1.0000 0.67760  0.99040  0.91820  Biso   1.000  C
  C185     1.0000 0.18550  0.45140  0.92270  Biso   1.000  C
  C186     1.0000 0.31450  0.95140  0.07730  Biso   1.000  C
  C187     1.0000 0.81450  0.54860  0.07730  Biso   1.000  C
  C188     1.0000 0.68550  0.04860  0.92270  Biso   1.000  C
  H145     1.0000 0.19000  0.43470  0.95540  Biso   1.000  H
  H146     1.0000 0.31000  0.93470  0.04460  Biso   1.000  H
  H147     1.0000 0.81000  0.56530  0.04460  Biso   1.000  H
  H148     1.0000 0.69000  0.06530  0.95540  Biso   1.000  H
  C189     1.0000 0.18680  0.41800  0.87980  Biso   1.000  C
  C190     1.0000 0.31320  0.91800  0.12020  Biso   1.000  C
  C191     1.0000 0.81320  0.58200  0.12020  Biso   1.000  C
  C192     1.0000 0.68680  0.08200  0.87980  Biso   1.000  C
  H149     1.0000 0.19120  0.37840  0.88290  Biso   1.000  H
  H150     1.0000 0.30880  0.87840  0.11710  Biso   1.000  H
  H151     1.0000 0.80880  0.62160  0.11710  Biso   1.000  H
  H152     1.0000 0.69120  0.12160  0.88290  Biso   1.000  H
  C193     1.0000 0.18180  0.44260  0.83320  Biso   1.000  C
  C194     1.0000 0.31820  0.94260  0.16680  Biso   1.000  C
  C195     1.0000 0.81820  0.55740  0.16680  Biso   1.000  C
  C196     1.0000 0.68180  0.05740  0.83320  Biso   1.000  C
  H153     1.0000 0.18410  0.41970  0.80390  Biso   1.000  H
  H154     1.0000 0.31590  0.91970  0.19610  Biso   1.000  H
  H155     1.0000 0.81590  0.58030  0.19610  Biso   1.000  H
  H156     1.0000 0.68410  0.08030  0.80390  Biso   1.000  H
  C197     1.0000 0.17340  0.50070  0.82710  Biso   1.000  C
  C198     1.0000 0.32660  0.00070  0.17290  Biso   1.000  C
  C199     1.0000 0.82660  0.49930  0.17290  Biso   1.000  C
  C200     1.0000 0.67340  0.99930  0.82710  Biso   1.000  C
  H157     1.0000 0.16940  0.51720  0.79430  Biso   1.000  H
  H158     1.0000 0.33060  0.01720  0.20570  Biso   1.000  H
  H159     1.0000 0.83060  0.48280  0.20570  Biso   1.000  H
  H160     1.0000 0.66940  0.98280  0.79430  Biso   1.000  H
  C201     1.0000 0.17100  0.53290  0.86970  Biso   1.000  C
  C202     1.0000 0.32900  0.03290  0.13030  Biso   1.000  C
  C203     1.0000 0.82900  0.46710  0.13030  Biso   1.000  C
  C204     1.0000 0.67100  0.96710  0.86970  Biso   1.000  C
  H161     1.0000 0.16470  0.57220  0.86610  Biso   1.000  H
  H162     1.0000 0.33530  0.07220  0.13390  Biso   1.000  H
  H163     1.0000 0.83530  0.42780  0.13390  Biso   1.000  H
  H164     1.0000 0.66470  0.92780  0.86610  Biso   1.000  H
  C205     1.0000 0.24010  0.60880  0.96000  Biso   1.000  C
  C206     1.0000 0.25990  0.10880  0.04000  Biso   1.000  C
  C207     1.0000 0.75990  0.39120  0.04000  Biso   1.000  C
  C208     1.0000 0.74010  0.89120  0.96000  Biso   1.000  C
  C209     1.0000 0.30210  0.59540  0.93870  Biso   1.000  C
  C210     1.0000 0.19790  0.09540  0.06130  Biso   1.000  C
  C211     1.0000 0.69790  0.40460  0.06130  Biso   1.000  C
  C212     1.0000 0.80210  0.90460  0.93870  Biso   1.000  C
  H165     1.0000 0.31040  0.55740  0.93030  Biso   1.000  H
  H166     1.0000 0.18960  0.05740  0.06970  Biso   1.000  H
  H167     1.0000 0.68960  0.44260  0.06970  Biso   1.000  H
  H168     1.0000 0.81040  0.94260  0.93030  Biso   1.000  H
  C213     1.0000 0.35230  0.63520  0.92910  Biso   1.000  C
  C214     1.0000 0.14770  0.13520  0.07090  Biso   1.000  C
  C215     1.0000 0.64770  0.36480  0.07090  Biso   1.000  C
  C216     1.0000 0.85230  0.86480  0.92910  Biso   1.000  C
  H169     1.0000 0.39420  0.62410  0.91520  Biso   1.000  H
  H170     1.0000 0.10580  0.12410  0.08480  Biso   1.000  H
  H171     1.0000 0.60580  0.37590  0.08480  Biso   1.000  H
  H172     1.0000 0.89420  0.87590  0.91520  Biso   1.000  H
  C217     1.0000 0.34080  0.69060  0.94000  Biso   1.000  C
  C218     1.0000 0.15920  0.19060  0.06000  Biso   1.000  C
  C219     1.0000 0.65920  0.30940  0.06000  Biso   1.000  C
  C220     1.0000 0.84080  0.80940  0.94000  Biso   1.000  C
  H173     1.0000 0.37450  0.71810  0.93330  Biso   1.000  H
  H174     1.0000 0.12550  0.21810  0.06670  Biso   1.000  H
  H175     1.0000 0.62550  0.28190  0.06670  Biso   1.000  H
  H176     1.0000 0.87450  0.78190  0.93330  Biso   1.000  H
  C221     1.0000 0.27970  0.70620  0.96080  Biso   1.000  C
  C222     1.0000 0.22030  0.20620  0.03920  Biso   1.000  C
  C223     1.0000 0.72030  0.29380  0.03920  Biso   1.000  C
  C224     1.0000 0.77970  0.79380  0.96080  Biso   1.000  C
  H177     1.0000 0.27210  0.74460  0.96810  Biso   1.000  H
  H178     1.0000 0.22790  0.24460  0.03190  Biso   1.000  H
  H179     1.0000 0.72790  0.25540  0.03190  Biso   1.000  H
  H180     1.0000 0.77210  0.75540  0.96810  Biso   1.000  H
  C225     1.0000 0.22870  0.66600  0.97130  Biso   1.000  C
  C226     1.0000 0.27130  0.16600  0.02870  Biso   1.000  C
  C227     1.0000 0.77130  0.33400  0.02870  Biso   1.000  C
  C228     1.0000 0.72870  0.83400  0.97130  Biso   1.000  C
  H181     1.0000 0.18720  0.67720  0.98580  Biso   1.000  H
  H182     1.0000 0.31280  0.17720  0.01420  Biso   1.000  H
  H183     1.0000 0.81280  0.32280  0.01420  Biso   1.000  H
  H184     1.0000 0.68720  0.82280  0.98580  Biso   1.000  H
  C229     1.0000 0.09340  0.58670  0.97600  Biso   1.000  C
  C230     1.0000 0.40660  0.08670  0.02400  Biso   1.000  C
  C231     1.0000 0.90660  0.41330  0.02400  Biso   1.000  C
  C232     1.0000 0.59340  0.91330  0.97600  Biso   1.000  C
  C233     1.0000 0.06740  0.62490  0.93960  Biso   1.000  C
  C234     1.0000 0.43260  0.12490  0.06040  Biso   1.000  C
  C235     1.0000 0.93260  0.37510  0.06040  Biso   1.000  C
  C236     1.0000 0.56740  0.87510  0.93960  Biso   1.000  C
  H185     1.0000 0.09570  0.63570  0.91350  Biso   1.000  H
  H186     1.0000 0.40430  0.13570  0.08650  Biso   1.000  H
  H187     1.0000 0.90430  0.36430  0.08650  Biso   1.000  H
  H188     1.0000 0.59570  0.86430  0.91350  Biso   1.000  H
  C237     1.0000 0.00190  0.64770  0.94050  Biso   1.000  C
  C238     1.0000 0.49810  0.14770  0.05950  Biso   1.000  C
  C239     1.0000 0.99810  0.35230  0.05950  Biso   1.000  C
  C240     1.0000 0.50190  0.85230  0.94050  Biso   1.000  C
  H189     1.0000 0.98590  0.67480  0.91590  Biso   1.000  H
  H190     1.0000 0.51410  0.17480  0.08410  Biso   1.000  H
  H191     1.0000 0.01410  0.32520  0.08410  Biso   1.000  H
  H192     1.0000 0.48590  0.82520  0.91590  Biso   1.000  H
  C241     1.0000 0.95880  0.63070  0.97800  Biso   1.000  C
  C242     1.0000 0.54120  0.13070  0.02200  Biso   1.000  C
  C243     1.0000 0.04120  0.36930  0.02200  Biso   1.000  C
  C244     1.0000 0.45880  0.86930  0.97800  Biso   1.000  C
  H193     1.0000 0.91270  0.64480  0.97780  Biso   1.000  H
  H194     1.0000 0.58730  0.14480  0.02220  Biso   1.000  H
  H195     1.0000 0.08730  0.35520  0.02220  Biso   1.000  H
  H196     1.0000 0.41270  0.85520  0.97780  Biso   1.000  H
  C245     1.0000 0.98320  0.59350  0.01510  Biso   1.000  C
  C246     1.0000 0.51680  0.09350  0.98490  Biso   1.000  C
  C247     1.0000 0.01680  0.40650  0.98490  Biso   1.000  C
  C248     1.0000 0.48320  0.90650  0.01510  Biso   1.000  C
  H197     1.0000 0.95490  0.58340  0.04150  Biso   1.000  H
  H198     1.0000 0.54510  0.08340  0.95850  Biso   1.000  H
  H199     1.0000 0.04510  0.41660  0.95850  Biso   1.000  H
  H200     1.0000 0.45490  0.91660  0.04150  Biso   1.000  H
  C249     1.0000 0.05020  0.57090  0.01350  Biso   1.000  C
  C250     1.0000 0.44980  0.07090  0.98650  Biso   1.000  C
  C251     1.0000 0.94980  0.42910  0.98650  Biso   1.000  C
  C252     1.0000 0.55020  0.92910  0.01350  Biso   1.000  C
  H201     1.0000 0.06660  0.54430  0.03840  Biso   1.000  H
  H202     1.0000 0.43340  0.04430  0.96160  Biso   1.000  H
  H203     1.0000 0.93340  0.45570  0.96160  Biso   1.000  H
  H204     1.0000 0.56660  0.95570  0.03840  Biso   1.000  H
  P5       1.0000 0.58849  0.82619  0.29881  Biso   1.000  P
  P6       1.0000 0.91151  0.32619  0.70119  Biso   1.000  P
  P7       1.0000 0.41151  0.17381  0.70119  Biso   1.000  P
  P8       1.0000 0.08849  0.67381  0.29881  Biso   1.000  P
  C253     1.0000 0.66470  0.85250  0.33770  Biso   1.000  C
  C254     1.0000 0.83530  0.35250  0.66230  Biso   1.000  C
  C255     1.0000 0.33530  0.14750  0.66230  Biso   1.000  C
  C256     1.0000 0.16470  0.64750  0.33770  Biso   1.000  C
  C257     1.0000 0.73290  0.84610  0.32400  Biso   1.000  C
  C258     1.0000 0.76710  0.34610  0.67600  Biso   1.000  C
  C259     1.0000 0.26710  0.15390  0.67600  Biso   1.000  C
  C260     1.0000 0.23290  0.65390  0.32400  Biso   1.000  C
  H205     1.0000 0.74160  0.82630  0.29410  Biso   1.000  H
  H206     1.0000 0.75840  0.32630  0.70590  Biso   1.000  H
  H207     1.0000 0.25840  0.17370  0.70590  Biso   1.000  H
  H208     1.0000 0.24160  0.67370  0.29410  Biso   1.000  H
  C261     1.0000 0.78850  0.86900  0.35490  Biso   1.000  C
  C262     1.0000 0.71150  0.36900  0.64510  Biso   1.000  C
  C263     1.0000 0.21150  0.13100  0.64510  Biso   1.000  C
  C264     1.0000 0.28850  0.63100  0.35490  Biso   1.000  C
  H209     1.0000 0.83480  0.86360  0.34590  Biso   1.000  H
  H210     1.0000 0.66520  0.36360  0.65410  Biso   1.000  H
  H211     1.0000 0.16520  0.13640  0.65410  Biso   1.000  H
  H212     1.0000 0.33480  0.63640  0.34590  Biso   1.000  H
  C265     1.0000 0.77750  0.89900  0.39740  Biso   1.000  C
  C266     1.0000 0.72250  0.39900  0.60260  Biso   1.000  C
  C267     1.0000 0.22250  0.10100  0.60260  Biso   1.000  C
  C268     1.0000 0.27750  0.60100  0.39740  Biso   1.000  C
  H213     1.0000 0.81570  0.91400  0.41800  Biso   1.000  H
  H214     1.0000 0.68430  0.41400  0.58200  Biso   1.000  H
  H215     1.0000 0.18430  0.08600  0.58200  Biso   1.000  H
  H216     1.0000 0.31570  0.58600  0.41800  Biso   1.000  H
  C269     1.0000 0.71090  0.90730  0.40990  Biso   1.000  C
  C270     1.0000 0.78910  0.40730  0.59010  Biso   1.000  C
  C271     1.0000 0.28910  0.09270  0.59010  Biso   1.000  C
  C272     1.0000 0.21090  0.59270  0.40990  Biso   1.000  C
  H217     1.0000 0.70320  0.92950  0.43870  Biso   1.000  H
  H218     1.0000 0.79680  0.42950  0.56130  Biso   1.000  H
  H219     1.0000 0.29680  0.07050  0.56130  Biso   1.000  H
  H220     1.0000 0.20320  0.57050  0.43870  Biso   1.000  H
  C273     1.0000 0.65310  0.88390  0.38130  Biso   1.000  C
  C274     1.0000 0.84690  0.38390  0.61870  Biso   1.000  C
  C275     1.0000 0.34690  0.11610  0.61870  Biso   1.000  C
  C276     1.0000 0.15310  0.61610  0.38130  Biso   1.000  C
  H221     1.0000 0.60720  0.88920  0.39120  Biso   1.000  H
  H222     1.0000 0.89280  0.38920  0.60880  Biso   1.000  H
  H223     1.0000 0.39280  0.11080  0.60880  Biso   1.000  H
  H224     1.0000 0.10720  0.61080  0.39120  Biso   1.000  H
  C277     1.0000 0.57330  0.87980  0.24970  Biso   1.000  C
  C278     1.0000 0.92670  0.37980  0.75030  Biso   1.000  C
  C279     1.0000 0.42670  0.12020  0.75030  Biso   1.000  C
  C280     1.0000 0.07330  0.62020  0.24970  Biso   1.000  C
  C281     1.0000 0.52050  0.87100  0.21160  Biso   1.000  C
  C282     1.0000 0.97950  0.37100  0.78840  Biso   1.000  C
  C283     1.0000 0.47950  0.12900  0.78840  Biso   1.000  C
  C284     1.0000 0.02050  0.62900  0.21160  Biso   1.000  C
  H225     1.0000 0.49870  0.83530  0.20860  Biso   1.000  H
  H226     1.0000 0.00130  0.33530  0.79140  Biso   1.000  H
  H227     1.0000 0.50130  0.16470  0.79140  Biso   1.000  H
  H228     1.0000 0.99870  0.66470  0.20860  Biso   1.000  H
  C285     1.0000 0.52990  0.96650  0.18290  Biso   1.000  C
  C286     1.0000 0.97010  0.46650  0.81710  Biso   1.000  C
  C287     1.0000 0.47010  0.03350  0.81710  Biso   1.000  C
  C288     1.0000 0.02990  0.53350  0.18290  Biso   1.000  C
  H229     1.0000 0.51460  0.99630  0.16090  Biso   1.000  H
  H230     1.0000 0.98540  0.49630  0.83910  Biso   1.000  H
  H231     1.0000 0.48540  0.00370  0.83910  Biso   1.000  H
  H232     1.0000 0.01460  0.50370  0.16090  Biso   1.000  H
  C289     1.0000 0.49830  0.91420  0.17720  Biso   1.000  C
  C290     1.0000 0.00170  0.41420  0.82280  Biso   1.000  C
  C291     1.0000 0.50170  0.08580  0.82280  Biso   1.000  C
  C292     1.0000 0.99830  0.58580  0.17720  Biso   1.000  C
  H233     1.0000 0.46270  0.90750  0.15080  Biso   1.000  H
  H234     1.0000 0.03730  0.40750  0.84920  Biso   1.000  H
  H235     1.0000 0.53730  0.09250  0.84920  Biso   1.000  H
  H236     1.0000 0.96270  0.59250  0.15080  Biso   1.000  H
  C293     1.0000 0.58250  0.97570  0.21960  Biso   1.000  C
  C294     1.0000 0.91750  0.47570  0.78040  Biso   1.000  C
  C295     1.0000 0.41750  0.02430  0.78040  Biso   1.000  C
  C296     1.0000 0.08250  0.52430  0.21960  Biso   1.000  C
  H237     1.0000 0.60480  0.01120  0.22260  Biso   1.000  H
  H238     1.0000 0.89520  0.51120  0.77740  Biso   1.000  H
  H239     1.0000 0.39520  0.98880  0.77740  Biso   1.000  H
  H240     1.0000 0.10480  0.48880  0.22260  Biso   1.000  H
  C297     1.0000 0.60290  0.93270  0.25240  Biso   1.000  C
  C298     1.0000 0.89710  0.43270  0.74760  Biso   1.000  C
  C299     1.0000 0.39710  0.06730  0.74760  Biso   1.000  C
  C300     1.0000 0.10290  0.56730  0.25240  Biso   1.000  C
  H241     1.0000 0.63910  0.93980  0.27820  Biso   1.000  H
  H242     1.0000 0.86090  0.43980  0.72180  Biso   1.000  H
  H243     1.0000 0.36090  0.06020  0.72180  Biso   1.000  H
  H244     1.0000 0.13910  0.56020  0.27820  Biso   1.000  H
  C301     1.0000 0.62170  0.76670  0.26470  Biso   1.000  C
  C302     1.0000 0.87830  0.26670  0.73530  Biso   1.000  C
  C303     1.0000 0.37830  0.23330  0.73530  Biso   1.000  C
  C304     1.0000 0.12170  0.73330  0.26470  Biso   1.000  C
  C305     1.0000 0.63690  0.76700  0.21480  Biso   1.000  C
  C306     1.0000 0.86310  0.26700  0.78520  Biso   1.000  C
  C307     1.0000 0.36310  0.23300  0.78520  Biso   1.000  C
  C308     1.0000 0.13690  0.73300  0.21480  Biso   1.000  C
  H245     1.0000 0.63190  0.80030  0.19530  Biso   1.000  H
  H246     1.0000 0.86810  0.30030  0.80470  Biso   1.000  H
  H247     1.0000 0.36810  0.19970  0.80470  Biso   1.000  H
  H248     1.0000 0.13190  0.69970  0.19530  Biso   1.000  H
  C309     1.0000 0.65980  0.71750  0.19310  Biso   1.000  C
  C310     1.0000 0.84020  0.21750  0.80690  Biso   1.000  C
  C311     1.0000 0.34020  0.28250  0.80690  Biso   1.000  C
  C312     1.0000 0.15980  0.78250  0.19310  Biso   1.000  C
  H249     1.0000 0.66900  0.71830  0.15830  Biso   1.000  H
  H250     1.0000 0.83100  0.21830  0.84170  Biso   1.000  H
  H251     1.0000 0.33100  0.28170  0.84170  Biso   1.000  H
  H252     1.0000 0.16900  0.78170  0.15830  Biso   1.000  H
  C313     1.0000 0.66940  0.67060  0.21770  Biso   1.000  C
  C314     1.0000 0.83060  0.17060  0.78230  Biso   1.000  C
  C315     1.0000 0.33060  0.32940  0.78230  Biso   1.000  C
  C316     1.0000 0.16940  0.82940  0.21770  Biso   1.000  C
  H253     1.0000 0.68780  0.63870  0.20190  Biso   1.000  H
  H254     1.0000 0.81220  0.13870  0.79810  Biso   1.000  H
  H255     1.0000 0.31220  0.36130  0.79810  Biso   1.000  H
  H256     1.0000 0.18780  0.86130  0.20190  Biso   1.000  H
  C317     1.0000 0.65140  0.66840  0.26860  Biso   1.000  C
  C318     1.0000 0.84860  0.16840  0.73140  Biso   1.000  C
  C319     1.0000 0.34860  0.33160  0.73140  Biso   1.000  C
  C320     1.0000 0.15140  0.83160  0.26860  Biso   1.000  C
  H257     1.0000 0.65490  0.63420  0.28700  Biso   1.000  H
  H258     1.0000 0.84510  0.13420  0.71300  Biso   1.000  H
  H259     1.0000 0.34510  0.36580  0.71300  Biso   1.000  H
  H260     1.0000 0.15490  0.86580  0.28700  Biso   1.000  H
  C321     1.0000 0.62810  0.71770  0.29210  Biso   1.000  C
  C322     1.0000 0.87190  0.21770  0.70790  Biso   1.000  C
  C323     1.0000 0.37190  0.28230  0.70790  Biso   1.000  C
  C324     1.0000 0.12810  0.78230  0.29210  Biso   1.000  C
  H261     1.0000 0.61710  0.71690  0.32640  Biso   1.000  H
  H262     1.0000 0.88290  0.21690  0.67360  Biso   1.000  H
  H263     1.0000 0.38290  0.28310  0.67360  Biso   1.000  H
  H264     1.0000 0.11710  0.78310  0.32640  Biso   1.000  H
  P9       1.0000 0.98721  0.09749  0.22104  Biso   1.000  P
  P10      1.0000 0.51279  0.59749  0.77896  Biso   1.000  P
  P11      1.0000 0.01279  0.90251  0.77896  Biso   1.000  P
  P12      1.0000 0.48721  0.40251  0.22104  Biso   1.000  P
  C325     1.0000 0.02040  0.03420  0.19090  Biso   1.000  C
  C326     1.0000 0.47960  0.53420  0.80910  Biso   1.000  C
  C327     1.0000 0.97960  0.96580  0.80910  Biso   1.000  C
  C328     1.0000 0.52040  0.46580  0.19090  Biso   1.000  C
  C329     1.0000 0.08890  0.03640  0.17520  Biso   1.000  C
  C330     1.0000 0.41110  0.53640  0.82480  Biso   1.000  C
  C331     1.0000 0.91110  0.96360  0.82480  Biso   1.000  C
  C332     1.0000 0.58890  0.46360  0.17520  Biso   1.000  C
  H265     1.0000 0.11470  0.07020  0.17930  Biso   1.000  H
  H266     1.0000 0.38530  0.57020  0.82070  Biso   1.000  H
  H267     1.0000 0.88530  0.92980  0.82070  Biso   1.000  H
  H268     1.0000 0.61470  0.42980  0.17930  Biso   1.000  H
  C333     1.0000 0.07960  0.94010  0.14780  Biso   1.000  C
  C334     1.0000 0.42040  0.44010  0.85220  Biso   1.000  C
  C335     1.0000 0.92040  0.05990  0.85220  Biso   1.000  C
  C336     1.0000 0.57960  0.55990  0.14780  Biso   1.000  C
  H269     1.0000 0.09910  0.90780  0.13340  Biso   1.000  H
  H270     1.0000 0.40090  0.40780  0.86660  Biso   1.000  H
  H271     1.0000 0.90090  0.09220  0.86660  Biso   1.000  H
  H272     1.0000 0.59910  0.59220  0.13340  Biso   1.000  H
  C337     1.0000 0.11960  0.98970  0.15380  Biso   1.000  C
  C338     1.0000 0.38040  0.48970  0.84620  Biso   1.000  C
  C339     1.0000 0.88040  0.01030  0.84620  Biso   1.000  C
  C340     1.0000 0.61960  0.51030  0.15380  Biso   1.000  C
  H273     1.0000 0.16580  0.99140  0.14360  Biso   1.000  H
  H274     1.0000 0.33420  0.49140  0.85640  Biso   1.000  H
  H275     1.0000 0.83420  0.00860  0.85640  Biso   1.000  H
  H276     1.0000 0.66580  0.50860  0.14360  Biso   1.000  H
  C341     1.0000 0.01290  0.93820  0.16260  Biso   1.000  C
  C342     1.0000 0.48710  0.43820  0.83740  Biso   1.000  C
  C343     1.0000 0.98710  0.06180  0.83740  Biso   1.000  C
  C344     1.0000 0.51290  0.56180  0.16260  Biso   1.000  C
  H277     1.0000 0.98670  0.90450  0.15810  Biso   1.000  H
  H278     1.0000 0.51330  0.40450  0.84190  Biso   1.000  H
  H279     1.0000 0.01330  0.09550  0.84190  Biso   1.000  H
  H280     1.0000 0.48670  0.59550  0.15810  Biso   1.000  H
  C345     1.0000 0.98260  0.98500  0.18410  Biso   1.000  C
  C346     1.0000 0.51740  0.48500  0.81590  Biso   1.000  C
  C347     1.0000 0.01740  0.01500  0.81590  Biso   1.000  C
  C348     1.0000 0.48260  0.51500  0.18410  Biso   1.000  C
  H281     1.0000 0.93630  0.98300  0.19410  Biso   1.000  H
  H282     1.0000 0.56370  0.48300  0.80590  Biso   1.000  H
  H283     1.0000 0.06370  0.01700  0.80590  Biso   1.000  H
  H284     1.0000 0.43630  0.51700  0.19410  Biso   1.000  H
  C349     1.0000 0.95410  0.14170  0.16770  Biso   1.000  C
  C350     1.0000 0.54590  0.64170  0.83230  Biso   1.000  C
  C351     1.0000 0.04590  0.85830  0.83230  Biso   1.000  C
  C352     1.0000 0.45410  0.35830  0.16770  Biso   1.000  C
  C353     1.0000 0.94930  0.12490  0.11750  Biso   1.000  C
  C354     1.0000 0.55070  0.62490  0.88250  Biso   1.000  C
  C355     1.0000 0.05070  0.87510  0.88250  Biso   1.000  C
  C356     1.0000 0.44930  0.37510  0.11750  Biso   1.000  C
  H285     1.0000 0.96220  0.08770  0.10960  Biso   1.000  H
  H286     1.0000 0.53780  0.58770  0.89040  Biso   1.000  H
  H287     1.0000 0.03780  0.91230  0.89040  Biso   1.000  H
  H288     1.0000 0.46220  0.41230  0.10960  Biso   1.000  H
  C357     1.0000 0.92590  0.16130  0.07780  Biso   1.000  C
  C358     1.0000 0.57410  0.66130  0.92220  Biso   1.000  C
  C359     1.0000 0.07410  0.83870  0.92220  Biso   1.000  C
  C360     1.0000 0.42590  0.33870  0.07780  Biso   1.000  C
  H289     1.0000 0.92480  0.14990  0.04330  Biso   1.000  H
  H290     1.0000 0.57520  0.64990  0.95670  Biso   1.000  H
  H291     1.0000 0.07520  0.85010  0.95670  Biso   1.000  H
  H292     1.0000 0.42480  0.35010  0.04330  Biso   1.000  H
  C361     1.0000 0.90390  0.21580  0.09150  Biso   1.000  C
  C362     1.0000 0.59610  0.71580  0.90850  Biso   1.000  C
  C363     1.0000 0.09610  0.78420  0.90850  Biso   1.000  C
  C364     1.0000 0.40390  0.28420  0.09150  Biso   1.000  C
  H293     1.0000 0.88610  0.24070  0.06560  Biso   1.000  H
  H294     1.0000 0.61390  0.74070  0.93440  Biso   1.000  H
  H295     1.0000 0.11390  0.75930  0.93440  Biso   1.000  H
  H296     1.0000 0.38610  0.25930  0.06560  Biso   1.000  H
  C365     1.0000 0.90750  0.23300  0.14030  Biso   1.000  C
  C366     1.0000 0.59250  0.73300  0.85970  Biso   1.000  C
  C367     1.0000 0.09250  0.76700  0.85970  Biso   1.000  C
  C368     1.0000 0.40750  0.26700  0.14030  Biso   1.000  C
  H297     1.0000 0.89250  0.26960  0.14850  Biso   1.000  H
  H298     1.0000 0.60750  0.76960  0.85150  Biso   1.000  H
  H299     1.0000 0.10750  0.73040  0.85150  Biso   1.000  H
  H300     1.0000 0.39250  0.23040  0.14850  Biso   1.000  H
  C369     1.0000 0.93340  0.19660  0.17840  Biso   1.000  C
  C370     1.0000 0.56660  0.69660  0.82160  Biso   1.000  C
  C371     1.0000 0.06660  0.80340  0.82160  Biso   1.000  C
  C372     1.0000 0.43340  0.30340  0.17840  Biso   1.000  C
  H301     1.0000 0.93720  0.20920  0.21260  Biso   1.000  H
  H302     1.0000 0.56280  0.70920  0.78740  Biso   1.000  H
  H303     1.0000 0.06280  0.79080  0.78740  Biso   1.000  H
  H304     1.0000 0.43720  0.29080  0.21260  Biso   1.000  H
  C373     1.0000 0.90670  0.07160  0.24760  Biso   1.000  C
  C374     1.0000 0.59330  0.57160  0.75240  Biso   1.000  C
  C375     1.0000 0.09330  0.92840  0.75240  Biso   1.000  C
  C376     1.0000 0.40670  0.42840  0.24760  Biso   1.000  C
  C377     1.0000 0.83940  0.08570  0.22800  Biso   1.000  C
  C378     1.0000 0.66060  0.58570  0.77200  Biso   1.000  C
  C379     1.0000 0.16060  0.91430  0.77200  Biso   1.000  C
  C380     1.0000 0.33940  0.41430  0.22800  Biso   1.000  C
  H305     1.0000 0.83300  0.10990  0.19950  Biso   1.000  H
  H306     1.0000 0.66700  0.60990  0.80050  Biso   1.000  H
  H307     1.0000 0.16700  0.89010  0.80050  Biso   1.000  H
  H308     1.0000 0.33300  0.39010  0.19950  Biso   1.000  H
  C381     1.0000 0.78240  0.06440  0.24990  Biso   1.000  C
  C382     1.0000 0.71760  0.56440  0.75010  Biso   1.000  C
  C383     1.0000 0.21760  0.93560  0.75010  Biso   1.000  C
  C384     1.0000 0.28240  0.43560  0.24990  Biso   1.000  C
  H309     1.0000 0.73680  0.07390  0.23610  Biso   1.000  H
  H310     1.0000 0.76320  0.57390  0.76390  Biso   1.000  H
  H311     1.0000 0.26320  0.92610  0.76390  Biso   1.000  H
  H312     1.0000 0.23680  0.42610  0.23610  Biso   1.000  H
  C385     1.0000 0.79080  0.02880  0.29270  Biso   1.000  C
  C386     1.0000 0.70920  0.52880  0.70730  Biso   1.000  C
  C387     1.0000 0.20920  0.97120  0.70730  Biso   1.000  C
  C388     1.0000 0.29080  0.47120  0.29270  Biso   1.000  C
  H313     1.0000 0.75140  0.01520  0.30830  Biso   1.000  H
  H314     1.0000 0.74860  0.51520  0.69170  Biso   1.000  H
  H315     1.0000 0.24860  0.98480  0.69170  Biso   1.000  H
  H316     1.0000 0.25140  0.48480  0.30830  Biso   1.000  H
  C389     1.0000 0.85830  0.01410  0.31170  Biso   1.000  C
  C390     1.0000 0.64170  0.51410  0.68830  Biso   1.000  C
  C391     1.0000 0.14170  0.98590  0.68830  Biso   1.000  C
  C392     1.0000 0.35830  0.48590  0.31170  Biso   1.000  C
  H317     1.0000 0.86500  0.98850  0.33910  Biso   1.000  H
  H318     1.0000 0.63500  0.48850  0.66090  Biso   1.000  H
  H319     1.0000 0.13500  0.01150  0.66090  Biso   1.000  H
  H320     1.0000 0.36500  0.51150  0.33910  Biso   1.000  H
  C393     1.0000 0.91490  0.03700  0.29050  Biso   1.000  C
  C394     1.0000 0.58510  0.53700  0.70950  Biso   1.000  C
  C395     1.0000 0.08510  0.96300  0.70950  Biso   1.000  C
  C396     1.0000 0.41490  0.46300  0.29050  Biso   1.000  C
  H321     1.0000 0.96050  0.02910  0.30520  Biso   1.000  H
  H322     1.0000 0.53950  0.52910  0.69480  Biso   1.000  H
  H323     1.0000 0.03950  0.97090  0.69480  Biso   1.000  H
  H324     1.0000 0.46050  0.47090  0.30520  Biso   1.000  H
  N1       1.0000 0.19570  0.44140  0.08640  Biso   1.000  N
  N2       1.0000 0.30430  0.94140  0.91360  Biso   1.000  N
  N3       1.0000 0.80430  0.55860  0.91360  Biso   1.000  N
  N4       1.0000 0.69570  0.05860  0.08640  Biso   1.000  N
  N5       1.0000 0.11630  0.20360  0.23870  Biso   1.000  N
  N6       1.0000 0.38370  0.70360  0.76130  Biso   1.000  N
  N7       1.0000 0.88370  0.79640  0.76130  Biso   1.000  N
  N8       1.0000 0.61630  0.29640  0.23870  Biso   1.000  N
  N9       1.0000 0.23080  0.56950  0.11370  Biso   1.000  N
  N10      1.0000 0.26920  0.06950  0.88630  Biso   1.000  N
  N11      1.0000 0.76920  0.43050  0.88630  Biso   1.000  N
  N12      1.0000 0.73080  0.93050  0.11370  Biso   1.000  N
  N13      1.0000 0.42900  0.75250  0.28460  Biso   1.000  N
  N14      1.0000 0.07100  0.25250  0.71540  Biso   1.000  N
  N15      1.0000 0.57100  0.24750  0.71540  Biso   1.000  N
  N16      1.0000 0.92900  0.74750  0.28460  Biso   1.000  N
  N17      1.0000 0.32610  0.50190  0.04020  Biso   1.000  N
  N18      1.0000 0.17390  0.00190  0.95980  Biso   1.000  N
  N19      1.0000 0.67390  0.49810  0.95980  Biso   1.000  N
  N20      1.0000 0.82610  0.99810  0.04020  Biso   1.000  N
  N21      1.0000 0.01540  0.27400  0.59330  Biso   1.000  N
  N22      1.0000 0.48460  0.77400  0.40670  Biso   1.000  N
  N23      1.0000 0.98460  0.72600  0.40670  Biso   1.000  N
  N24      1.0000 0.51540  0.22600  0.59330  Biso   1.000  N
  N25      1.0000 0.05580  0.16560  0.34580  Biso   1.000  N
  N26      1.0000 0.44420  0.66560  0.65420  Biso   1.000  N
  N27      1.0000 0.94420  0.83440  0.65420  Biso   1.000  N
  N28      1.0000 0.55580  0.33440  0.34580  Biso   1.000  N
  N29      1.0000 0.42110  0.87500  0.33940  Biso   1.000  N
  N30      1.0000 0.07890  0.37500  0.66060  Biso   1.000  N
  N31      1.0000 0.57890  0.12500  0.66060  Biso   1.000  N
  N32      1.0000 0.92110  0.62500  0.33940  Biso   1.000  N
  N33      1.0000 0.15240  0.08040  0.29490  Biso   1.000  N
  N34      1.0000 0.34760  0.58040  0.70510  Biso   1.000  N
  N35      1.0000 0.84760  0.91960  0.70510  Biso   1.000  N
  N36      1.0000 0.65240  0.41960  0.29490  Biso   1.000  N
  B1       1.0000 0.41710  0.13620  0.23230  Biso   1.000  B
  B2       1.0000 0.08290  0.63620  0.76770  Biso   1.000  B
  B3       1.0000 0.58290  0.86380  0.76770  Biso   1.000  B
  B4       1.0000 0.91710  0.36380  0.23230  Biso   1.000  B
  F1       1.0000 0.44380  0.18380  0.25640  Biso   1.000  F
  F2       1.0000 0.05620  0.68380  0.74360  Biso   1.000  F
  F3       1.0000 0.55620  0.81620  0.74360  Biso   1.000  F
  F4       1.0000 0.94380  0.31620  0.25640  Biso   1.000  F
  F5       1.0000 0.34910  0.14340  0.21370  Biso   1.000  F
  F6       1.0000 0.15090  0.64340  0.78630  Biso   1.000  F
  F7       1.0000 0.65090  0.85660  0.78630  Biso   1.000  F
  F8       1.0000 0.84910  0.35660  0.21370  Biso   1.000  F
  F9       1.0000 0.41970  0.09240  0.26610  Biso   1.000  F
  F10      1.0000 0.08030  0.59240  0.73390  Biso   1.000  F
  F11      1.0000 0.58030  0.90760  0.73390  Biso   1.000  F
  F12      1.0000 0.91970  0.40760  0.26610  Biso   1.000  F
  F13      1.0000 0.45720  0.12300  0.19240  Biso   1.000  F
  F14      1.0000 0.04280  0.62300  0.80760  Biso   1.000  F
  F15      1.0000 0.54280  0.87700  0.80760  Biso   1.000  F
  F16      1.0000 0.95720  0.37700  0.19240  Biso   1.000  F
  B5       1.0000 0.80010  0.19070  0.94950  Biso   1.000  B
  B6       1.0000 0.69990  0.69070  0.05050  Biso   1.000  B
  B7       1.0000 0.19990  0.80930  0.05050  Biso   1.000  B
  B8       1.0000 0.30010  0.30930  0.94950  Biso   1.000  B
  F17      1.0000 0.83930  0.14940  0.92820  Biso   1.000  F
  F18      1.0000 0.66070  0.64940  0.07180  Biso   1.000  F
  F19      1.0000 0.16070  0.85060  0.07180  Biso   1.000  F
  F20      1.0000 0.33930  0.35060  0.92820  Biso   1.000  F
  F21      1.0000 0.76300  0.16690  0.98770  Biso   1.000  F
  F22      1.0000 0.73700  0.66690  0.01230  Biso   1.000  F
  F23      1.0000 0.23700  0.83310  0.01230  Biso   1.000  F
  F24      1.0000 0.26300  0.33310  0.98770  Biso   1.000  F
  F25      1.0000 0.75020  0.20990  0.91100  Biso   1.000  F
  F26      1.0000 0.74980  0.70990  0.08900  Biso   1.000  F
  F27      1.0000 0.24980  0.79010  0.08900  Biso   1.000  F
  F28      1.0000 0.25020  0.29010  0.91100  Biso   1.000  F
  F29      1.0000 0.83830  0.23570  0.96660  Biso   1.000  F
  F30      1.0000 0.66170  0.73570  0.03340  Biso   1.000  F
  F31      1.0000 0.16170  0.76430  0.03340  Biso   1.000  F
  F32      1.0000 0.33830  0.26430  0.96660  Biso   1.000  F
  B9       1.0000 0.98090  0.07220  0.62810  Biso   1.000  B
  B10      1.0000 0.51910  0.57220  0.37190  Biso   1.000  B
  B11      1.0000 0.01910  0.92780  0.37190  Biso   1.000  B
  B12      1.0000 0.48090  0.42780  0.62810  Biso   1.000  B
  F33      1.0000 0.92990  0.10180  0.60900  Biso   1.000  F
  F34      1.0000 0.57010  0.60180  0.39100  Biso   1.000  F
  F35      1.0000 0.07010  0.89820  0.39100  Biso   1.000  F
  F36      1.0000 0.42990  0.39820  0.60900  Biso   1.000  F
  F37      1.0000 0.98020  0.07740  0.68300  Biso   1.000  F
  F38      1.0000 0.51980  0.57740  0.31700  Biso   1.000  F
  F39      1.0000 0.01980  0.92260  0.31700  Biso   1.000  F
  F40      1.0000 0.48020  0.42260  0.68300  Biso   1.000  F
  F41      1.0000 0.97530  0.01490  0.62010  Biso   1.000  F
  F42      1.0000 0.52470  0.51490  0.37990  Biso   1.000  F
  F43      1.0000 0.02470  0.98510  0.37990  Biso   1.000  F
  F44      1.0000 0.47530  0.48510  0.62010  Biso   1.000  F
  F45      1.0000 0.04480  0.09230  0.61940  Biso   1.000  F
  F46      1.0000 0.45520  0.59230  0.38060  Biso   1.000  F
  F47      1.0000 0.95520  0.90770  0.38060  Biso   1.000  F
  F48      1.0000 0.54480  0.40770  0.61940  Biso   1.000  F
  O1       1.0000 0.75430  0.25660  0.32680  Biso   1.000  O
  O2       1.0000 0.74570  0.75660  0.67320  Biso   1.000  O
  O3       1.0000 0.24570  0.74340  0.67320  Biso   1.000  O
  O4       1.0000 0.25430  0.24340  0.32680  Biso   1.000  O
  C397     1.0000 0.79660  0.22410  0.29940  Biso   1.000  C
  C398     1.0000 0.70340  0.72410  0.70060  Biso   1.000  C
  C399     1.0000 0.20340  0.77590  0.70060  Biso   1.000  C
  C400     1.0000 0.29660  0.27590  0.29940  Biso   1.000  C
  H325     1.0000 0.81730  0.24740  0.27350  Biso   1.000  H
  H326     1.0000 0.68270  0.74740  0.72650  Biso   1.000  H
  H327     1.0000 0.18270  0.75260  0.72650  Biso   1.000  H
  H328     1.0000 0.31730  0.25260  0.27350  Biso   1.000  H
  H329     1.0000 0.76880  0.19400  0.28180  Biso   1.000  H
  H330     1.0000 0.73120  0.69400  0.71820  Biso   1.000  H
  H331     1.0000 0.23120  0.80600  0.71820  Biso   1.000  H
  H332     1.0000 0.26880  0.30600  0.28180  Biso   1.000  H
  C401     1.0000 0.84890  0.20100  0.33190  Biso   1.000  C
  C402     1.0000 0.65110  0.70100  0.66810  Biso   1.000  C
  C403     1.0000 0.15110  0.79900  0.66810  Biso   1.000  C
  C404     1.0000 0.34890  0.29900  0.33190  Biso   1.000  C
  H333     1.0000 0.83230  0.16710  0.34890  Biso   1.000  H
  H334     1.0000 0.66770  0.66710  0.65110  Biso   1.000  H
  H335     1.0000 0.16770  0.83290  0.65110  Biso   1.000  H
  H336     1.0000 0.33230  0.33290  0.34890  Biso   1.000  H
  H337     1.0000 0.89020  0.19110  0.31370  Biso   1.000  H
  H338     1.0000 0.60980  0.69110  0.68630  Biso   1.000  H
  H339     1.0000 0.10980  0.80890  0.68630  Biso   1.000  H
  H340     1.0000 0.39020  0.30890  0.31370  Biso   1.000  H
  C405     1.0000 0.86370  0.24340  0.36590  Biso   1.000  C
  C406     1.0000 0.63630  0.74340  0.63410  Biso   1.000  C
  C407     1.0000 0.13630  0.75660  0.63410  Biso   1.000  C
  C408     1.0000 0.36370  0.25660  0.36590  Biso   1.000  C
  H341     1.0000 0.90410  0.26560  0.35650  Biso   1.000  H
  H342     1.0000 0.59590  0.76560  0.64350  Biso   1.000  H
  H343     1.0000 0.09590  0.73440  0.64350  Biso   1.000  H
  H344     1.0000 0.40410  0.23440  0.35650  Biso   1.000  H
  H345     1.0000 0.87400  0.22840  0.40060  Biso   1.000  H
  H346     1.0000 0.62600  0.72840  0.59940  Biso   1.000  H
  H347     1.0000 0.12600  0.77160  0.59940  Biso   1.000  H
  H348     1.0000 0.37400  0.27160  0.40060  Biso   1.000  H
  C409     1.0000 0.80320  0.27600  0.36310  Biso   1.000  C
  C410     1.0000 0.69680  0.77600  0.63690  Biso   1.000  C
  C411     1.0000 0.19680  0.72400  0.63690  Biso   1.000  C
  C412     1.0000 0.30320  0.22400  0.36310  Biso   1.000  C
  H349     1.0000 0.78330  0.27580  0.39650  Biso   1.000  H
  H350     1.0000 0.71670  0.77580  0.60350  Biso   1.000  H
  H351     1.0000 0.21670  0.72420  0.60350  Biso   1.000  H
  H352     1.0000 0.28330  0.22420  0.39650  Biso   1.000  H
  H353     1.0000 0.81530  0.31520  0.35510  Biso   1.000  H
  H354     1.0000 0.68470  0.81520  0.64490  Biso   1.000  H
  H355     1.0000 0.18470  0.68480  0.64490  Biso   1.000  H
  H356     1.0000 0.31530  0.18480  0.35510  Biso   1.000  H
  O5       1.0000 0.08390  0.37700  0.40990  Biso   1.000  O
  O6       1.0000 0.41610  0.87700  0.59010  Biso   1.000  O
  O7       1.0000 0.91610  0.62300  0.59010  Biso   1.000  O
  O8       1.0000 0.58390  0.12300  0.40990  Biso   1.000  O
  C413     1.0000 0.14070  0.41150  0.40770  Biso   1.000  C
  C414     1.0000 0.35930  0.91150  0.59230  Biso   1.000  C
  C415     1.0000 0.85930  0.58850  0.59230  Biso   1.000  C
  C416     1.0000 0.64070  0.08850  0.40770  Biso   1.000  C
  H357     1.0000 0.18230  0.38920  0.40080  Biso   1.000  H
  H358     1.0000 0.31770  0.88920  0.59920  Biso   1.000  H
  H359     1.0000 0.81770  0.61080  0.59920  Biso   1.000  H
  H360     1.0000 0.68230  0.11080  0.40080  Biso   1.000  H
  H361     1.0000 0.15050  0.43120  0.44040  Biso   1.000  H
  H362     1.0000 0.34950  0.93120  0.55960  Biso   1.000  H
  H363     1.0000 0.84950  0.56880  0.55960  Biso   1.000  H
  H364     1.0000 0.65050  0.06880  0.44040  Biso   1.000  H
  C417     1.0000 0.12550  0.45010  0.36890  Biso   1.000  C
  C418     1.0000 0.37450  0.95010  0.63110  Biso   1.000  C
  C419     1.0000 0.87450  0.54990  0.63110  Biso   1.000  C
  C420     1.0000 0.62550  0.04990  0.36890  Biso   1.000  C
  H365     1.0000 0.09550  0.48080  0.37990  Biso   1.000  H
  H366     1.0000 0.40450  0.98080  0.62010  Biso   1.000  H
  H367     1.0000 0.90450  0.51920  0.62010  Biso   1.000  H
  H368     1.0000 0.59550  0.01920  0.37990  Biso   1.000  H
  H369     1.0000 0.16850  0.46620  0.35660  Biso   1.000  H
  H370     1.0000 0.33150  0.96620  0.64340  Biso   1.000  H
  H371     1.0000 0.83150  0.53380  0.64340  Biso   1.000  H
  H372     1.0000 0.66850  0.03380  0.35660  Biso   1.000  H
  C421     1.0000 0.09080  0.41690  0.33270  Biso   1.000  C
  C422     1.0000 0.40920  0.91690  0.66730  Biso   1.000  C
  C423     1.0000 0.90920  0.58310  0.66730  Biso   1.000  C
  C424     1.0000 0.59080  0.08310  0.33270  Biso   1.000  C
  H373     1.0000 0.12380  0.39620  0.31270  Biso   1.000  H
  H374     1.0000 0.37620  0.89620  0.68730  Biso   1.000  H
  H375     1.0000 0.87620  0.60380  0.68730  Biso   1.000  H
  H376     1.0000 0.62380  0.10380  0.31270  Biso   1.000  H
  H377     1.0000 0.05910  0.43940  0.30940  Biso   1.000  H
  H378     1.0000 0.44090  0.93940  0.69060  Biso   1.000  H
  H379     1.0000 0.94090  0.56060  0.69060  Biso   1.000  H
  H380     1.0000 0.55910  0.06060  0.30940  Biso   1.000  H
  C425     1.0000 0.05410  0.38100  0.36130  Biso   1.000  C
  C426     1.0000 0.44590  0.88100  0.63870  Biso   1.000  C
  C427     1.0000 0.94590  0.61900  0.63870  Biso   1.000  C
  C428     1.0000 0.55410  0.11900  0.36130  Biso   1.000  C
  H381     1.0000 0.00560  0.39460  0.36200  Biso   1.000  H
  H382     1.0000 0.49440  0.89460  0.63800  Biso   1.000  H
  H383     1.0000 0.99440  0.60540  0.63800  Biso   1.000  H
  H384     1.0000 0.50560  0.10540  0.36200  Biso   1.000  H
  H385     1.0000 0.05250  0.34340  0.34540  Biso   1.000  H
  H386     1.0000 0.44750  0.84340  0.65460  Biso   1.000  H
  H387     1.0000 0.94750  0.65660  0.65460  Biso   1.000  H
  H388     1.0000 0.55250  0.15660  0.34540  Biso   1.000  H
  O9       1.0000 0.43900  0.68040  0.11040  Biso   1.000  O
  O10      1.0000 0.06100  0.18040  0.88960  Biso   1.000  O
  O11      1.0000 0.56100  0.31960  0.88960  Biso   1.000  O
  O12      1.0000 0.93900  0.81960  0.11040  Biso   1.000  O
  C429     1.0000 0.42430  0.69310  0.06150  Biso   1.000  C
  C430     1.0000 0.07570  0.19310  0.93850  Biso   1.000  C
  C431     1.0000 0.57570  0.30690  0.93850  Biso   1.000  C
  C432     1.0000 0.92430  0.80690  0.06150  Biso   1.000  C
  H389     1.0000 0.37300  0.69450  0.05400  Biso   1.000  H
  H390     1.0000 0.12700  0.19450  0.94600  Biso   1.000  H
  H391     1.0000 0.62700  0.30550  0.94600  Biso   1.000  H
  H392     1.0000 0.87300  0.80550  0.05400  Biso   1.000  H
  H393     1.0000 0.44290  0.66350  0.04010  Biso   1.000  H
  H394     1.0000 0.05710  0.16350  0.95990  Biso   1.000  H
  H395     1.0000 0.55710  0.33650  0.95990  Biso   1.000  H
  H396     1.0000 0.94290  0.83650  0.04010  Biso   1.000  H
  C433     1.0000 0.45270  0.74400  0.04980  Biso   1.000  C
  C434     1.0000 0.04730  0.24400  0.95020  Biso   1.000  C
  C435     1.0000 0.54730  0.25600  0.95020  Biso   1.000  C
  C436     1.0000 0.95270  0.75600  0.04980  Biso   1.000  C
  H397     1.0000 0.41540  0.77090  0.03880  Biso   1.000  H
  H398     1.0000 0.08460  0.27090  0.96120  Biso   1.000  H
  H399     1.0000 0.58460  0.22910  0.96120  Biso   1.000  H
  H400     1.0000 0.91540  0.72910  0.03880  Biso   1.000  H
  H401     1.0000 0.48370  0.73950  0.02200  Biso   1.000  H
  H402     1.0000 0.01630  0.23950  0.97800  Biso   1.000  H
  H403     1.0000 0.51630  0.26050  0.97800  Biso   1.000  H
  H404     1.0000 0.98370  0.76050  0.02200  Biso   1.000  H
  C437     1.0000 0.49050  0.76350  0.09340  Biso   1.000  C
  C438     1.0000 0.00950  0.26350  0.90660  Biso   1.000  C
  C439     1.0000 0.50950  0.23650  0.90660  Biso   1.000  C
  C440     1.0000 0.99050  0.73650  0.09340  Biso   1.000  C
  H405     1.0000 0.54030  0.76870  0.08750  Biso   1.000  H
  H406     1.0000 0.95970  0.26870  0.91250  Biso   1.000  H
  H407     1.0000 0.45970  0.23130  0.91250  Biso   1.000  H
  H408     1.0000 0.04030  0.73130  0.08750  Biso   1.000  H
  H409     1.0000 0.47150  0.79970  0.10460  Biso   1.000  H
  H410     1.0000 0.02850  0.29970  0.89540  Biso   1.000  H
  H411     1.0000 0.52850  0.20030  0.89540  Biso   1.000  H
  H412     1.0000 0.97150  0.70030  0.10460  Biso   1.000  H
  C441     1.0000 0.48270  0.72240  0.12860  Biso   1.000  C
  C442     1.0000 0.01730  0.22240  0.87140  Biso   1.000  C
  C443     1.0000 0.51730  0.27760  0.87140  Biso   1.000  C
  C444     1.0000 0.98270  0.77760  0.12860  Biso   1.000  C
  H413     1.0000 0.46380  0.73930  0.15890  Biso   1.000  H
  H414     1.0000 0.03620  0.23930  0.84110  Biso   1.000  H
  H415     1.0000 0.53620  0.26070  0.84110  Biso   1.000  H
  H416     1.0000 0.96380  0.76070  0.15890  Biso   1.000  H
  H417     1.0000 0.52900  0.70630  0.13930  Biso   1.000  H
  H418     1.0000 0.97100  0.20630  0.86070  Biso   1.000  H
  H419     1.0000 0.47100  0.29370  0.86070  Biso   1.000  H
  H420     1.0000 0.02900  0.79370  0.13930  Biso   1.000  H
  O13      1.0000 0.74940  0.68180  0.44370  Biso   1.000  O
  O14      1.0000 0.75060  0.18180  0.55630  Biso   1.000  O
  O15      1.0000 0.25060  0.31820  0.55630  Biso   1.000  O
  O16      1.0000 0.24940  0.81820  0.44370  Biso   1.000  O
  C445     1.0000 0.78010  0.72840  0.46210  Biso   1.000  C
  C446     1.0000 0.71990  0.22840  0.53790  Biso   1.000  C
  C447     1.0000 0.21990  0.27160  0.53790  Biso   1.000  C
  C448     1.0000 0.28010  0.77160  0.46210  Biso   1.000  C
  H421     1.0000 0.80110  0.74860  0.43440  Biso   1.000  H
  H422     1.0000 0.69890  0.24860  0.56560  Biso   1.000  H
  H423     1.0000 0.19890  0.25140  0.56560  Biso   1.000  H
  H424     1.0000 0.30110  0.75140  0.43440  Biso   1.000  H
  H425     1.0000 0.81800  0.71830  0.48800  Biso   1.000  H
  H426     1.0000 0.68200  0.21830  0.51200  Biso   1.000  H
  H427     1.0000 0.18200  0.28170  0.51200  Biso   1.000  H
  H428     1.0000 0.31800  0.78170  0.48800  Biso   1.000  H
  C449     1.0000 0.73310  0.76320  0.48360  Biso   1.000  C
  C450     1.0000 0.76690  0.26320  0.51640  Biso   1.000  C
  C451     1.0000 0.26690  0.23680  0.51640  Biso   1.000  C
  C452     1.0000 0.23310  0.73680  0.48360  Biso   1.000  C
  H429     1.0000 0.74330  0.76560  0.52080  Biso   1.000  H
  H430     1.0000 0.75670  0.26560  0.47920  Biso   1.000  H
  H431     1.0000 0.25670  0.23440  0.47920  Biso   1.000  H
  H432     1.0000 0.24330  0.73440  0.52080  Biso   1.000  H
  H433     1.0000 0.73400  0.80140  0.46900  Biso   1.000  H
  H434     1.0000 0.76600  0.30140  0.53100  Biso   1.000  H
  H435     1.0000 0.26600  0.19860  0.53100  Biso   1.000  H
  H436     1.0000 0.23400  0.69860  0.46900  Biso   1.000  H
  C453     1.0000 0.66980  0.73760  0.47140  Biso   1.000  C
  C454     1.0000 0.83020  0.23760  0.52860  Biso   1.000  C
  C455     1.0000 0.33020  0.26240  0.52860  Biso   1.000  C
  C456     1.0000 0.16980  0.76240  0.47140  Biso   1.000  C
  H437     1.0000 0.64830  0.75070  0.43820  Biso   1.000  H
  H438     1.0000 0.85170  0.25070  0.56180  Biso   1.000  H
  H439     1.0000 0.35170  0.24930  0.56180  Biso   1.000  H
  H440     1.0000 0.14830  0.74930  0.43820  Biso   1.000  H
  H441     1.0000 0.63710  0.74400  0.49780  Biso   1.000  H
  H442     1.0000 0.86290  0.24400  0.50220  Biso   1.000  H
  H443     1.0000 0.36290  0.25600  0.50220  Biso   1.000  H
  H444     1.0000 0.13710  0.75600  0.49780  Biso   1.000  H
  C457     1.0000 0.68980  0.68180  0.46940  Biso   1.000  C
  C458     1.0000 0.81020  0.18180  0.53060  Biso   1.000  C
  C459     1.0000 0.31020  0.31820  0.53060  Biso   1.000  C
  C460     1.0000 0.18980  0.81820  0.46940  Biso   1.000  C
  H445     1.0000 0.69940  0.66630  0.50400  Biso   1.000  H
  H446     1.0000 0.80060  0.16630  0.49600  Biso   1.000  H
  H447     1.0000 0.30060  0.33370  0.49600  Biso   1.000  H
  H448     1.0000 0.19940  0.83370  0.50400  Biso   1.000  H
  H449     1.0000 0.65270  0.65910  0.45110  Biso   1.000  H
  H450     1.0000 0.84730  0.15910  0.54890  Biso   1.000  H
  H451     1.0000 0.34730  0.34090  0.54890  Biso   1.000  H
  H452     1.0000 0.15270  0.84090  0.45110  Biso   1.000  H
