data_image0
_cell_length_a       16.463
_cell_length_b       16.463
_cell_length_c       29.839
_cell_angle_alpha    90
_cell_angle_beta     90
_cell_angle_gamma    90

_symmetry_space_group_name_H-M    "P 1"
_symmetry_int_tables_number       1

loop_
  _symmetry_equiv_pos_as_xyz
  'x, y, z'

loop_
  _atom_site_label
  _atom_site_occupancy
  _atom_site_fract_x
  _atom_site_fract_y
  _atom_site_fract_z
  _atom_site_thermal_displace_type
  _atom_site_B_iso_or_equiv
  _atom_site_type_symbol
  Ag1      1.0000 0.00054  0.15130  0.36821  Biso   1.000  Ag
  Ag2      1.0000 0.59870  0.25054  0.61821  Biso   1.000  Ag
  Ag3      1.0000 0.50054  0.65130  0.86821  Biso   1.000  Ag
  Ag4      1.0000 0.09870  0.75054  0.11821  Biso   1.000  Ag
  Ag5      1.0000 0.40130  0.24946  0.61821  Biso   1.000  Ag
  Ag6      1.0000 0.49946  0.84870  0.86821  Biso   1.000  Ag
  Ag7      1.0000 0.90130  0.74946  0.11821  Biso   1.000  Ag
  Ag8      1.0000 0.99946  0.34870  0.36821  Biso   1.000  Ag
  Ag9      1.0000 0.99946  0.84870  0.63179  Biso   1.000  Ag
  Ag10     1.0000 0.90130  0.24946  0.88179  Biso   1.000  Ag
  Ag11     1.0000 0.49946  0.34870  0.13179  Biso   1.000  Ag
  Ag12     1.0000 0.40130  0.74946  0.38179  Biso   1.000  Ag
  Ag13     1.0000 0.09870  0.25054  0.88179  Biso   1.000  Ag
  Ag14     1.0000 0.50054  0.15130  0.13179  Biso   1.000  Ag
  Ag15     1.0000 0.59870  0.75054  0.38179  Biso   1.000  Ag
  Ag16     1.0000 0.00054  0.65130  0.63179  Biso   1.000  Ag
  Cu1      1.0000 0.25000  0.25000  0.25000  Biso   1.000  Cu
  Cu2      1.0000 0.50000  0.50000  0.50000  Biso   1.000  Cu
  Cu3      1.0000 0.75000  0.75000  0.75000  Biso   1.000  Cu
  Cu4      1.0000 0.00000  0.00000  0.00000  Biso   1.000  Cu
  Cu5      1.0000 0.50000  0.00000  0.50000  Biso   1.000  Cu
  Cu6      1.0000 0.25000  0.75000  0.75000  Biso   1.000  Cu
  Cu7      1.0000 0.00000  0.50000  0.00000  Biso   1.000  Cu
  Cu8      1.0000 0.75000  0.25000  0.25000  Biso   1.000  Cu
  Cu9      1.0000 0.10956  0.51798  0.22975  Biso   1.000  Cu
  Cu10     1.0000 0.23202  0.35956  0.47975  Biso   1.000  Cu
  Cu11     1.0000 0.60956  0.01798  0.72975  Biso   1.000  Cu
  Cu12     1.0000 0.73202  0.85956  0.97975  Biso   1.000  Cu
  Cu13     1.0000 0.76798  0.14044  0.47975  Biso   1.000  Cu
  Cu14     1.0000 0.39044  0.48202  0.72975  Biso   1.000  Cu
  Cu15     1.0000 0.26798  0.64044  0.97975  Biso   1.000  Cu
  Cu16     1.0000 0.89044  0.98202  0.22975  Biso   1.000  Cu
  Cu17     1.0000 0.89044  0.48202  0.77025  Biso   1.000  Cu
  Cu18     1.0000 0.26798  0.14044  0.02025  Biso   1.000  Cu
  Cu19     1.0000 0.39044  0.98202  0.27025  Biso   1.000  Cu
  Cu20     1.0000 0.76798  0.64044  0.52025  Biso   1.000  Cu
  Cu21     1.0000 0.73202  0.35956  0.02025  Biso   1.000  Cu
  Cu22     1.0000 0.60956  0.51798  0.27025  Biso   1.000  Cu
  Cu23     1.0000 0.23202  0.85956  0.52025  Biso   1.000  Cu
  Cu24     1.0000 0.10956  0.01798  0.77025  Biso   1.000  Cu
  C1       1.0000 0.15391  0.41235  0.23616  Biso   1.000  C
  C2       1.0000 0.33765  0.40391  0.48616  Biso   1.000  C
  C3       1.0000 0.65391  0.91235  0.73616  Biso   1.000  C
  C4       1.0000 0.83765  0.90391  0.98616  Biso   1.000  C
  C5       1.0000 0.66235  0.09609  0.48616  Biso   1.000  C
  C6       1.0000 0.34609  0.58765  0.73616  Biso   1.000  C
  C7       1.0000 0.16235  0.59609  0.98616  Biso   1.000  C
  C8       1.0000 0.84609  0.08765  0.23616  Biso   1.000  C
  C9       1.0000 0.84609  0.58765  0.76384  Biso   1.000  C
  C10      1.0000 0.16235  0.09609  0.01384  Biso   1.000  C
  C11      1.0000 0.34609  0.08765  0.26384  Biso   1.000  C
  C12      1.0000 0.66235  0.59609  0.51384  Biso   1.000  C
  C13      1.0000 0.83765  0.40391  0.01384  Biso   1.000  C
  C14      1.0000 0.65391  0.41235  0.26384  Biso   1.000  C
  C15      1.0000 0.33765  0.90391  0.51384  Biso   1.000  C
  C16      1.0000 0.15391  0.91235  0.76384  Biso   1.000  C
  N1       1.0000 0.18385  0.34975  0.24096  Biso   1.000  N
  N2       1.0000 0.40025  0.43385  0.49096  Biso   1.000  N
  N3       1.0000 0.68385  0.84975  0.74096  Biso   1.000  N
  N4       1.0000 0.90025  0.93385  0.99096  Biso   1.000  N
  N5       1.0000 0.59975  0.06615  0.49096  Biso   1.000  N
  N6       1.0000 0.31615  0.65025  0.74096  Biso   1.000  N
  N7       1.0000 0.09975  0.56615  0.99096  Biso   1.000  N
  N8       1.0000 0.81615  0.15025  0.24096  Biso   1.000  N
  N9       1.0000 0.81615  0.65025  0.75904  Biso   1.000  N
  N10      1.0000 0.09975  0.06615  0.00904  Biso   1.000  N
  N11      1.0000 0.31615  0.15025  0.25904  Biso   1.000  N
  N12      1.0000 0.59975  0.56615  0.50904  Biso   1.000  N
  N13      1.0000 0.90025  0.43385  0.00904  Biso   1.000  N
  N14      1.0000 0.68385  0.34975  0.25904  Biso   1.000  N
  N15      1.0000 0.40025  0.93385  0.50904  Biso   1.000  N
  N16      1.0000 0.18385  0.84975  0.75904  Biso   1.000  N
  C17      1.0000 0.10078  0.18416  0.33132  Biso   1.000  C
  C18      1.0000 0.56584  0.35078  0.58132  Biso   1.000  C
  C19      1.0000 0.60078  0.68416  0.83132  Biso   1.000  C
  C20      1.0000 0.06584  0.85078  0.08132  Biso   1.000  C
  C21      1.0000 0.43416  0.14922  0.58132  Biso   1.000  C
  C22      1.0000 0.39922  0.81584  0.83132  Biso   1.000  C
  C23      1.0000 0.93416  0.64922  0.08132  Biso   1.000  C
  C24      1.0000 0.89922  0.31584  0.33132  Biso   1.000  C
  C25      1.0000 0.89922  0.81584  0.66868  Biso   1.000  C
  C26      1.0000 0.93416  0.14922  0.91868  Biso   1.000  C
  C27      1.0000 0.39922  0.31584  0.16868  Biso   1.000  C
  C28      1.0000 0.43416  0.64922  0.41868  Biso   1.000  C
  C29      1.0000 0.06584  0.35078  0.91868  Biso   1.000  C
  C30      1.0000 0.60078  0.18416  0.16868  Biso   1.000  C
  C31      1.0000 0.56584  0.85078  0.41868  Biso   1.000  C
  C32      1.0000 0.10078  0.68416  0.66868  Biso   1.000  C
  N17      1.0000 0.15372  0.20465  0.31017  Biso   1.000  N
  N18      1.0000 0.54535  0.40372  0.56017  Biso   1.000  N
  N19      1.0000 0.65372  0.70465  0.81017  Biso   1.000  N
  N20      1.0000 0.04535  0.90372  0.06017  Biso   1.000  N
  N21      1.0000 0.45465  0.09628  0.56017  Biso   1.000  N
  N22      1.0000 0.34628  0.79535  0.81017  Biso   1.000  N
  N23      1.0000 0.95465  0.59628  0.06017  Biso   1.000  N
  N24      1.0000 0.84628  0.29535  0.31017  Biso   1.000  N
  N25      1.0000 0.84628  0.79535  0.68983  Biso   1.000  N
  N26      1.0000 0.95465  0.09628  0.93983  Biso   1.000  N
  N27      1.0000 0.34628  0.29535  0.18983  Biso   1.000  N
  N28      1.0000 0.45465  0.59628  0.43983  Biso   1.000  N
  N29      1.0000 0.04535  0.40372  0.93983  Biso   1.000  N
  N30      1.0000 0.65372  0.20465  0.18983  Biso   1.000  N
  N31      1.0000 0.54535  0.90372  0.43983  Biso   1.000  N
  N32      1.0000 0.15372  0.70465  0.68983  Biso   1.000  N
  C33      1.0000 0.90516  0.11980  0.40896  Biso   1.000  C
  C34      1.0000 0.63020  0.15516  0.65896  Biso   1.000  C
  C35      1.0000 0.40516  0.61980  0.90896  Biso   1.000  C
  C36      1.0000 0.13020  0.65516  0.15896  Biso   1.000  C
  C37      1.0000 0.36980  0.34484  0.65896  Biso   1.000  C
  C38      1.0000 0.59484  0.88020  0.90896  Biso   1.000  C
  C39      1.0000 0.86980  0.84484  0.15896  Biso   1.000  C
  C40      1.0000 0.09484  0.38020  0.40896  Biso   1.000  C
  C41      1.0000 0.09484  0.88020  0.59104  Biso   1.000  C
  C42      1.0000 0.86980  0.34484  0.84104  Biso   1.000  C
  C43      1.0000 0.59484  0.38020  0.09104  Biso   1.000  C
  C44      1.0000 0.36980  0.84484  0.34104  Biso   1.000  C
  C45      1.0000 0.13020  0.15516  0.84104  Biso   1.000  C
  C46      1.0000 0.40516  0.11980  0.09104  Biso   1.000  C
  C47      1.0000 0.63020  0.65516  0.34104  Biso   1.000  C
  C48      1.0000 0.90516  0.61980  0.59104  Biso   1.000  C
  N33      1.0000 0.85287  0.11302  0.43386  Biso   1.000  N
  N34      1.0000 0.63698  0.10287  0.68386  Biso   1.000  N
  N35      1.0000 0.35287  0.61302  0.93386  Biso   1.000  N
  N36      1.0000 0.13698  0.60287  0.18386  Biso   1.000  N
  N37      1.0000 0.36302  0.39713  0.68386  Biso   1.000  N
  N38      1.0000 0.64713  0.88698  0.93386  Biso   1.000  N
  N39      1.0000 0.86302  0.89713  0.18386  Biso   1.000  N
  N40      1.0000 0.14713  0.38698  0.43386  Biso   1.000  N
  N41      1.0000 0.14713  0.88698  0.56614  Biso   1.000  N
  N42      1.0000 0.86302  0.39713  0.81614  Biso   1.000  N
  N43      1.0000 0.64713  0.38698  0.06614  Biso   1.000  N
  N44      1.0000 0.36302  0.89713  0.31614  Biso   1.000  N
  N45      1.0000 0.13698  0.10287  0.81614  Biso   1.000  N
  N46      1.0000 0.35287  0.11302  0.06614  Biso   1.000  N
  N47      1.0000 0.63698  0.60287  0.31614  Biso   1.000  N
  N48      1.0000 0.85287  0.61302  0.56614  Biso   1.000  N
  N49      1.0000 0.13162  0.59097  0.29042  Biso   1.000  N
  N50      1.0000 0.15903  0.38162  0.54042  Biso   1.000  N
  N51      1.0000 0.63162  0.09097  0.79042  Biso   1.000  N
  N52      1.0000 0.65903  0.88162  0.04042  Biso   1.000  N
  N53      1.0000 0.84097  0.11838  0.54042  Biso   1.000  N
  N54      1.0000 0.36838  0.40903  0.79042  Biso   1.000  N
  N55      1.0000 0.34097  0.61838  0.04042  Biso   1.000  N
  N56      1.0000 0.86838  0.90903  0.29042  Biso   1.000  N
  N57      1.0000 0.86838  0.40903  0.70958  Biso   1.000  N
  N58      1.0000 0.34097  0.11838  0.95958  Biso   1.000  N
  N59      1.0000 0.36838  0.90903  0.20958  Biso   1.000  N
  N60      1.0000 0.84097  0.61838  0.45958  Biso   1.000  N
  N61      1.0000 0.65903  0.38162  0.95958  Biso   1.000  N
  N62      1.0000 0.63162  0.59097  0.20958  Biso   1.000  N
  N63      1.0000 0.15903  0.88162  0.45958  Biso   1.000  N
  N64      1.0000 0.13162  0.09097  0.70958  Biso   1.000  N
  C49      1.0000 0.12620  0.67020  0.29106  Biso   1.000  C
  C50      1.0000 0.07980  0.37620  0.54106  Biso   1.000  C
  C51      1.0000 0.62620  0.17020  0.79106  Biso   1.000  C
  C52      1.0000 0.57980  0.87620  0.04106  Biso   1.000  C
  C53      1.0000 0.92020  0.12380  0.54106  Biso   1.000  C
  C54      1.0000 0.37380  0.32980  0.79106  Biso   1.000  C
  C55      1.0000 0.42020  0.62380  0.04106  Biso   1.000  C
  C56      1.0000 0.87380  0.82980  0.29106  Biso   1.000  C
  C57      1.0000 0.87380  0.32980  0.70894  Biso   1.000  C
  C58      1.0000 0.42020  0.12380  0.95894  Biso   1.000  C
  C59      1.0000 0.37380  0.82980  0.20894  Biso   1.000  C
  C60      1.0000 0.92020  0.62380  0.45894  Biso   1.000  C
  C61      1.0000 0.57980  0.37620  0.95894  Biso   1.000  C
  C62      1.0000 0.62620  0.67020  0.20894  Biso   1.000  C
  C63      1.0000 0.07980  0.87620  0.45894  Biso   1.000  C
  C64      1.0000 0.12620  0.17020  0.70894  Biso   1.000  C
  H1       1.0000 0.10770  0.69650  0.26540  Biso   1.000  H
  H2       1.0000 0.05350  0.35770  0.51540  Biso   1.000  H
  H3       1.0000 0.60770  0.19650  0.76540  Biso   1.000  H
  H4       1.0000 0.55350  0.85770  0.01540  Biso   1.000  H
  H5       1.0000 0.94650  0.14230  0.51540  Biso   1.000  H
  H6       1.0000 0.39230  0.30350  0.76540  Biso   1.000  H
  H7       1.0000 0.44650  0.64230  0.01540  Biso   1.000  H
  H8       1.0000 0.89230  0.80350  0.26540  Biso   1.000  H
  H9       1.0000 0.89230  0.30350  0.73460  Biso   1.000  H
  H10      1.0000 0.44650  0.14230  0.98460  Biso   1.000  H
  H11      1.0000 0.39230  0.80350  0.23460  Biso   1.000  H
  H12      1.0000 0.94650  0.64230  0.48460  Biso   1.000  H
  H13      1.0000 0.55350  0.35770  0.98460  Biso   1.000  H
  H14      1.0000 0.60770  0.69650  0.23460  Biso   1.000  H
  H15      1.0000 0.05350  0.85770  0.48460  Biso   1.000  H
  H16      1.0000 0.10770  0.19650  0.73460  Biso   1.000  H
  C65      1.0000 0.14640  0.71640  0.32770  Biso   1.000  C
  C66      1.0000 0.03360  0.39640  0.57770  Biso   1.000  C
  C67      1.0000 0.64640  0.21640  0.82770  Biso   1.000  C
  C68      1.0000 0.53360  0.89640  0.07770  Biso   1.000  C
  C69      1.0000 0.96640  0.10360  0.57770  Biso   1.000  C
  C70      1.0000 0.35360  0.28360  0.82770  Biso   1.000  C
  C71      1.0000 0.46640  0.60360  0.07770  Biso   1.000  C
  C72      1.0000 0.85360  0.78360  0.32770  Biso   1.000  C
  C73      1.0000 0.85360  0.28360  0.67230  Biso   1.000  C
  C74      1.0000 0.46640  0.10360  0.92230  Biso   1.000  C
  C75      1.0000 0.35360  0.78360  0.17230  Biso   1.000  C
  C76      1.0000 0.96640  0.60360  0.42230  Biso   1.000  C
  C77      1.0000 0.53360  0.39640  0.92230  Biso   1.000  C
  C78      1.0000 0.64640  0.71640  0.17230  Biso   1.000  C
  C79      1.0000 0.03360  0.89640  0.42230  Biso   1.000  C
  C80      1.0000 0.14640  0.21640  0.67230  Biso   1.000  C
  H17      1.0000 0.14300  0.77270  0.32640  Biso   1.000  H
  H18      1.0000 0.97730  0.39300  0.57640  Biso   1.000  H
  H19      1.0000 0.64300  0.27270  0.82640  Biso   1.000  H
  H20      1.0000 0.47730  0.89300  0.07640  Biso   1.000  H
  H21      1.0000 0.02270  0.10700  0.57640  Biso   1.000  H
  H22      1.0000 0.35700  0.22730  0.82640  Biso   1.000  H
  H23      1.0000 0.52270  0.60700  0.07640  Biso   1.000  H
  H24      1.0000 0.85700  0.72730  0.32640  Biso   1.000  H
  H25      1.0000 0.85700  0.22730  0.67360  Biso   1.000  H
  H26      1.0000 0.52270  0.10700  0.92360  Biso   1.000  H
  H27      1.0000 0.35700  0.72730  0.17360  Biso   1.000  H
  H28      1.0000 0.02270  0.60700  0.42360  Biso   1.000  H
  H29      1.0000 0.47730  0.39300  0.92360  Biso   1.000  H
  H30      1.0000 0.64300  0.77270  0.17360  Biso   1.000  H
  H31      1.0000 0.97730  0.89300  0.42360  Biso   1.000  H
  H32      1.0000 0.14300  0.27270  0.67360  Biso   1.000  H
  C81      1.0000 0.17110  0.67970  0.36566  Biso   1.000  C
  C82      1.0000 0.07030  0.42110  0.61566  Biso   1.000  C
  C83      1.0000 0.67110  0.17970  0.86566  Biso   1.000  C
  C84      1.0000 0.57030  0.92110  0.11566  Biso   1.000  C
  C85      1.0000 0.92970  0.07890  0.61566  Biso   1.000  C
  C86      1.0000 0.32890  0.32030  0.86566  Biso   1.000  C
  C87      1.0000 0.42970  0.57890  0.11566  Biso   1.000  C
  C88      1.0000 0.82890  0.82030  0.36566  Biso   1.000  C
  C89      1.0000 0.82890  0.32030  0.63434  Biso   1.000  C
  C90      1.0000 0.42970  0.07890  0.88434  Biso   1.000  C
  C91      1.0000 0.32890  0.82030  0.13434  Biso   1.000  C
  C92      1.0000 0.92970  0.57890  0.38434  Biso   1.000  C
  C93      1.0000 0.57030  0.42110  0.88434  Biso   1.000  C
  C94      1.0000 0.67110  0.67970  0.13434  Biso   1.000  C
  C95      1.0000 0.07030  0.92110  0.38434  Biso   1.000  C
  C96      1.0000 0.17110  0.17970  0.63434  Biso   1.000  C
  H33      1.0000 0.18520  0.70990  0.39080  Biso   1.000  H
  H34      1.0000 0.04010  0.43520  0.64080  Biso   1.000  H
  H35      1.0000 0.68520  0.20990  0.89080  Biso   1.000  H
  H36      1.0000 0.54010  0.93520  0.14080  Biso   1.000  H
  H37      1.0000 0.95990  0.06480  0.64080  Biso   1.000  H
  H38      1.0000 0.31480  0.29010  0.89080  Biso   1.000  H
  H39      1.0000 0.45990  0.56480  0.14080  Biso   1.000  H
  H40      1.0000 0.81480  0.79010  0.39080  Biso   1.000  H
  H41      1.0000 0.81480  0.29010  0.60920  Biso   1.000  H
  H42      1.0000 0.45990  0.06480  0.85920  Biso   1.000  H
  H43      1.0000 0.31480  0.79010  0.10920  Biso   1.000  H
  H44      1.0000 0.95990  0.56480  0.35920  Biso   1.000  H
  H45      1.0000 0.54010  0.43520  0.85920  Biso   1.000  H
  H46      1.0000 0.68520  0.70990  0.10920  Biso   1.000  H
  H47      1.0000 0.04010  0.93520  0.35920  Biso   1.000  H
  H48      1.0000 0.18520  0.20990  0.60920  Biso   1.000  H
  C97      1.0000 0.17480  0.59930  0.36599  Biso   1.000  C
  C98      1.0000 0.15070  0.42480  0.61599  Biso   1.000  C
  C99      1.0000 0.67480  0.09930  0.86599  Biso   1.000  C
  C100     1.0000 0.65070  0.92480  0.11599  Biso   1.000  C
  C101     1.0000 0.84930  0.07520  0.61599  Biso   1.000  C
  C102     1.0000 0.32520  0.40070  0.86599  Biso   1.000  C
  C103     1.0000 0.34930  0.57520  0.11599  Biso   1.000  C
  C104     1.0000 0.82520  0.90070  0.36599  Biso   1.000  C
  C105     1.0000 0.82520  0.40070  0.63401  Biso   1.000  C
  C106     1.0000 0.34930  0.07520  0.88401  Biso   1.000  C
  C107     1.0000 0.32520  0.90070  0.13401  Biso   1.000  C
  C108     1.0000 0.84930  0.57520  0.38401  Biso   1.000  C
  C109     1.0000 0.65070  0.42480  0.88401  Biso   1.000  C
  C110     1.0000 0.67480  0.59930  0.13401  Biso   1.000  C
  C111     1.0000 0.15070  0.92480  0.38401  Biso   1.000  C
  C112     1.0000 0.17480  0.09930  0.63401  Biso   1.000  C
  H49      1.0000 0.19030  0.57190  0.39190  Biso   1.000  H
  H50      1.0000 0.17810  0.44030  0.64190  Biso   1.000  H
  H51      1.0000 0.69030  0.07190  0.89190  Biso   1.000  H
  H52      1.0000 0.67810  0.94030  0.14190  Biso   1.000  H
  H53      1.0000 0.82190  0.05970  0.64190  Biso   1.000  H
  H54      1.0000 0.30970  0.42810  0.89190  Biso   1.000  H
  H55      1.0000 0.32190  0.55970  0.14190  Biso   1.000  H
  H56      1.0000 0.80970  0.92810  0.39190  Biso   1.000  H
  H57      1.0000 0.80970  0.42810  0.60810  Biso   1.000  H
  H58      1.0000 0.32190  0.05970  0.85810  Biso   1.000  H
  H59      1.0000 0.30970  0.92810  0.10810  Biso   1.000  H
  H60      1.0000 0.82190  0.55970  0.35810  Biso   1.000  H
  H61      1.0000 0.67810  0.44030  0.85810  Biso   1.000  H
  H62      1.0000 0.69030  0.57190  0.10810  Biso   1.000  H
  H63      1.0000 0.17810  0.94030  0.35810  Biso   1.000  H
  H64      1.0000 0.19030  0.07190  0.60810  Biso   1.000  H
  C113     1.0000 0.15560  0.55670  0.32790  Biso   1.000  C
  C114     1.0000 0.19330  0.40560  0.57790  Biso   1.000  C
  C115     1.0000 0.65560  0.05670  0.82790  Biso   1.000  C
  C116     1.0000 0.69330  0.90560  0.07790  Biso   1.000  C
  C117     1.0000 0.80670  0.09440  0.57790  Biso   1.000  C
  C118     1.0000 0.34440  0.44330  0.82790  Biso   1.000  C
  C119     1.0000 0.30670  0.59440  0.07790  Biso   1.000  C
  C120     1.0000 0.84440  0.94330  0.32790  Biso   1.000  C
  C121     1.0000 0.84440  0.44330  0.67210  Biso   1.000  C
  C122     1.0000 0.30670  0.09440  0.92210  Biso   1.000  C
  C123     1.0000 0.34440  0.94330  0.17210  Biso   1.000  C
  C124     1.0000 0.80670  0.59440  0.42210  Biso   1.000  C
  C125     1.0000 0.69330  0.40560  0.92210  Biso   1.000  C
  C126     1.0000 0.65560  0.55670  0.17210  Biso   1.000  C
  C127     1.0000 0.19330  0.90560  0.42210  Biso   1.000  C
  C128     1.0000 0.15560  0.05670  0.67210  Biso   1.000  C
  H65      1.0000 0.15990  0.50040  0.32870  Biso   1.000  H
  H66      1.0000 0.24960  0.40990  0.57870  Biso   1.000  H
  H67      1.0000 0.65990  0.00040  0.82870  Biso   1.000  H
  H68      1.0000 0.74960  0.90990  0.07870  Biso   1.000  H
  H69      1.0000 0.75040  0.09010  0.57870  Biso   1.000  H
  H70      1.0000 0.34010  0.49960  0.82870  Biso   1.000  H
  H71      1.0000 0.25040  0.59010  0.07870  Biso   1.000  H
  H72      1.0000 0.84010  0.99960  0.32870  Biso   1.000  H
  H73      1.0000 0.84010  0.49960  0.67130  Biso   1.000  H
  H74      1.0000 0.25040  0.09010  0.92130  Biso   1.000  H
  H75      1.0000 0.34010  0.99960  0.17130  Biso   1.000  H
  H76      1.0000 0.75040  0.59010  0.42130  Biso   1.000  H
  H77      1.0000 0.74960  0.40990  0.92130  Biso   1.000  H
  H78      1.0000 0.65990  0.50040  0.17130  Biso   1.000  H
  H79      1.0000 0.24960  0.90990  0.42130  Biso   1.000  H
  H80      1.0000 0.15990  0.00040  0.67130  Biso   1.000  H
  N65      1.0000 0.18255  0.19012  0.20258  Biso   1.000  N
  N66      1.0000 0.55988  0.43255  0.45258  Biso   1.000  N
  N67      1.0000 0.68255  0.69012  0.70258  Biso   1.000  N
  N68      1.0000 0.05988  0.93255  0.95258  Biso   1.000  N
  N69      1.0000 0.44012  0.06745  0.45258  Biso   1.000  N
  N70      1.0000 0.31745  0.80988  0.70258  Biso   1.000  N
  N71      1.0000 0.94012  0.56745  0.95258  Biso   1.000  N
  N72      1.0000 0.81745  0.30988  0.20258  Biso   1.000  N
  N73      1.0000 0.81745  0.80988  0.79742  Biso   1.000  N
  N74      1.0000 0.94012  0.06745  0.04742  Biso   1.000  N
  N75      1.0000 0.31745  0.30988  0.29742  Biso   1.000  N
  N76      1.0000 0.44012  0.56745  0.54742  Biso   1.000  N
  N77      1.0000 0.05988  0.43255  0.04742  Biso   1.000  N
  N78      1.0000 0.68255  0.19012  0.29742  Biso   1.000  N
  N79      1.0000 0.55988  0.93255  0.54742  Biso   1.000  N
  N80      1.0000 0.18255  0.69012  0.79742  Biso   1.000  N
  C129     1.0000 0.10155  0.18895  0.20465  Biso   1.000  C
  C130     1.0000 0.56105  0.35155  0.45465  Biso   1.000  C
  C131     1.0000 0.60155  0.68895  0.70465  Biso   1.000  C
  C132     1.0000 0.06105  0.85155  0.95465  Biso   1.000  C
  C133     1.0000 0.43895  0.14845  0.45465  Biso   1.000  C
  C134     1.0000 0.39845  0.81105  0.70465  Biso   1.000  C
  C135     1.0000 0.93895  0.64845  0.95465  Biso   1.000  C
  C136     1.0000 0.89845  0.31105  0.20465  Biso   1.000  C
  C137     1.0000 0.89845  0.81105  0.79535  Biso   1.000  C
  C138     1.0000 0.93895  0.14845  0.04535  Biso   1.000  C
  C139     1.0000 0.39845  0.31105  0.29535  Biso   1.000  C
  C140     1.0000 0.43895  0.64845  0.54535  Biso   1.000  C
  C141     1.0000 0.06105  0.35155  0.04535  Biso   1.000  C
  C142     1.0000 0.60155  0.18895  0.29535  Biso   1.000  C
  C143     1.0000 0.56105  0.85155  0.54535  Biso   1.000  C
  C144     1.0000 0.10155  0.68895  0.79535  Biso   1.000  C
  H81      1.0000 0.07570  0.21830  0.22710  Biso   1.000  H
  H82      1.0000 0.53170  0.32570  0.47710  Biso   1.000  H
  H83      1.0000 0.57570  0.71830  0.72710  Biso   1.000  H
  H84      1.0000 0.03170  0.82570  0.97710  Biso   1.000  H
  H85      1.0000 0.46830  0.17430  0.47710  Biso   1.000  H
  H86      1.0000 0.42430  0.78170  0.72710  Biso   1.000  H
  H87      1.0000 0.96830  0.67430  0.97710  Biso   1.000  H
  H88      1.0000 0.92430  0.28170  0.22710  Biso   1.000  H
  H89      1.0000 0.92430  0.78170  0.77290  Biso   1.000  H
  H90      1.0000 0.96830  0.17430  0.02290  Biso   1.000  H
  H91      1.0000 0.42430  0.28170  0.27290  Biso   1.000  H
  H92      1.0000 0.46830  0.67430  0.52290  Biso   1.000  H
  H93      1.0000 0.03170  0.32570  0.02290  Biso   1.000  H
  H94      1.0000 0.57570  0.21830  0.27290  Biso   1.000  H
  H95      1.0000 0.53170  0.82570  0.52290  Biso   1.000  H
  H96      1.0000 0.07570  0.71830  0.77290  Biso   1.000  H
  C145     1.0000 0.05469  0.14560  0.17449  Biso   1.000  C
  C146     1.0000 0.60440  0.30469  0.42449  Biso   1.000  C
  C147     1.0000 0.55469  0.64560  0.67449  Biso   1.000  C
  C148     1.0000 0.10440  0.80469  0.92449  Biso   1.000  C
  C149     1.0000 0.39560  0.19531  0.42449  Biso   1.000  C
  C150     1.0000 0.44531  0.85440  0.67449  Biso   1.000  C
  C151     1.0000 0.89560  0.69531  0.92449  Biso   1.000  C
  C152     1.0000 0.94531  0.35440  0.17449  Biso   1.000  C
  C153     1.0000 0.94531  0.85440  0.82551  Biso   1.000  C
  C154     1.0000 0.89560  0.19531  0.07551  Biso   1.000  C
  C155     1.0000 0.44531  0.35440  0.32551  Biso   1.000  C
  C156     1.0000 0.39560  0.69531  0.57551  Biso   1.000  C
  C157     1.0000 0.10440  0.30469  0.07551  Biso   1.000  C
  C158     1.0000 0.55469  0.14560  0.32551  Biso   1.000  C
  C159     1.0000 0.60440  0.80469  0.57551  Biso   1.000  C
  C160     1.0000 0.05469  0.64560  0.82551  Biso   1.000  C
  H97      1.0000 0.99840  0.14540  0.17690  Biso   1.000  H
  H98      1.0000 0.60460  0.24840  0.42690  Biso   1.000  H
  H99      1.0000 0.49840  0.64540  0.67690  Biso   1.000  H
  H100     1.0000 0.10460  0.74840  0.92690  Biso   1.000  H
  H101     1.0000 0.39540  0.25160  0.42690  Biso   1.000  H
  H102     1.0000 0.50160  0.85460  0.67690  Biso   1.000  H
  H103     1.0000 0.89540  0.75160  0.92690  Biso   1.000  H
  H104     1.0000 0.00160  0.35460  0.17690  Biso   1.000  H
  H105     1.0000 0.00160  0.85460  0.82310  Biso   1.000  H
  H106     1.0000 0.89540  0.25160  0.07310  Biso   1.000  H
  H107     1.0000 0.50160  0.35460  0.32310  Biso   1.000  H
  H108     1.0000 0.39540  0.75160  0.57310  Biso   1.000  H
  H109     1.0000 0.10460  0.24840  0.07310  Biso   1.000  H
  H110     1.0000 0.49840  0.14540  0.32310  Biso   1.000  H
  H111     1.0000 0.60460  0.74840  0.57310  Biso   1.000  H
  H112     1.0000 0.99840  0.64540  0.82310  Biso   1.000  H
  C161     1.0000 0.09240  0.10280  0.14091  Biso   1.000  C
  C162     1.0000 0.64720  0.34240  0.39091  Biso   1.000  C
  C163     1.0000 0.59240  0.60280  0.64091  Biso   1.000  C
  C164     1.0000 0.14720  0.84240  0.89091  Biso   1.000  C
  C165     1.0000 0.35280  0.15760  0.39091  Biso   1.000  C
  C166     1.0000 0.40760  0.89720  0.64091  Biso   1.000  C
  C167     1.0000 0.85280  0.65760  0.89091  Biso   1.000  C
  C168     1.0000 0.90760  0.39720  0.14091  Biso   1.000  C
  C169     1.0000 0.90760  0.89720  0.85909  Biso   1.000  C
  C170     1.0000 0.85280  0.15760  0.10909  Biso   1.000  C
  C171     1.0000 0.40760  0.39720  0.35909  Biso   1.000  C
  C172     1.0000 0.35280  0.65760  0.60909  Biso   1.000  C
  C173     1.0000 0.14720  0.34240  0.10909  Biso   1.000  C
  C174     1.0000 0.59240  0.10280  0.35909  Biso   1.000  C
  C175     1.0000 0.64720  0.84240  0.60909  Biso   1.000  C
  C176     1.0000 0.09240  0.60280  0.85909  Biso   1.000  C
  H113     1.0000 0.06210  0.07270  0.12050  Biso   1.000  H
  H114     1.0000 0.67730  0.31210  0.37050  Biso   1.000  H
  H115     1.0000 0.56210  0.57270  0.62050  Biso   1.000  H
  H116     1.0000 0.17730  0.81210  0.87050  Biso   1.000  H
  H117     1.0000 0.32270  0.18790  0.37050  Biso   1.000  H
  H118     1.0000 0.43790  0.92730  0.62050  Biso   1.000  H
  H119     1.0000 0.82270  0.68790  0.87050  Biso   1.000  H
  H120     1.0000 0.93790  0.42730  0.12050  Biso   1.000  H
  H121     1.0000 0.93790  0.92730  0.87950  Biso   1.000  H
  H122     1.0000 0.82270  0.18790  0.12950  Biso   1.000  H
  H123     1.0000 0.43790  0.42730  0.37950  Biso   1.000  H
  H124     1.0000 0.32270  0.68790  0.62950  Biso   1.000  H
  H125     1.0000 0.17730  0.31210  0.12950  Biso   1.000  H
  H126     1.0000 0.56210  0.07270  0.37950  Biso   1.000  H
  H127     1.0000 0.67730  0.81210  0.62950  Biso   1.000  H
  H128     1.0000 0.06210  0.57270  0.87950  Biso   1.000  H
  C177     1.0000 0.17560  0.10532  0.13806  Biso   1.000  C
  C178     1.0000 0.64468  0.42560  0.38806  Biso   1.000  C
  C179     1.0000 0.67560  0.60532  0.63806  Biso   1.000  C
  C180     1.0000 0.14468  0.92560  0.88806  Biso   1.000  C
  C181     1.0000 0.35532  0.07440  0.38806  Biso   1.000  C
  C182     1.0000 0.32440  0.89468  0.63806  Biso   1.000  C
  C183     1.0000 0.85532  0.57440  0.88806  Biso   1.000  C
  C184     1.0000 0.82440  0.39468  0.13806  Biso   1.000  C
  C185     1.0000 0.82440  0.89468  0.86194  Biso   1.000  C
  C186     1.0000 0.85532  0.07440  0.11194  Biso   1.000  C
  C187     1.0000 0.32440  0.39468  0.36194  Biso   1.000  C
  C188     1.0000 0.35532  0.57440  0.61194  Biso   1.000  C
  C189     1.0000 0.14468  0.42560  0.11194  Biso   1.000  C
  C190     1.0000 0.67560  0.10532  0.36194  Biso   1.000  C
  C191     1.0000 0.64468  0.92560  0.61194  Biso   1.000  C
  C192     1.0000 0.17560  0.60532  0.86194  Biso   1.000  C
  H129     1.0000 0.20240  0.07800  0.11520  Biso   1.000  H
  H130     1.0000 0.67200  0.45240  0.36520  Biso   1.000  H
  H131     1.0000 0.70240  0.57800  0.61520  Biso   1.000  H
  H132     1.0000 0.17200  0.95240  0.86520  Biso   1.000  H
  H133     1.0000 0.32800  0.04760  0.36520  Biso   1.000  H
  H134     1.0000 0.29760  0.92200  0.61520  Biso   1.000  H
  H135     1.0000 0.82800  0.54760  0.86520  Biso   1.000  H
  H136     1.0000 0.79760  0.42200  0.11520  Biso   1.000  H
  H137     1.0000 0.79760  0.92200  0.88480  Biso   1.000  H
  H138     1.0000 0.82800  0.04760  0.13480  Biso   1.000  H
  H139     1.0000 0.29760  0.42200  0.38480  Biso   1.000  H
  H140     1.0000 0.32800  0.54760  0.63480  Biso   1.000  H
  H141     1.0000 0.17200  0.45240  0.13480  Biso   1.000  H
  H142     1.0000 0.70240  0.07800  0.38480  Biso   1.000  H
  H143     1.0000 0.67200  0.95240  0.63480  Biso   1.000  H
  H144     1.0000 0.20240  0.57800  0.88480  Biso   1.000  H
  C193     1.0000 0.21869  0.14875  0.16942  Biso   1.000  C
  C194     1.0000 0.60125  0.46869  0.41942  Biso   1.000  C
  C195     1.0000 0.71869  0.64875  0.66942  Biso   1.000  C
  C196     1.0000 0.10125  0.96869  0.91942  Biso   1.000  C
  C197     1.0000 0.39875  0.03131  0.41942  Biso   1.000  C
  C198     1.0000 0.28131  0.85125  0.66942  Biso   1.000  C
  C199     1.0000 0.89875  0.53131  0.91942  Biso   1.000  C
  C200     1.0000 0.78131  0.35125  0.16942  Biso   1.000  C
  C201     1.0000 0.78131  0.85125  0.83058  Biso   1.000  C
  C202     1.0000 0.89875  0.03131  0.08058  Biso   1.000  C
  C203     1.0000 0.28131  0.35125  0.33058  Biso   1.000  C
  C204     1.0000 0.39875  0.53131  0.58058  Biso   1.000  C
  C205     1.0000 0.10125  0.46869  0.08058  Biso   1.000  C
  C206     1.0000 0.71869  0.14875  0.33058  Biso   1.000  C
  C207     1.0000 0.60125  0.96869  0.58058  Biso   1.000  C
  C208     1.0000 0.21869  0.64875  0.83058  Biso   1.000  C
  H145     1.0000 0.27510  0.14940  0.16760  Biso   1.000  H
  H146     1.0000 0.60060  0.52510  0.41760  Biso   1.000  H
  H147     1.0000 0.77510  0.64940  0.66760  Biso   1.000  H
  H148     1.0000 0.10060  0.02510  0.91760  Biso   1.000  H
  H149     1.0000 0.39940  0.97490  0.41760  Biso   1.000  H
  H150     1.0000 0.22490  0.85060  0.66760  Biso   1.000  H
  H151     1.0000 0.89940  0.47490  0.91760  Biso   1.000  H
  H152     1.0000 0.72490  0.35060  0.16760  Biso   1.000  H
  H153     1.0000 0.72490  0.85060  0.83240  Biso   1.000  H
  H154     1.0000 0.89940  0.97490  0.08240  Biso   1.000  H
  H155     1.0000 0.22490  0.35060  0.33240  Biso   1.000  H
  H156     1.0000 0.39940  0.47490  0.58240  Biso   1.000  H
  H157     1.0000 0.10060  0.52510  0.08240  Biso   1.000  H
  H158     1.0000 0.77510  0.14940  0.33240  Biso   1.000  H
  H159     1.0000 0.60060  0.02510  0.58240  Biso   1.000  H
  H160     1.0000 0.27510  0.64940  0.83240  Biso   1.000  H
  N81      1.0000 0.98400  0.53687  0.23318  Biso   1.000  N
  N82      1.0000 0.21313  0.23400  0.48318  Biso   1.000  N
  N83      1.0000 0.48400  0.03687  0.73318  Biso   1.000  N
  N84      1.0000 0.71313  0.73400  0.98318  Biso   1.000  N
  N85      1.0000 0.78687  0.26600  0.48318  Biso   1.000  N
  N86      1.0000 0.51600  0.46313  0.73318  Biso   1.000  N
  N87      1.0000 0.28687  0.76600  0.98318  Biso   1.000  N
  N88      1.0000 0.01600  0.96313  0.23318  Biso   1.000  N
  N89      1.0000 0.01600  0.46313  0.76682  Biso   1.000  N
  N90      1.0000 0.28687  0.26600  0.01682  Biso   1.000  N
  N91      1.0000 0.51600  0.96313  0.26682  Biso   1.000  N
  N92      1.0000 0.78687  0.76600  0.51682  Biso   1.000  N
  N93      1.0000 0.71313  0.23400  0.01682  Biso   1.000  N
  N94      1.0000 0.48400  0.53687  0.26682  Biso   1.000  N
  N95      1.0000 0.21313  0.73400  0.51682  Biso   1.000  N
  N96      1.0000 0.98400  0.03687  0.76682  Biso   1.000  N
  C209     1.0000 0.94029  0.48836  0.25975  Biso   1.000  C
  C210     1.0000 0.26164  0.19029  0.50975  Biso   1.000  C
  C211     1.0000 0.44029  0.98836  0.75975  Biso   1.000  C
  C212     1.0000 0.76164  0.69029  0.00975  Biso   1.000  C
  C213     1.0000 0.73836  0.30971  0.50975  Biso   1.000  C
  C214     1.0000 0.55971  0.51164  0.75975  Biso   1.000  C
  C215     1.0000 0.23836  0.80971  0.00975  Biso   1.000  C
  C216     1.0000 0.05971  0.01164  0.25975  Biso   1.000  C
  C217     1.0000 0.05971  0.51164  0.74025  Biso   1.000  C
  C218     1.0000 0.23836  0.30971  0.99025  Biso   1.000  C
  C219     1.0000 0.55971  0.01164  0.24025  Biso   1.000  C
  C220     1.0000 0.73836  0.80971  0.49025  Biso   1.000  C
  C221     1.0000 0.76164  0.19029  0.99025  Biso   1.000  C
  C222     1.0000 0.44029  0.48836  0.24025  Biso   1.000  C
  C223     1.0000 0.26164  0.69029  0.49025  Biso   1.000  C
  C224     1.0000 0.94029  0.98836  0.74025  Biso   1.000  C
  H161     1.0000 0.96590  0.44390  0.27280  Biso   1.000  H
  H162     1.0000 0.30610  0.21590  0.52280  Biso   1.000  H
  H163     1.0000 0.46590  0.94390  0.77280  Biso   1.000  H
  H164     1.0000 0.80610  0.71590  0.02280  Biso   1.000  H
  H165     1.0000 0.69390  0.28410  0.52280  Biso   1.000  H
  H166     1.0000 0.53410  0.55610  0.77280  Biso   1.000  H
  H167     1.0000 0.19390  0.78410  0.02280  Biso   1.000  H
  H168     1.0000 0.03410  0.05610  0.27280  Biso   1.000  H
  H169     1.0000 0.03410  0.55610  0.72720  Biso   1.000  H
  H170     1.0000 0.19390  0.28410  0.97720  Biso   1.000  H
  H171     1.0000 0.53410  0.05610  0.22720  Biso   1.000  H
  H172     1.0000 0.69390  0.78410  0.47720  Biso   1.000  H
  H173     1.0000 0.80610  0.21590  0.97720  Biso   1.000  H
  H174     1.0000 0.46590  0.44390  0.22720  Biso   1.000  H
  H175     1.0000 0.30610  0.71590  0.47720  Biso   1.000  H
  H176     1.0000 0.96590  0.94390  0.72720  Biso   1.000  H
  C225     1.0000 0.82220  0.56630  0.25109  Biso   1.000  C
  C226     1.0000 0.18370  0.07220  0.50109  Biso   1.000  C
  C227     1.0000 0.32220  0.06630  0.75109  Biso   1.000  C
  C228     1.0000 0.68370  0.57220  0.00109  Biso   1.000  C
  C229     1.0000 0.81630  0.42780  0.50109  Biso   1.000  C
  C230     1.0000 0.67780  0.43370  0.75109  Biso   1.000  C
  C231     1.0000 0.31630  0.92780  0.00109  Biso   1.000  C
  C232     1.0000 0.17780  0.93370  0.25109  Biso   1.000  C
  C233     1.0000 0.17780  0.43370  0.74891  Biso   1.000  C
  C234     1.0000 0.31630  0.42780  0.99891  Biso   1.000  C
  C235     1.0000 0.67780  0.93370  0.24891  Biso   1.000  C
  C236     1.0000 0.81630  0.92780  0.49891  Biso   1.000  C
  C237     1.0000 0.68370  0.07220  0.99891  Biso   1.000  C
  C238     1.0000 0.32220  0.56630  0.24891  Biso   1.000  C
  C239     1.0000 0.18370  0.57220  0.49891  Biso   1.000  C
  C240     1.0000 0.82220  0.06630  0.74891  Biso   1.000  C
  H177     1.0000 0.76790  0.57650  0.25750  Biso   1.000  H
  H178     1.0000 0.17350  0.01790  0.50750  Biso   1.000  H
  H179     1.0000 0.26790  0.07650  0.75750  Biso   1.000  H
  H180     1.0000 0.67350  0.51790  0.00750  Biso   1.000  H
  H181     1.0000 0.82650  0.48210  0.50750  Biso   1.000  H
  H182     1.0000 0.73210  0.42350  0.75750  Biso   1.000  H
  H183     1.0000 0.32650  0.98210  0.00750  Biso   1.000  H
  H184     1.0000 0.23210  0.92350  0.25750  Biso   1.000  H
  H185     1.0000 0.23210  0.42350  0.74250  Biso   1.000  H
  H186     1.0000 0.32650  0.48210  0.99250  Biso   1.000  H
  H187     1.0000 0.73210  0.92350  0.24250  Biso   1.000  H
  H188     1.0000 0.82650  0.98210  0.49250  Biso   1.000  H
  H189     1.0000 0.67350  0.01790  0.99250  Biso   1.000  H
  H190     1.0000 0.26790  0.57650  0.24250  Biso   1.000  H
  H191     1.0000 0.17350  0.51790  0.49250  Biso   1.000  H
  H192     1.0000 0.76790  0.07650  0.74250  Biso   1.000  H
  C241     1.0000 0.86000  0.50080  0.26863  Biso   1.000  C
  C242     1.0000 0.24920  0.11000  0.51863  Biso   1.000  C
  C243     1.0000 0.36000  0.00080  0.76863  Biso   1.000  C
  C244     1.0000 0.74920  0.61000  0.01863  Biso   1.000  C
  C245     1.0000 0.75080  0.39000  0.51863  Biso   1.000  C
  C246     1.0000 0.64000  0.49920  0.76863  Biso   1.000  C
  C247     1.0000 0.25080  0.89000  0.01863  Biso   1.000  C
  C248     1.0000 0.14000  0.99920  0.26863  Biso   1.000  C
  C249     1.0000 0.14000  0.49920  0.73137  Biso   1.000  C
  C250     1.0000 0.25080  0.39000  0.98137  Biso   1.000  C
  C251     1.0000 0.64000  0.99920  0.23137  Biso   1.000  C
  C252     1.0000 0.75080  0.89000  0.48137  Biso   1.000  C
  C253     1.0000 0.74920  0.11000  0.98137  Biso   1.000  C
  C254     1.0000 0.36000  0.50080  0.23137  Biso   1.000  C
  C255     1.0000 0.24920  0.61000  0.48137  Biso   1.000  C
  C256     1.0000 0.86000  0.00080  0.73137  Biso   1.000  C
  H193     1.0000 0.83160  0.46460  0.28660  Biso   1.000  H
  H194     1.0000 0.28540  0.08160  0.53660  Biso   1.000  H
  H195     1.0000 0.33160  0.96460  0.78660  Biso   1.000  H
  H196     1.0000 0.78540  0.58160  0.03660  Biso   1.000  H
  H197     1.0000 0.71460  0.41840  0.53660  Biso   1.000  H
  H198     1.0000 0.66840  0.53540  0.78660  Biso   1.000  H
  H199     1.0000 0.21460  0.91840  0.03660  Biso   1.000  H
  H200     1.0000 0.16840  0.03540  0.28660  Biso   1.000  H
  H201     1.0000 0.16840  0.53540  0.71340  Biso   1.000  H
  H202     1.0000 0.21460  0.41840  0.96340  Biso   1.000  H
  H203     1.0000 0.66840  0.03540  0.21340  Biso   1.000  H
  H204     1.0000 0.71460  0.91840  0.46340  Biso   1.000  H
  H205     1.0000 0.78540  0.08160  0.96340  Biso   1.000  H
  H206     1.0000 0.33160  0.46460  0.21340  Biso   1.000  H
  H207     1.0000 0.28540  0.58160  0.46340  Biso   1.000  H
  H208     1.0000 0.83160  0.96460  0.71340  Biso   1.000  H
  C257     1.0000 0.86540  0.61780  0.22347  Biso   1.000  C
  C258     1.0000 0.13220  0.11540  0.47347  Biso   1.000  C
  C259     1.0000 0.36540  0.11780  0.72347  Biso   1.000  C
  C260     1.0000 0.63220  0.61540  0.97347  Biso   1.000  C
  C261     1.0000 0.86780  0.38460  0.47347  Biso   1.000  C
  C262     1.0000 0.63460  0.38220  0.72347  Biso   1.000  C
  C263     1.0000 0.36780  0.88460  0.97347  Biso   1.000  C
  C264     1.0000 0.13460  0.88220  0.22347  Biso   1.000  C
  C265     1.0000 0.13460  0.38220  0.77653  Biso   1.000  C
  C266     1.0000 0.36780  0.38460  0.02653  Biso   1.000  C
  C267     1.0000 0.63460  0.88220  0.27653  Biso   1.000  C
  C268     1.0000 0.86780  0.88460  0.52653  Biso   1.000  C
  C269     1.0000 0.63220  0.11540  0.02653  Biso   1.000  C
  C270     1.0000 0.36540  0.61780  0.27653  Biso   1.000  C
  C271     1.0000 0.13220  0.61540  0.52653  Biso   1.000  C
  C272     1.0000 0.86540  0.11780  0.77653  Biso   1.000  C
  H209     1.0000 0.84110  0.66350  0.21100  Biso   1.000  H
  H210     1.0000 0.08650  0.09110  0.46100  Biso   1.000  H
  H211     1.0000 0.34110  0.16350  0.71100  Biso   1.000  H
  H212     1.0000 0.58650  0.59110  0.96100  Biso   1.000  H
  H213     1.0000 0.91350  0.40890  0.46100  Biso   1.000  H
  H214     1.0000 0.65890  0.33650  0.71100  Biso   1.000  H
  H215     1.0000 0.41350  0.90890  0.96100  Biso   1.000  H
  H216     1.0000 0.15890  0.83650  0.21100  Biso   1.000  H
  H217     1.0000 0.15890  0.33650  0.78900  Biso   1.000  H
  H218     1.0000 0.41350  0.40890  0.03900  Biso   1.000  H
  H219     1.0000 0.65890  0.83650  0.28900  Biso   1.000  H
  H220     1.0000 0.91350  0.90890  0.53900  Biso   1.000  H
  H221     1.0000 0.58650  0.09110  0.03900  Biso   1.000  H
  H222     1.0000 0.34110  0.66350  0.28900  Biso   1.000  H
  H223     1.0000 0.08650  0.59110  0.53900  Biso   1.000  H
  H224     1.0000 0.84110  0.16350  0.78900  Biso   1.000  H
  C273     1.0000 0.94556  0.59960  0.21490  Biso   1.000  C
  C274     1.0000 0.15040  0.19556  0.46490  Biso   1.000  C
  C275     1.0000 0.44556  0.09960  0.71490  Biso   1.000  C
  C276     1.0000 0.65040  0.69556  0.96490  Biso   1.000  C
  C277     1.0000 0.84960  0.30444  0.46490  Biso   1.000  C
  C278     1.0000 0.55444  0.40040  0.71490  Biso   1.000  C
  C279     1.0000 0.34960  0.80444  0.96490  Biso   1.000  C
  C280     1.0000 0.05444  0.90040  0.21490  Biso   1.000  C
  C281     1.0000 0.05444  0.40040  0.78510  Biso   1.000  C
  C282     1.0000 0.34960  0.30444  0.03510  Biso   1.000  C
  C283     1.0000 0.55444  0.90040  0.28510  Biso   1.000  C
  C284     1.0000 0.84960  0.80444  0.53510  Biso   1.000  C
  C285     1.0000 0.65040  0.19556  0.03510  Biso   1.000  C
  C286     1.0000 0.44556  0.59960  0.28510  Biso   1.000  C
  C287     1.0000 0.15040  0.69556  0.53510  Biso   1.000  C
  C288     1.0000 0.94556  0.09960  0.78510  Biso   1.000  C
  H225     1.0000 0.97420  0.63300  0.19530  Biso   1.000  H
  H226     1.0000 0.11700  0.22420  0.44530  Biso   1.000  H
  H227     1.0000 0.47420  0.13300  0.69530  Biso   1.000  H
  H228     1.0000 0.61700  0.72420  0.94530  Biso   1.000  H
  H229     1.0000 0.88300  0.27580  0.44530  Biso   1.000  H
  H230     1.0000 0.52580  0.36700  0.69530  Biso   1.000  H
  H231     1.0000 0.38300  0.77580  0.94530  Biso   1.000  H
  H232     1.0000 0.02580  0.86700  0.19530  Biso   1.000  H
  H233     1.0000 0.02580  0.36700  0.80470  Biso   1.000  H
  H234     1.0000 0.38300  0.27580  0.05470  Biso   1.000  H
  H235     1.0000 0.52580  0.86700  0.30470  Biso   1.000  H
  H236     1.0000 0.88300  0.77580  0.55470  Biso   1.000  H
  H237     1.0000 0.61700  0.22420  0.05470  Biso   1.000  H
  H238     1.0000 0.47420  0.63300  0.30470  Biso   1.000  H
  H239     1.0000 0.11700  0.72420  0.55470  Biso   1.000  H
  H240     1.0000 0.97420  0.13300  0.80470  Biso   1.000  H
