data_image0
_cell_length_a       26.4064
_cell_length_b       14.4412
_cell_length_c       25.3777
_cell_angle_alpha    90
_cell_angle_beta     113.333
_cell_angle_gamma    90

_symmetry_space_group_name_H-M    "P 1"
_symmetry_int_tables_number       1

loop_
  _symmetry_equiv_pos_as_xyz
  'x, y, z'

loop_
  _atom_site_label
  _atom_site_occupancy
  _atom_site_fract_x
  _atom_site_fract_y
  _atom_site_fract_z
  _atom_site_thermal_displace_type
  _atom_site_B_iso_or_equiv
  _atom_site_type_symbol
  Eu1      1.0000 0.33476  0.58432  0.30170  Biso   1.000  Eu
  Eu2      1.0000 0.83476  0.08432  0.30170  Biso   1.000  Eu
  Eu3      1.0000 0.66524  0.58432  0.19830  Biso   1.000  Eu
  Eu4      1.0000 0.16524  0.08432  0.19830  Biso   1.000  Eu
  Eu5      1.0000 0.66524  0.41568  0.69830  Biso   1.000  Eu
  Eu6      1.0000 0.16524  0.91568  0.69830  Biso   1.000  Eu
  Eu7      1.0000 0.33476  0.41568  0.80170  Biso   1.000  Eu
  Eu8      1.0000 0.83476  0.91568  0.80170  Biso   1.000  Eu
  Eu9      1.0000 0.28645  0.36395  0.18990  Biso   1.000  Eu
  Eu10     1.0000 0.78645  0.86395  0.18990  Biso   1.000  Eu
  Eu11     1.0000 0.71355  0.36395  0.31010  Biso   1.000  Eu
  Eu12     1.0000 0.21355  0.86395  0.31010  Biso   1.000  Eu
  Eu13     1.0000 0.71355  0.63605  0.81010  Biso   1.000  Eu
  Eu14     1.0000 0.21355  0.13605  0.81010  Biso   1.000  Eu
  Eu15     1.0000 0.28645  0.63605  0.68990  Biso   1.000  Eu
  Eu16     1.0000 0.78645  0.13605  0.68990  Biso   1.000  Eu
  Cu1      1.0000 0.55983  0.97361  0.42187  Biso   1.000  Cu
  Cu2      1.0000 0.05983  0.47361  0.42187  Biso   1.000  Cu
  Cu3      1.0000 0.44017  0.97361  0.07813  Biso   1.000  Cu
  Cu4      1.0000 0.94017  0.47361  0.07813  Biso   1.000  Cu
  Cu5      1.0000 0.44017  0.02639  0.57813  Biso   1.000  Cu
  Cu6      1.0000 0.94017  0.52639  0.57813  Biso   1.000  Cu
  Cu7      1.0000 0.55983  0.02639  0.92187  Biso   1.000  Cu
  Cu8      1.0000 0.05983  0.52639  0.92187  Biso   1.000  Cu
  N1       1.0000 0.51340  0.08890  0.40140  Biso   1.000  N
  N2       1.0000 0.01340  0.58890  0.40140  Biso   1.000  N
  N3       1.0000 0.48660  0.08890  0.09860  Biso   1.000  N
  N4       1.0000 0.98660  0.58890  0.09860  Biso   1.000  N
  N5       1.0000 0.48660  0.91110  0.59860  Biso   1.000  N
  N6       1.0000 0.98660  0.41110  0.59860  Biso   1.000  N
  N7       1.0000 0.51340  0.91110  0.90140  Biso   1.000  N
  N8       1.0000 0.01340  0.41110  0.90140  Biso   1.000  N
  O1       1.0000 0.24410  0.63270  0.28320  Biso   1.000  O
  O2       1.0000 0.74410  0.13270  0.28320  Biso   1.000  O
  O3       1.0000 0.75590  0.63270  0.21680  Biso   1.000  O
  O4       1.0000 0.25590  0.13270  0.21680  Biso   1.000  O
  O5       1.0000 0.75590  0.36730  0.71680  Biso   1.000  O
  O6       1.0000 0.25590  0.86730  0.71680  Biso   1.000  O
  O7       1.0000 0.24410  0.36730  0.78320  Biso   1.000  O
  O8       1.0000 0.74410  0.86730  0.78320  Biso   1.000  O
  O9       1.0000 0.37030  0.43600  0.26610  Biso   1.000  O
  O10      1.0000 0.87030  0.93600  0.26610  Biso   1.000  O
  O11      1.0000 0.62970  0.43600  0.23390  Biso   1.000  O
  O12      1.0000 0.12970  0.93600  0.23390  Biso   1.000  O
  O13      1.0000 0.62970  0.56400  0.73390  Biso   1.000  O
  O14      1.0000 0.12970  0.06400  0.73390  Biso   1.000  O
  O15      1.0000 0.37030  0.56400  0.76610  Biso   1.000  O
  O16      1.0000 0.87030  0.06400  0.76610  Biso   1.000  O
  O17      1.0000 0.23590  0.48010  0.11820  Biso   1.000  O
  O18      1.0000 0.73590  0.98010  0.11820  Biso   1.000  O
  O19      1.0000 0.76410  0.48010  0.38180  Biso   1.000  O
  O20      1.0000 0.26410  0.98010  0.38180  Biso   1.000  O
  O21      1.0000 0.76410  0.51990  0.88180  Biso   1.000  O
  O22      1.0000 0.26410  0.01990  0.88180  Biso   1.000  O
  O23      1.0000 0.23590  0.51990  0.61820  Biso   1.000  O
  O24      1.0000 0.73590  0.01990  0.61820  Biso   1.000  O
  O25      1.0000 0.41460  0.56610  0.27380  Biso   1.000  O
  O26      1.0000 0.91460  0.06610  0.27380  Biso   1.000  O
  O27      1.0000 0.58540  0.56610  0.22620  Biso   1.000  O
  O28      1.0000 0.08540  0.06610  0.22620  Biso   1.000  O
  O29      1.0000 0.58540  0.43390  0.72620  Biso   1.000  O
  O30      1.0000 0.08540  0.93390  0.72620  Biso   1.000  O
  O31      1.0000 0.41460  0.43390  0.77380  Biso   1.000  O
  O32      1.0000 0.91460  0.93390  0.77380  Biso   1.000  O
  O33      1.0000 0.28230  0.54770  0.20110  Biso   1.000  O
  O34      1.0000 0.78230  0.04770  0.20110  Biso   1.000  O
  O35      1.0000 0.71770  0.54770  0.29890  Biso   1.000  O
  O36      1.0000 0.21770  0.04770  0.29890  Biso   1.000  O
  O37      1.0000 0.71770  0.45230  0.79890  Biso   1.000  O
  O38      1.0000 0.21770  0.95230  0.79890  Biso   1.000  O
  O39      1.0000 0.28230  0.45230  0.70110  Biso   1.000  O
  O40      1.0000 0.78230  0.95230  0.70110  Biso   1.000  O
  C1       1.0000 0.65740  0.92990  0.40780  Biso   1.000  C
  C2       1.0000 0.15740  0.42990  0.40780  Biso   1.000  C
  C3       1.0000 0.34260  0.92990  0.09220  Biso   1.000  C
  C4       1.0000 0.84260  0.42990  0.09220  Biso   1.000  C
  C5       1.0000 0.34260  0.07010  0.59220  Biso   1.000  C
  C6       1.0000 0.84260  0.57010  0.59220  Biso   1.000  C
  C7       1.0000 0.65740  0.07010  0.90780  Biso   1.000  C
  C8       1.0000 0.15740  0.57010  0.90780  Biso   1.000  C
  C9       1.0000 0.45710  0.33300  0.25550  Biso   1.000  C
  C10      1.0000 0.95710  0.83300  0.25550  Biso   1.000  C
  C11      1.0000 0.54290  0.33300  0.24450  Biso   1.000  C
  C12      1.0000 0.04290  0.83300  0.24450  Biso   1.000  C
  C13      1.0000 0.54290  0.66700  0.74450  Biso   1.000  C
  C14      1.0000 0.04290  0.16700  0.74450  Biso   1.000  C
  C15      1.0000 0.45710  0.66700  0.75550  Biso   1.000  C
  C16      1.0000 0.95710  0.16700  0.75550  Biso   1.000  C
  H1       1.0000 0.42810  0.30030  0.25880  Biso   1.000  H
  H2       1.0000 0.92810  0.80030  0.25880  Biso   1.000  H
  H3       1.0000 0.57190  0.30030  0.24120  Biso   1.000  H
  H4       1.0000 0.07190  0.80030  0.24120  Biso   1.000  H
  H5       1.0000 0.57190  0.69970  0.74120  Biso   1.000  H
  H6       1.0000 0.07190  0.19970  0.74120  Biso   1.000  H
  H7       1.0000 0.42810  0.69970  0.75880  Biso   1.000  H
  H8       1.0000 0.92810  0.19970  0.75880  Biso   1.000  H
  C17      1.0000 0.50000  0.47740  0.25000  Biso   1.000  C
  C18      1.0000 0.00000  0.97740  0.25000  Biso   1.000  C
  C19      1.0000 0.50000  0.52260  0.75000  Biso   1.000  C
  C20      1.0000 0.00000  0.02260  0.75000  Biso   1.000  C
  H9       1.0000 0.50000  0.54180  0.25000  Biso   1.000  H
  H10      1.0000 0.00000  0.04180  0.25000  Biso   1.000  H
  H11      1.0000 0.50000  0.45820  0.75000  Biso   1.000  H
  H12      1.0000 0.00000  0.95820  0.75000  Biso   1.000  H
  C21      1.0000 0.50000  0.28720  0.25000  Biso   1.000  C
  C22      1.0000 0.00000  0.78720  0.25000  Biso   1.000  C
  C23      1.0000 0.50000  0.71280  0.75000  Biso   1.000  C
  C24      1.0000 0.00000  0.21280  0.75000  Biso   1.000  C
  H13      1.0000 0.50000  0.22280  0.25000  Biso   1.000  H
  H14      1.0000 0.00000  0.72280  0.25000  Biso   1.000  H
  H15      1.0000 0.50000  0.77720  0.75000  Biso   1.000  H
  H16      1.0000 0.00000  0.27720  0.75000  Biso   1.000  H
  C25      1.0000 0.46430  0.08160  0.40640  Biso   1.000  C
  C26      1.0000 0.96430  0.58160  0.40640  Biso   1.000  C
  C27      1.0000 0.53570  0.08160  0.09360  Biso   1.000  C
  C28      1.0000 0.03570  0.58160  0.09360  Biso   1.000  C
  C29      1.0000 0.53570  0.91840  0.59360  Biso   1.000  C
  C30      1.0000 0.03570  0.41840  0.59360  Biso   1.000  C
  C31      1.0000 0.46430  0.91840  0.90640  Biso   1.000  C
  C32      1.0000 0.96430  0.41840  0.90640  Biso   1.000  C
  C33      1.0000 0.45740  0.42880  0.25610  Biso   1.000  C
  C34      1.0000 0.95740  0.92880  0.25610  Biso   1.000  C
  C35      1.0000 0.54260  0.42880  0.24390  Biso   1.000  C
  C36      1.0000 0.04260  0.92880  0.24390  Biso   1.000  C
  C37      1.0000 0.54260  0.57120  0.74390  Biso   1.000  C
  C38      1.0000 0.04260  0.07120  0.74390  Biso   1.000  C
  C39      1.0000 0.45740  0.57120  0.75610  Biso   1.000  C
  C40      1.0000 0.95740  0.07120  0.75610  Biso   1.000  C
  C41      1.0000 0.24990  0.55220  0.14780  Biso   1.000  C
  C42      1.0000 0.74990  0.05220  0.14780  Biso   1.000  C
  C43      1.0000 0.75010  0.55220  0.35220  Biso   1.000  C
  C44      1.0000 0.25010  0.05220  0.35220  Biso   1.000  C
  C45      1.0000 0.75010  0.44780  0.85220  Biso   1.000  C
  C46      1.0000 0.25010  0.94780  0.85220  Biso   1.000  C
  C47      1.0000 0.24990  0.44780  0.64780  Biso   1.000  C
  C48      1.0000 0.74990  0.94780  0.64780  Biso   1.000  C
  C49      1.0000 0.41190  0.48020  0.26580  Biso   1.000  C
  C50      1.0000 0.91190  0.98020  0.26580  Biso   1.000  C
  C51      1.0000 0.58810  0.48020  0.23420  Biso   1.000  C
  C52      1.0000 0.08810  0.98020  0.23420  Biso   1.000  C
  C53      1.0000 0.58810  0.51980  0.73420  Biso   1.000  C
  C54      1.0000 0.08810  0.01980  0.73420  Biso   1.000  C
  C55      1.0000 0.41190  0.51980  0.76580  Biso   1.000  C
  C56      1.0000 0.91190  0.01980  0.76580  Biso   1.000  C
  N9       1.0000 0.49780  0.93240  0.44310  Biso   1.000  N
  N10      1.0000 0.99780  0.43240  0.44310  Biso   1.000  N
  N11      1.0000 0.50220  0.93240  0.05690  Biso   1.000  N
  N12      1.0000 0.00220  0.43240  0.05690  Biso   1.000  N
  N13      1.0000 0.50220  0.06760  0.55690  Biso   1.000  N
  N14      1.0000 0.00220  0.56760  0.55690  Biso   1.000  N
  N15      1.0000 0.49780  0.06760  0.94310  Biso   1.000  N
  N16      1.0000 0.99780  0.56760  0.94310  Biso   1.000  N
  N17      1.0000 0.56970  0.85970  0.37620  Biso   1.000  N
  N18      1.0000 0.06970  0.35970  0.37620  Biso   1.000  N
  N19      1.0000 0.43030  0.85970  0.12380  Biso   1.000  N
  N20      1.0000 0.93030  0.35970  0.12380  Biso   1.000  N
  N21      1.0000 0.43030  0.14030  0.62380  Biso   1.000  N
  N22      1.0000 0.93030  0.64030  0.62380  Biso   1.000  N
  N23      1.0000 0.56970  0.14030  0.87620  Biso   1.000  N
  N24      1.0000 0.06970  0.64030  0.87620  Biso   1.000  N
  C57      1.0000 0.67170  0.06180  0.46600  Biso   1.000  C
  C58      1.0000 0.17170  0.56180  0.46600  Biso   1.000  C
  C59      1.0000 0.32830  0.06180  0.03400  Biso   1.000  C
  C60      1.0000 0.82830  0.56180  0.03400  Biso   1.000  C
  C61      1.0000 0.32830  0.93820  0.53400  Biso   1.000  C
  C62      1.0000 0.82830  0.43820  0.53400  Biso   1.000  C
  C63      1.0000 0.67170  0.93820  0.96600  Biso   1.000  C
  C64      1.0000 0.17170  0.43820  0.96600  Biso   1.000  C
  H17      1.0000 0.65970  0.10180  0.48740  Biso   1.000  H
  H18      1.0000 0.15970  0.60180  0.48740  Biso   1.000  H
  H19      1.0000 0.34030  0.10180  0.01260  Biso   1.000  H
  H20      1.0000 0.84030  0.60180  0.01260  Biso   1.000  H
  H21      1.0000 0.34030  0.89820  0.51260  Biso   1.000  H
  H22      1.0000 0.84030  0.39820  0.51260  Biso   1.000  H
  H23      1.0000 0.65970  0.89820  0.98740  Biso   1.000  H
  H24      1.0000 0.15970  0.39820  0.98740  Biso   1.000  H
  N25      1.0000 0.63900  0.98890  0.43840  Biso   1.000  N
  N26      1.0000 0.13900  0.48890  0.43840  Biso   1.000  N
  N27      1.0000 0.36100  0.98890  0.06160  Biso   1.000  N
  N28      1.0000 0.86100  0.48890  0.06160  Biso   1.000  N
  N29      1.0000 0.36100  0.01110  0.56160  Biso   1.000  N
  N30      1.0000 0.86100  0.51110  0.56160  Biso   1.000  N
  N31      1.0000 0.63900  0.01110  0.93840  Biso   1.000  N
  N32      1.0000 0.13900  0.51110  0.93840  Biso   1.000  N
  C65      1.0000 0.74060  0.02080  0.43140  Biso   1.000  C
  C66      1.0000 0.24060  0.52080  0.43140  Biso   1.000  C
  C67      1.0000 0.25940  0.02080  0.06860  Biso   1.000  C
  C68      1.0000 0.75940  0.52080  0.06860  Biso   1.000  C
  C69      1.0000 0.25940  0.97920  0.56860  Biso   1.000  C
  C70      1.0000 0.75940  0.47920  0.56860  Biso   1.000  C
  C71      1.0000 0.74060  0.97920  0.93140  Biso   1.000  C
  C72      1.0000 0.24060  0.47920  0.93140  Biso   1.000  C
  H25      1.0000 0.77410  0.03200  0.42840  Biso   1.000  H
  H26      1.0000 0.27410  0.53200  0.42840  Biso   1.000  H
  H27      1.0000 0.22590  0.03200  0.07160  Biso   1.000  H
  H28      1.0000 0.72590  0.53200  0.07160  Biso   1.000  H
  H29      1.0000 0.22590  0.96800  0.57160  Biso   1.000  H
  H30      1.0000 0.72590  0.46800  0.57160  Biso   1.000  H
  H31      1.0000 0.77410  0.96800  0.92840  Biso   1.000  H
  H32      1.0000 0.27410  0.46800  0.92840  Biso   1.000  H
  C73      1.0000 0.72170  0.07760  0.46320  Biso   1.000  C
  C74      1.0000 0.22170  0.57760  0.46320  Biso   1.000  C
  C75      1.0000 0.27830  0.07760  0.03680  Biso   1.000  C
  C76      1.0000 0.77830  0.57760  0.03680  Biso   1.000  C
  C77      1.0000 0.27830  0.92240  0.53680  Biso   1.000  C
  C78      1.0000 0.77830  0.42240  0.53680  Biso   1.000  C
  C79      1.0000 0.72170  0.92240  0.96320  Biso   1.000  C
  C80      1.0000 0.22170  0.42240  0.96320  Biso   1.000  C
  H33      1.0000 0.74320  0.12730  0.48300  Biso   1.000  H
  H34      1.0000 0.24320  0.62730  0.48300  Biso   1.000  H
  H35      1.0000 0.25680  0.12730  0.01700  Biso   1.000  H
  H36      1.0000 0.75680  0.62730  0.01700  Biso   1.000  H
  H37      1.0000 0.25680  0.87270  0.51700  Biso   1.000  H
  H38      1.0000 0.75680  0.37270  0.51700  Biso   1.000  H
  H39      1.0000 0.74320  0.87270  0.98300  Biso   1.000  H
  H40      1.0000 0.24320  0.37270  0.98300  Biso   1.000  H
  C81      1.0000 0.16360  0.31750  0.20550  Biso   1.000  C
  C82      1.0000 0.66360  0.81750  0.20550  Biso   1.000  C
  C83      1.0000 0.83640  0.31750  0.29450  Biso   1.000  C
  C84      1.0000 0.33640  0.81750  0.29450  Biso   1.000  C
  C85      1.0000 0.83640  0.68250  0.79450  Biso   1.000  C
  C86      1.0000 0.33640  0.18250  0.79450  Biso   1.000  C
  C87      1.0000 0.16360  0.68250  0.70550  Biso   1.000  C
  C88      1.0000 0.66360  0.18250  0.70550  Biso   1.000  C
  C89      1.0000 0.45290  0.98850  0.42260  Biso   1.000  C
  C90      1.0000 0.95290  0.48850  0.42260  Biso   1.000  C
  C91      1.0000 0.54710  0.98850  0.07740  Biso   1.000  C
  C92      1.0000 0.04710  0.48850  0.07740  Biso   1.000  C
  C93      1.0000 0.54710  0.01150  0.57740  Biso   1.000  C
  C94      1.0000 0.04710  0.51150  0.57740  Biso   1.000  C
  C95      1.0000 0.45290  0.01150  0.92260  Biso   1.000  C
  C96      1.0000 0.95290  0.51150  0.92260  Biso   1.000  C
  C97      1.0000 0.62220  0.85010  0.38270  Biso   1.000  C
  C98      1.0000 0.12220  0.35010  0.38270  Biso   1.000  C
  C99      1.0000 0.37780  0.85010  0.11730  Biso   1.000  C
  C100     1.0000 0.87780  0.35010  0.11730  Biso   1.000  C
  C101     1.0000 0.37780  0.14990  0.61730  Biso   1.000  C
  C102     1.0000 0.87780  0.64990  0.61730  Biso   1.000  C
  C103     1.0000 0.62220  0.14990  0.88270  Biso   1.000  C
  C104     1.0000 0.12220  0.64990  0.88270  Biso   1.000  C
  O41      1.0000 0.34020  0.64460  0.39280  Biso   1.000  O
  O42      1.0000 0.84020  0.14460  0.39280  Biso   1.000  O
  O43      1.0000 0.65980  0.64460  0.10720  Biso   1.000  O
  O44      1.0000 0.15980  0.14460  0.10720  Biso   1.000  O
  O45      1.0000 0.65980  0.35540  0.60720  Biso   1.000  O
  O46      1.0000 0.15980  0.85540  0.60720  Biso   1.000  O
  O47      1.0000 0.34020  0.35540  0.89280  Biso   1.000  O
  O48      1.0000 0.84020  0.85540  0.89280  Biso   1.000  O
  O49      1.0000 0.18530  0.95810  0.14620  Biso   1.000  O
  O50      1.0000 0.68530  0.45810  0.14620  Biso   1.000  O
  O51      1.0000 0.81470  0.95810  0.35380  Biso   1.000  O
  O52      1.0000 0.31470  0.45810  0.35380  Biso   1.000  O
  O53      1.0000 0.81470  0.04190  0.85380  Biso   1.000  O
  O54      1.0000 0.31470  0.54190  0.85380  Biso   1.000  O
  O55      1.0000 0.18530  0.04190  0.64620  Biso   1.000  O
  O56      1.0000 0.68530  0.54190  0.64620  Biso   1.000  O
  O57      1.0000 0.34430  0.61590  0.64150  Biso   1.000  O
  O58      1.0000 0.84430  0.11590  0.64150  Biso   1.000  O
  O59      1.0000 0.65570  0.61590  0.85850  Biso   1.000  O
  O60      1.0000 0.15570  0.11590  0.85850  Biso   1.000  O
  O61      1.0000 0.65570  0.38410  0.35850  Biso   1.000  O
  O62      1.0000 0.15570  0.88410  0.35850  Biso   1.000  O
  O63      1.0000 0.34430  0.38410  0.14150  Biso   1.000  O
  O64      1.0000 0.84430  0.88410  0.14150  Biso   1.000  O
  O65      1.0000 0.17260  0.71960  0.27860  Biso   1.000  O
  O66      1.0000 0.67260  0.21960  0.27860  Biso   1.000  O
  O67      1.0000 0.82740  0.71960  0.22140  Biso   1.000  O
  O68      1.0000 0.32740  0.21960  0.22140  Biso   1.000  O
  O69      1.0000 0.82740  0.28040  0.72140  Biso   1.000  O
  O70      1.0000 0.32740  0.78040  0.72140  Biso   1.000  O
  O71      1.0000 0.17260  0.28040  0.77860  Biso   1.000  O
  O72      1.0000 0.67260  0.78040  0.77860  Biso   1.000  O
  O73      1.0000 0.41320  0.56730  0.39640  Biso   1.000  O
  O74      1.0000 0.91320  0.06730  0.39640  Biso   1.000  O
  O75      1.0000 0.58680  0.56730  0.10360  Biso   1.000  O
  O76      1.0000 0.08680  0.06730  0.10360  Biso   1.000  O
  O77      1.0000 0.58680  0.43270  0.60360  Biso   1.000  O
  O78      1.0000 0.08680  0.93270  0.60360  Biso   1.000  O
  O79      1.0000 0.41320  0.43270  0.89640  Biso   1.000  O
  O80      1.0000 0.91320  0.93270  0.89640  Biso   1.000  O
  O81      1.0000 0.24030  0.27150  0.10560  Biso   1.000  O
  O82      1.0000 0.74030  0.77150  0.10560  Biso   1.000  O
  O83      1.0000 0.75970  0.27150  0.39440  Biso   1.000  O
  O84      1.0000 0.25970  0.77150  0.39440  Biso   1.000  O
  O85      1.0000 0.75970  0.72850  0.89440  Biso   1.000  O
  O86      1.0000 0.25970  0.22850  0.89440  Biso   1.000  O
  O87      1.0000 0.24030  0.72850  0.60560  Biso   1.000  O
  O88      1.0000 0.74030  0.22850  0.60560  Biso   1.000  O
  H41      1.0000 0.26090  0.26370  0.08880  Biso   1.000  H
  H42      1.0000 0.76090  0.76370  0.08880  Biso   1.000  H
  H43      1.0000 0.73910  0.26370  0.41120  Biso   1.000  H
  H44      1.0000 0.23910  0.76370  0.41120  Biso   1.000  H
  H45      1.0000 0.73910  0.73630  0.91120  Biso   1.000  H
  H46      1.0000 0.23910  0.23630  0.91120  Biso   1.000  H
  H47      1.0000 0.26090  0.73630  0.58880  Biso   1.000  H
  H48      1.0000 0.76090  0.23630  0.58880  Biso   1.000  H
  O89      1.0000 0.19580  0.33050  0.18070  Biso   1.000  O
  O90      1.0000 0.69580  0.83050  0.18070  Biso   1.000  O
  O91      1.0000 0.80420  0.33050  0.31930  Biso   1.000  O
  O92      1.0000 0.30420  0.83050  0.31930  Biso   1.000  O
  O93      1.0000 0.80420  0.66950  0.81930  Biso   1.000  O
  O94      1.0000 0.30420  0.16950  0.81930  Biso   1.000  O
  O95      1.0000 0.19580  0.66950  0.68070  Biso   1.000  O
  O96      1.0000 0.69580  0.16950  0.68070  Biso   1.000  O
  C105     1.0000 0.20050  0.80200  0.12910  Biso   1.000  C
  C106     1.0000 0.70050  0.30200  0.12910  Biso   1.000  C
  C107     1.0000 0.79950  0.80200  0.37090  Biso   1.000  C
  C108     1.0000 0.29950  0.30200  0.37090  Biso   1.000  C
  C109     1.0000 0.79950  0.19800  0.87090  Biso   1.000  C
  C110     1.0000 0.29950  0.69800  0.87090  Biso   1.000  C
  C111     1.0000 0.20050  0.19800  0.62910  Biso   1.000  C
  C112     1.0000 0.70050  0.69800  0.62910  Biso   1.000  C
  O97      1.0000 0.32500  0.72630  0.57550  Biso   1.000  O
  O98      1.0000 0.82500  0.22630  0.57550  Biso   1.000  O
  O99      1.0000 0.67500  0.72630  0.92450  Biso   1.000  O
  O100     1.0000 0.17500  0.22630  0.92450  Biso   1.000  O
  O101     1.0000 0.67500  0.27370  0.42450  Biso   1.000  O
  O102     1.0000 0.17500  0.77370  0.42450  Biso   1.000  O
  O103     1.0000 0.32500  0.27370  0.07550  Biso   1.000  O
  O104     1.0000 0.82500  0.77370  0.07550  Biso   1.000  O
  C113     1.0000 0.15730  0.55830  0.25970  Biso   1.000  C
  C114     1.0000 0.65730  0.05830  0.25970  Biso   1.000  C
  C115     1.0000 0.84270  0.55830  0.24030  Biso   1.000  C
  C116     1.0000 0.34270  0.05830  0.24030  Biso   1.000  C
  C117     1.0000 0.84270  0.44170  0.74030  Biso   1.000  C
  C118     1.0000 0.34270  0.94170  0.74030  Biso   1.000  C
  C119     1.0000 0.15730  0.44170  0.75970  Biso   1.000  C
  C120     1.0000 0.65730  0.94170  0.75970  Biso   1.000  C
  C121     1.0000 0.19420  0.64330  0.27550  Biso   1.000  C
  C122     1.0000 0.69420  0.14330  0.27550  Biso   1.000  C
  C123     1.0000 0.80580  0.64330  0.22450  Biso   1.000  C
  C124     1.0000 0.30580  0.14330  0.22450  Biso   1.000  C
  C125     1.0000 0.80580  0.35670  0.72450  Biso   1.000  C
  C126     1.0000 0.30580  0.85670  0.72450  Biso   1.000  C
  C127     1.0000 0.19420  0.35670  0.77550  Biso   1.000  C
  C128     1.0000 0.69420  0.85670  0.77550  Biso   1.000  C
  C129     1.0000 0.39720  0.57790  0.48280  Biso   1.000  C
  C130     1.0000 0.89720  0.07790  0.48280  Biso   1.000  C
  C131     1.0000 0.60280  0.57790  0.01720  Biso   1.000  C
  C132     1.0000 0.10280  0.07790  0.01720  Biso   1.000  C
  C133     1.0000 0.60280  0.42210  0.51720  Biso   1.000  C
  C134     1.0000 0.10280  0.92210  0.51720  Biso   1.000  C
  C135     1.0000 0.39720  0.42210  0.98280  Biso   1.000  C
  C136     1.0000 0.89720  0.92210  0.98280  Biso   1.000  C
  C137     1.0000 0.37050  0.62420  0.51250  Biso   1.000  C
  C138     1.0000 0.87050  0.12420  0.51250  Biso   1.000  C
  C139     1.0000 0.62950  0.62420  0.98750  Biso   1.000  C
  C140     1.0000 0.12950  0.12420  0.98750  Biso   1.000  C
  C141     1.0000 0.62950  0.37580  0.48750  Biso   1.000  C
  C142     1.0000 0.12950  0.87580  0.48750  Biso   1.000  C
  C143     1.0000 0.37050  0.37580  0.01250  Biso   1.000  C
  C144     1.0000 0.87050  0.87580  0.01250  Biso   1.000  C
  H49      1.0000 0.34620  0.67190  0.49440  Biso   1.000  H
  H50      1.0000 0.84620  0.17190  0.49440  Biso   1.000  H
  H51      1.0000 0.65380  0.67190  0.00560  Biso   1.000  H
  H52      1.0000 0.15380  0.17190  0.00560  Biso   1.000  H
  H53      1.0000 0.65380  0.32810  0.50560  Biso   1.000  H
  H54      1.0000 0.15380  0.82810  0.50560  Biso   1.000  H
  H55      1.0000 0.34620  0.32810  0.99440  Biso   1.000  H
  H56      1.0000 0.84620  0.82810  0.99440  Biso   1.000  H
  C145     1.0000 0.17350  0.48180  0.23860  Biso   1.000  C
  C146     1.0000 0.67350  0.98180  0.23860  Biso   1.000  C
  C147     1.0000 0.82650  0.48180  0.26140  Biso   1.000  C
  C148     1.0000 0.32650  0.98180  0.26140  Biso   1.000  C
  C149     1.0000 0.82650  0.51820  0.76140  Biso   1.000  C
  C150     1.0000 0.32650  0.01820  0.76140  Biso   1.000  C
  C151     1.0000 0.17350  0.51820  0.73860  Biso   1.000  C
  C152     1.0000 0.67350  0.01820  0.73860  Biso   1.000  C
  H57      1.0000 0.20550  0.48430  0.23160  Biso   1.000  H
  H58      1.0000 0.70550  0.98430  0.23160  Biso   1.000  H
  H59      1.0000 0.79450  0.48430  0.26840  Biso   1.000  H
  H60      1.0000 0.29450  0.98430  0.26840  Biso   1.000  H
  H61      1.0000 0.79450  0.51570  0.76840  Biso   1.000  H
  H62      1.0000 0.29450  0.01570  0.76840  Biso   1.000  H
  H63      1.0000 0.20550  0.51570  0.73160  Biso   1.000  H
  H64      1.0000 0.70550  0.01570  0.73160  Biso   1.000  H
  C153     1.0000 0.34750  0.65230  0.59710  Biso   1.000  C
  C154     1.0000 0.84750  0.15230  0.59710  Biso   1.000  C
  C155     1.0000 0.65250  0.65230  0.90290  Biso   1.000  C
  C156     1.0000 0.15250  0.15230  0.90290  Biso   1.000  C
  C157     1.0000 0.65250  0.34770  0.40290  Biso   1.000  C
  C158     1.0000 0.15250  0.84770  0.40290  Biso   1.000  C
  C159     1.0000 0.34750  0.34770  0.09710  Biso   1.000  C
  C160     1.0000 0.84750  0.84770  0.09710  Biso   1.000  C
  C161     1.0000 0.22530  0.71860  0.15450  Biso   1.000  C
  C162     1.0000 0.72530  0.21860  0.15450  Biso   1.000  C
  C163     1.0000 0.77470  0.71860  0.34550  Biso   1.000  C
  C164     1.0000 0.27470  0.21860  0.34550  Biso   1.000  C
  C165     1.0000 0.77470  0.28140  0.84550  Biso   1.000  C
  C166     1.0000 0.27470  0.78140  0.84550  Biso   1.000  C
  C167     1.0000 0.22530  0.28140  0.65450  Biso   1.000  C
  C168     1.0000 0.72530  0.78140  0.65450  Biso   1.000  C
  H65      1.0000 0.24160  0.71390  0.19430  Biso   1.000  H
  H66      1.0000 0.74160  0.21390  0.19430  Biso   1.000  H
  H67      1.0000 0.75840  0.71390  0.30570  Biso   1.000  H
  H68      1.0000 0.25840  0.21390  0.30570  Biso   1.000  H
  H69      1.0000 0.75840  0.28610  0.80570  Biso   1.000  H
  H70      1.0000 0.25840  0.78610  0.80570  Biso   1.000  H
  H71      1.0000 0.24160  0.28610  0.69430  Biso   1.000  H
  H72      1.0000 0.74160  0.78610  0.69430  Biso   1.000  H
  C169     1.0000 0.38390  0.59760  0.42090  Biso   1.000  C
  C170     1.0000 0.88390  0.09760  0.42090  Biso   1.000  C
  C171     1.0000 0.61610  0.59760  0.07910  Biso   1.000  C
  C172     1.0000 0.11610  0.09760  0.07910  Biso   1.000  C
  C173     1.0000 0.61610  0.40240  0.57910  Biso   1.000  C
  C174     1.0000 0.11610  0.90240  0.57910  Biso   1.000  C
  C175     1.0000 0.38390  0.40240  0.92090  Biso   1.000  C
  C176     1.0000 0.88390  0.90240  0.92090  Biso   1.000  C
  C177     1.0000 0.10900  0.55710  0.26890  Biso   1.000  C
  C178     1.0000 0.60900  0.05710  0.26890  Biso   1.000  C
  C179     1.0000 0.89100  0.55710  0.23110  Biso   1.000  C
  C180     1.0000 0.39100  0.05710  0.23110  Biso   1.000  C
  C181     1.0000 0.89100  0.44290  0.73110  Biso   1.000  C
  C182     1.0000 0.39100  0.94290  0.73110  Biso   1.000  C
  C183     1.0000 0.10900  0.44290  0.76890  Biso   1.000  C
  C184     1.0000 0.60900  0.94290  0.76890  Biso   1.000  C
  H73      1.0000 0.09680  0.61020  0.28100  Biso   1.000  H
  H74      1.0000 0.59680  0.11020  0.28100  Biso   1.000  H
  H75      1.0000 0.90320  0.61020  0.21900  Biso   1.000  H
  H76      1.0000 0.40320  0.11020  0.21900  Biso   1.000  H
  H77      1.0000 0.90320  0.38980  0.71900  Biso   1.000  H
  H78      1.0000 0.40320  0.88980  0.71900  Biso   1.000  H
  H79      1.0000 0.09680  0.38980  0.78100  Biso   1.000  H
  H80      1.0000 0.59680  0.88980  0.78100  Biso   1.000  H
  C185     1.0000 0.14290  0.40020  0.22740  Biso   1.000  C
  C186     1.0000 0.64290  0.90020  0.22740  Biso   1.000  C
  C187     1.0000 0.85710  0.40020  0.27260  Biso   1.000  C
  C188     1.0000 0.35710  0.90020  0.27260  Biso   1.000  C
  C189     1.0000 0.85710  0.59980  0.77260  Biso   1.000  C
  C190     1.0000 0.35710  0.09980  0.77260  Biso   1.000  C
  C191     1.0000 0.14290  0.59980  0.72740  Biso   1.000  C
  C192     1.0000 0.64290  0.09980  0.72740  Biso   1.000  C
  C193     1.0000 0.22590  0.64410  0.12140  Biso   1.000  C
  C194     1.0000 0.72590  0.14410  0.12140  Biso   1.000  C
  C195     1.0000 0.77410  0.64410  0.37860  Biso   1.000  C
  C196     1.0000 0.27410  0.14410  0.37860  Biso   1.000  C
  C197     1.0000 0.77410  0.35590  0.87860  Biso   1.000  C
  C198     1.0000 0.27410  0.85590  0.87860  Biso   1.000  C
  C199     1.0000 0.22590  0.35590  0.62140  Biso   1.000  C
  C200     1.0000 0.72590  0.85590  0.62140  Biso   1.000  C
  C201     1.0000 0.37920  0.60100  0.56820  Biso   1.000  C
  C202     1.0000 0.87920  0.10100  0.56820  Biso   1.000  C
  C203     1.0000 0.62080  0.60100  0.93180  Biso   1.000  C
  C204     1.0000 0.12080  0.10100  0.93180  Biso   1.000  C
  C205     1.0000 0.62080  0.39900  0.43180  Biso   1.000  C
  C206     1.0000 0.12080  0.89900  0.43180  Biso   1.000  C
  C207     1.0000 0.37920  0.39900  0.06820  Biso   1.000  C
  C208     1.0000 0.87920  0.89900  0.06820  Biso   1.000  C
  C209     1.0000 0.09650  0.39590  0.23950  Biso   1.000  C
  C210     1.0000 0.59650  0.89590  0.23950  Biso   1.000  C
  C211     1.0000 0.90350  0.39590  0.26050  Biso   1.000  C
  C212     1.0000 0.40350  0.89590  0.26050  Biso   1.000  C
  C213     1.0000 0.90350  0.60410  0.76050  Biso   1.000  C
  C214     1.0000 0.40350  0.10410  0.76050  Biso   1.000  C
  C215     1.0000 0.09650  0.60410  0.73950  Biso   1.000  C
  C216     1.0000 0.59650  0.10410  0.73950  Biso   1.000  C
  H81      1.0000 0.07670  0.34090  0.23430  Biso   1.000  H
  H82      1.0000 0.57670  0.84090  0.23430  Biso   1.000  H
  H83      1.0000 0.92330  0.34090  0.26570  Biso   1.000  H
  H84      1.0000 0.42330  0.84090  0.26570  Biso   1.000  H
  H85      1.0000 0.92330  0.65910  0.76570  Biso   1.000  H
  H86      1.0000 0.42330  0.15910  0.76570  Biso   1.000  H
  H87      1.0000 0.07670  0.65910  0.73430  Biso   1.000  H
  H88      1.0000 0.57670  0.15910  0.73430  Biso   1.000  H
  C217     1.0000 0.07930  0.47550  0.25970  Biso   1.000  C
  C218     1.0000 0.57930  0.97550  0.25970  Biso   1.000  C
  C219     1.0000 0.92070  0.47550  0.24030  Biso   1.000  C
  C220     1.0000 0.42070  0.97550  0.24030  Biso   1.000  C
  C221     1.0000 0.92070  0.52450  0.74030  Biso   1.000  C
  C222     1.0000 0.42070  0.02450  0.74030  Biso   1.000  C
  C223     1.0000 0.07930  0.52450  0.75970  Biso   1.000  C
  C224     1.0000 0.57930  0.02450  0.75970  Biso   1.000  C
  H89      1.0000 0.04750  0.47340  0.26710  Biso   1.000  H
  H90      1.0000 0.54750  0.97340  0.26710  Biso   1.000  H
  H91      1.0000 0.95250  0.47340  0.23290  Biso   1.000  H
  H92      1.0000 0.45250  0.97340  0.23290  Biso   1.000  H
  H93      1.0000 0.95250  0.52660  0.73290  Biso   1.000  H
  H94      1.0000 0.45250  0.02660  0.73290  Biso   1.000  H
  H95      1.0000 0.04750  0.52660  0.76710  Biso   1.000  H
  H96      1.0000 0.54750  0.02660  0.76710  Biso   1.000  H
  C225     1.0000 0.43460  0.50810  0.51030  Biso   1.000  C
  C226     1.0000 0.93460  0.00810  0.51030  Biso   1.000  C
  C227     1.0000 0.56540  0.50810  0.98970  Biso   1.000  C
  C228     1.0000 0.06540  0.00810  0.98970  Biso   1.000  C
  C229     1.0000 0.56540  0.49190  0.48970  Biso   1.000  C
  C230     1.0000 0.06540  0.99190  0.48970  Biso   1.000  C
  C231     1.0000 0.43460  0.49190  0.01030  Biso   1.000  C
  C232     1.0000 0.93460  0.99190  0.01030  Biso   1.000  C
  H97      1.0000 0.45250  0.47650  0.49080  Biso   1.000  H
  H98      1.0000 0.95250  0.97650  0.49080  Biso   1.000  H
  H99      1.0000 0.54750  0.47650  0.00920  Biso   1.000  H
  H100     1.0000 0.04750  0.97650  0.00920  Biso   1.000  H
  H101     1.0000 0.54750  0.52350  0.50920  Biso   1.000  H
  H102     1.0000 0.04750  0.02350  0.50920  Biso   1.000  H
  H103     1.0000 0.45250  0.52350  0.99080  Biso   1.000  H
  H104     1.0000 0.95250  0.02350  0.99080  Biso   1.000  H
  C233     1.0000 0.41650  0.53030  0.59530  Biso   1.000  C
  C234     1.0000 0.91650  0.03030  0.59530  Biso   1.000  C
  C235     1.0000 0.58350  0.53030  0.90470  Biso   1.000  C
  C236     1.0000 0.08350  0.03030  0.90470  Biso   1.000  C
  C237     1.0000 0.58350  0.46970  0.40470  Biso   1.000  C
  C238     1.0000 0.08350  0.96970  0.40470  Biso   1.000  C
  C239     1.0000 0.41650  0.46970  0.09530  Biso   1.000  C
  C240     1.0000 0.91650  0.96970  0.09530  Biso   1.000  C
  H105     1.0000 0.42230  0.51280  0.63250  Biso   1.000  H
  H106     1.0000 0.92230  0.01280  0.63250  Biso   1.000  H
  H107     1.0000 0.57770  0.51280  0.86750  Biso   1.000  H
  H108     1.0000 0.07770  0.01280  0.86750  Biso   1.000  H
  H109     1.0000 0.57770  0.48720  0.36750  Biso   1.000  H
  H110     1.0000 0.07770  0.98720  0.36750  Biso   1.000  H
  H111     1.0000 0.42230  0.48720  0.13250  Biso   1.000  H
  H112     1.0000 0.92230  0.98720  0.13250  Biso   1.000  H
  C241     1.0000 0.17660  0.80920  0.07080  Biso   1.000  C
  C242     1.0000 0.67660  0.30920  0.07080  Biso   1.000  C
  C243     1.0000 0.82340  0.80920  0.42920  Biso   1.000  C
  C244     1.0000 0.32340  0.30920  0.42920  Biso   1.000  C
  C245     1.0000 0.82340  0.19080  0.92920  Biso   1.000  C
  C246     1.0000 0.32340  0.69080  0.92920  Biso   1.000  C
  C247     1.0000 0.17660  0.19080  0.57080  Biso   1.000  C
  C248     1.0000 0.67660  0.69080  0.57080  Biso   1.000  C
  H113     1.0000 0.15950  0.86410  0.05370  Biso   1.000  H
  H114     1.0000 0.65950  0.36410  0.05370  Biso   1.000  H
  H115     1.0000 0.84050  0.86410  0.44630  Biso   1.000  H
  H116     1.0000 0.34050  0.36410  0.44630  Biso   1.000  H
  H117     1.0000 0.84050  0.13590  0.94630  Biso   1.000  H
  H118     1.0000 0.34050  0.63590  0.94630  Biso   1.000  H
  H119     1.0000 0.15950  0.13590  0.55370  Biso   1.000  H
  H120     1.0000 0.65950  0.63590  0.55370  Biso   1.000  H
  C249     1.0000 0.44520  0.48550  0.56660  Biso   1.000  C
  C250     1.0000 0.94520  0.98550  0.56660  Biso   1.000  C
  C251     1.0000 0.55480  0.48550  0.93340  Biso   1.000  C
  C252     1.0000 0.05480  0.98550  0.93340  Biso   1.000  C
  C253     1.0000 0.55480  0.51450  0.43340  Biso   1.000  C
  C254     1.0000 0.05480  0.01450  0.43340  Biso   1.000  C
  C255     1.0000 0.44520  0.51450  0.06660  Biso   1.000  C
  C256     1.0000 0.94520  0.01450  0.06660  Biso   1.000  C
  H121     1.0000 0.47130  0.44050  0.58540  Biso   1.000  H
  H122     1.0000 0.97130  0.94050  0.58540  Biso   1.000  H
  H123     1.0000 0.52870  0.44050  0.91460  Biso   1.000  H
  H124     1.0000 0.02870  0.94050  0.91460  Biso   1.000  H
  H125     1.0000 0.52870  0.55950  0.41460  Biso   1.000  H
  H126     1.0000 0.02870  0.05950  0.41460  Biso   1.000  H
  H127     1.0000 0.47130  0.55950  0.08540  Biso   1.000  H
  H128     1.0000 0.97130  0.05950  0.08540  Biso   1.000  H
  C257     1.0000 0.20290  0.65120  0.06230  Biso   1.000  C
  C258     1.0000 0.70290  0.15120  0.06230  Biso   1.000  C
  C259     1.0000 0.79710  0.65120  0.43770  Biso   1.000  C
  C260     1.0000 0.29710  0.15120  0.43770  Biso   1.000  C
  C261     1.0000 0.79710  0.34880  0.93770  Biso   1.000  C
  C262     1.0000 0.29710  0.84880  0.93770  Biso   1.000  C
  C263     1.0000 0.20290  0.34880  0.56230  Biso   1.000  C
  C264     1.0000 0.70290  0.84880  0.56230  Biso   1.000  C
  H129     1.0000 0.20410  0.60140  0.03960  Biso   1.000  H
  H130     1.0000 0.70410  0.10140  0.03960  Biso   1.000  H
  H131     1.0000 0.79590  0.60140  0.46040  Biso   1.000  H
  H132     1.0000 0.29590  0.10140  0.46040  Biso   1.000  H
  H133     1.0000 0.79590  0.39860  0.96040  Biso   1.000  H
  H134     1.0000 0.29590  0.89860  0.96040  Biso   1.000  H
  H135     1.0000 0.20410  0.39860  0.53960  Biso   1.000  H
  H136     1.0000 0.70410  0.89860  0.53960  Biso   1.000  H
  C265     1.0000 0.17770  0.73430  0.03700  Biso   1.000  C
  C266     1.0000 0.67770  0.23430  0.03700  Biso   1.000  C
  C267     1.0000 0.82230  0.73430  0.46300  Biso   1.000  C
  C268     1.0000 0.32230  0.23430  0.46300  Biso   1.000  C
  C269     1.0000 0.82230  0.26570  0.96300  Biso   1.000  C
  C270     1.0000 0.32230  0.76570  0.96300  Biso   1.000  C
  C271     1.0000 0.17770  0.26570  0.53700  Biso   1.000  C
  C272     1.0000 0.67770  0.76570  0.53700  Biso   1.000  C
  H137     1.0000 0.16170  0.73940  0.99730  Biso   1.000  H
  H138     1.0000 0.66170  0.23940  0.99730  Biso   1.000  H
  H139     1.0000 0.83830  0.73940  0.50270  Biso   1.000  H
  H140     1.0000 0.33830  0.23940  0.50270  Biso   1.000  H
  H141     1.0000 0.83830  0.26060  0.00270  Biso   1.000  H
  H142     1.0000 0.33830  0.76060  0.00270  Biso   1.000  H
  H143     1.0000 0.16170  0.26060  0.49730  Biso   1.000  H
  H144     1.0000 0.66170  0.76060  0.49730  Biso   1.000  H
  C273     1.0000 0.42890  0.15480  0.39780  Biso   1.000  C
  C274     1.0000 0.92890  0.65480  0.39780  Biso   1.000  C
  C275     1.0000 0.57110  0.15480  0.10220  Biso   1.000  C
  C276     1.0000 0.07110  0.65480  0.10220  Biso   1.000  C
  C277     1.0000 0.57110  0.84520  0.60220  Biso   1.000  C
  C278     1.0000 0.07110  0.34520  0.60220  Biso   1.000  C
  C279     1.0000 0.42890  0.84520  0.89780  Biso   1.000  C
  C280     1.0000 0.92890  0.34520  0.89780  Biso   1.000  C
  H145     1.0000 0.39470  0.14620  0.39950  Biso   1.000  H
  H146     1.0000 0.89470  0.64620  0.39950  Biso   1.000  H
  H147     1.0000 0.60530  0.14620  0.10050  Biso   1.000  H
  H148     1.0000 0.10530  0.64620  0.10050  Biso   1.000  H
  H149     1.0000 0.60530  0.85380  0.60050  Biso   1.000  H
  H150     1.0000 0.10530  0.35380  0.60050  Biso   1.000  H
  H151     1.0000 0.39470  0.85380  0.89950  Biso   1.000  H
  H152     1.0000 0.89470  0.35380  0.89950  Biso   1.000  H
  C281     1.0000 0.53450  0.78930  0.35280  Biso   1.000  C
  C282     1.0000 0.03450  0.28930  0.35280  Biso   1.000  C
  C283     1.0000 0.46550  0.78930  0.14720  Biso   1.000  C
  C284     1.0000 0.96550  0.28930  0.14720  Biso   1.000  C
  C285     1.0000 0.46550  0.21070  0.64720  Biso   1.000  C
  C286     1.0000 0.96550  0.71070  0.64720  Biso   1.000  C
  C287     1.0000 0.53450  0.21070  0.85280  Biso   1.000  C
  C288     1.0000 0.03450  0.71070  0.85280  Biso   1.000  C
  H153     1.0000 0.49820  0.79560  0.34910  Biso   1.000  H
  H154     1.0000 0.99820  0.29560  0.34910  Biso   1.000  H
  H155     1.0000 0.50180  0.79560  0.15090  Biso   1.000  H
  H156     1.0000 0.00180  0.29560  0.15090  Biso   1.000  H
  H157     1.0000 0.50180  0.20440  0.65090  Biso   1.000  H
  H158     1.0000 0.00180  0.70440  0.65090  Biso   1.000  H
  H159     1.0000 0.49820  0.20440  0.84910  Biso   1.000  H
  H160     1.0000 0.99820  0.70440  0.84910  Biso   1.000  H
  C289     1.0000 0.49150  0.84770  0.46040  Biso   1.000  C
  C290     1.0000 0.99150  0.34770  0.46040  Biso   1.000  C
  C291     1.0000 0.50850  0.84770  0.03960  Biso   1.000  C
  C292     1.0000 0.00850  0.34770  0.03960  Biso   1.000  C
  C293     1.0000 0.50850  0.15230  0.53960  Biso   1.000  C
  C294     1.0000 0.00850  0.65230  0.53960  Biso   1.000  C
  C295     1.0000 0.49150  0.15230  0.96040  Biso   1.000  C
  C296     1.0000 0.99150  0.65230  0.96040  Biso   1.000  C
  H161     1.0000 0.52240  0.80970  0.47500  Biso   1.000  H
  H162     1.0000 0.02240  0.30970  0.47500  Biso   1.000  H
  H163     1.0000 0.47760  0.80970  0.02500  Biso   1.000  H
  H164     1.0000 0.97760  0.30970  0.02500  Biso   1.000  H
  H165     1.0000 0.47760  0.19030  0.52500  Biso   1.000  H
  H166     1.0000 0.97760  0.69030  0.52500  Biso   1.000  H
  H167     1.0000 0.52240  0.19030  0.97500  Biso   1.000  H
  H168     1.0000 0.02240  0.69030  0.97500  Biso   1.000  H
  C297     1.0000 0.44240  0.81300  0.45800  Biso   1.000  C
  C298     1.0000 0.94240  0.31300  0.45800  Biso   1.000  C
  C299     1.0000 0.55760  0.81300  0.04200  Biso   1.000  C
  C300     1.0000 0.05760  0.31300  0.04200  Biso   1.000  C
  C301     1.0000 0.55760  0.18700  0.54200  Biso   1.000  C
  C302     1.0000 0.05760  0.68700  0.54200  Biso   1.000  C
  C303     1.0000 0.44240  0.18700  0.95800  Biso   1.000  C
  C304     1.0000 0.94240  0.68700  0.95800  Biso   1.000  C
  H169     1.0000 0.43950  0.75270  0.46920  Biso   1.000  H
  H170     1.0000 0.93950  0.25270  0.46920  Biso   1.000  H
  H171     1.0000 0.56050  0.75270  0.03080  Biso   1.000  H
  H172     1.0000 0.06050  0.25270  0.03080  Biso   1.000  H
  H173     1.0000 0.56050  0.24730  0.53080  Biso   1.000  H
  H174     1.0000 0.06050  0.74730  0.53080  Biso   1.000  H
  H175     1.0000 0.43950  0.24730  0.96920  Biso   1.000  H
  H176     1.0000 0.93950  0.74730  0.96920  Biso   1.000  H
  C305     1.0000 0.39930  0.86900  0.43890  Biso   1.000  C
  C306     1.0000 0.89930  0.36900  0.43890  Biso   1.000  C
  C307     1.0000 0.60070  0.86900  0.06110  Biso   1.000  C
  C308     1.0000 0.10070  0.36900  0.06110  Biso   1.000  C
  C309     1.0000 0.60070  0.13100  0.56110  Biso   1.000  C
  C310     1.0000 0.10070  0.63100  0.56110  Biso   1.000  C
  C311     1.0000 0.39930  0.13100  0.93890  Biso   1.000  C
  C312     1.0000 0.89930  0.63100  0.93890  Biso   1.000  C
  H177     1.0000 0.36570  0.84820  0.43810  Biso   1.000  H
  H178     1.0000 0.86570  0.34820  0.43810  Biso   1.000  H
  H179     1.0000 0.63430  0.84820  0.06190  Biso   1.000  H
  H180     1.0000 0.13430  0.34820  0.06190  Biso   1.000  H
  H181     1.0000 0.63430  0.15180  0.56190  Biso   1.000  H
  H182     1.0000 0.13430  0.65180  0.56190  Biso   1.000  H
  H183     1.0000 0.36570  0.15180  0.93810  Biso   1.000  H
  H184     1.0000 0.86570  0.65180  0.93810  Biso   1.000  H
  C313     1.0000 0.40280  0.95570  0.42060  Biso   1.000  C
  C314     1.0000 0.90280  0.45570  0.42060  Biso   1.000  C
  C315     1.0000 0.59720  0.95570  0.07940  Biso   1.000  C
  C316     1.0000 0.09720  0.45570  0.07940  Biso   1.000  C
  C317     1.0000 0.59720  0.04430  0.57940  Biso   1.000  C
  C318     1.0000 0.09720  0.54430  0.57940  Biso   1.000  C
  C319     1.0000 0.40280  0.04430  0.92060  Biso   1.000  C
  C320     1.0000 0.90280  0.54430  0.92060  Biso   1.000  C
  H185     1.0000 0.37170  0.99330  0.40680  Biso   1.000  H
  H186     1.0000 0.87170  0.49330  0.40680  Biso   1.000  H
  H187     1.0000 0.62830  0.99330  0.09320  Biso   1.000  H
  H188     1.0000 0.12830  0.49330  0.09320  Biso   1.000  H
  H189     1.0000 0.62830  0.00670  0.59320  Biso   1.000  H
  H190     1.0000 0.12830  0.50670  0.59320  Biso   1.000  H
  H191     1.0000 0.37170  0.00670  0.90680  Biso   1.000  H
  H192     1.0000 0.87170  0.50670  0.90680  Biso   1.000  H
  C321     1.0000 0.70780  0.94640  0.40400  Biso   1.000  C
  C322     1.0000 0.20780  0.44640  0.40400  Biso   1.000  C
  C323     1.0000 0.29220  0.94640  0.09600  Biso   1.000  C
  C324     1.0000 0.79220  0.44640  0.09600  Biso   1.000  C
  C325     1.0000 0.29220  0.05360  0.59600  Biso   1.000  C
  C326     1.0000 0.79220  0.55360  0.59600  Biso   1.000  C
  C327     1.0000 0.70780  0.05360  0.90400  Biso   1.000  C
  C328     1.0000 0.20780  0.55360  0.90400  Biso   1.000  C
  H193     1.0000 0.71960  0.90650  0.38240  Biso   1.000  H
  H194     1.0000 0.21960  0.40650  0.38240  Biso   1.000  H
  H195     1.0000 0.28040  0.90650  0.11760  Biso   1.000  H
  H196     1.0000 0.78040  0.40650  0.11760  Biso   1.000  H
  H197     1.0000 0.28040  0.09350  0.61760  Biso   1.000  H
  H198     1.0000 0.78040  0.59350  0.61760  Biso   1.000  H
  H199     1.0000 0.71960  0.09350  0.88240  Biso   1.000  H
  H200     1.0000 0.21960  0.59350  0.88240  Biso   1.000  H
  C329     1.0000 0.52750  0.17480  0.39210  Biso   1.000  C
  C330     1.0000 0.02750  0.67480  0.39210  Biso   1.000  C
  C331     1.0000 0.47250  0.17480  0.10790  Biso   1.000  C
  C332     1.0000 0.97250  0.67480  0.10790  Biso   1.000  C
  C333     1.0000 0.47250  0.82520  0.60790  Biso   1.000  C
  C334     1.0000 0.97250  0.32520  0.60790  Biso   1.000  C
  C335     1.0000 0.52750  0.82520  0.89210  Biso   1.000  C
  C336     1.0000 0.02750  0.32520  0.89210  Biso   1.000  C
  H201     1.0000 0.56170  0.18240  0.39020  Biso   1.000  H
  H202     1.0000 0.06170  0.68240  0.39020  Biso   1.000  H
  H203     1.0000 0.43830  0.18240  0.10980  Biso   1.000  H
  H204     1.0000 0.93830  0.68240  0.10980  Biso   1.000  H
  H205     1.0000 0.43830  0.81760  0.60980  Biso   1.000  H
  H206     1.0000 0.93830  0.31760  0.60980  Biso   1.000  H
  H207     1.0000 0.56170  0.81760  0.89020  Biso   1.000  H
  H208     1.0000 0.06170  0.31760  0.89020  Biso   1.000  H
  C337     1.0000 0.44440  0.24120  0.38650  Biso   1.000  C
  C338     1.0000 0.94440  0.74120  0.38650  Biso   1.000  C
  C339     1.0000 0.55560  0.24120  0.11350  Biso   1.000  C
  C340     1.0000 0.05560  0.74120  0.11350  Biso   1.000  C
  C341     1.0000 0.55560  0.75880  0.61350  Biso   1.000  C
  C342     1.0000 0.05560  0.25880  0.61350  Biso   1.000  C
  C343     1.0000 0.44440  0.75880  0.88650  Biso   1.000  C
  C344     1.0000 0.94440  0.25880  0.88650  Biso   1.000  C
  H209     1.0000 0.42040  0.29120  0.38000  Biso   1.000  H
  H210     1.0000 0.92040  0.79120  0.38000  Biso   1.000  H
  H211     1.0000 0.57960  0.29120  0.12000  Biso   1.000  H
  H212     1.0000 0.07960  0.79120  0.12000  Biso   1.000  H
  H213     1.0000 0.57960  0.70880  0.62000  Biso   1.000  H
  H214     1.0000 0.07960  0.20880  0.62000  Biso   1.000  H
  H215     1.0000 0.42040  0.70880  0.88000  Biso   1.000  H
  H216     1.0000 0.92040  0.20880  0.88000  Biso   1.000  H
  C345     1.0000 0.64030  0.77170  0.36450  Biso   1.000  C
  C346     1.0000 0.14030  0.27170  0.36450  Biso   1.000  C
  C347     1.0000 0.35970  0.77170  0.13550  Biso   1.000  C
  C348     1.0000 0.85970  0.27170  0.13550  Biso   1.000  C
  C349     1.0000 0.35970  0.22830  0.63550  Biso   1.000  C
  C350     1.0000 0.85970  0.72830  0.63550  Biso   1.000  C
  C351     1.0000 0.64030  0.22830  0.86450  Biso   1.000  C
  C352     1.0000 0.14030  0.72830  0.86450  Biso   1.000  C
  H217     1.0000 0.67680  0.76540  0.36900  Biso   1.000  H
  H218     1.0000 0.17680  0.26540  0.36900  Biso   1.000  H
  H219     1.0000 0.32320  0.76540  0.13100  Biso   1.000  H
  H220     1.0000 0.82320  0.26540  0.13100  Biso   1.000  H
  H221     1.0000 0.32320  0.23460  0.63100  Biso   1.000  H
  H222     1.0000 0.82320  0.73460  0.63100  Biso   1.000  H
  H223     1.0000 0.67680  0.23460  0.86900  Biso   1.000  H
  H224     1.0000 0.17680  0.73460  0.86900  Biso   1.000  H
  C353     1.0000 0.54920  0.71010  0.33440  Biso   1.000  C
  C354     1.0000 0.04920  0.21010  0.33440  Biso   1.000  C
  C355     1.0000 0.45080  0.71010  0.16560  Biso   1.000  C
  C356     1.0000 0.95080  0.21010  0.16560  Biso   1.000  C
  C357     1.0000 0.45080  0.28990  0.66560  Biso   1.000  C
  C358     1.0000 0.95080  0.78990  0.66560  Biso   1.000  C
  C359     1.0000 0.54920  0.28990  0.83440  Biso   1.000  C
  C360     1.0000 0.04920  0.78990  0.83440  Biso   1.000  C
  H225     1.0000 0.52400  0.66250  0.31910  Biso   1.000  H
  H226     1.0000 0.02400  0.16250  0.31910  Biso   1.000  H
  H227     1.0000 0.47600  0.66250  0.18090  Biso   1.000  H
  H228     1.0000 0.97600  0.16250  0.18090  Biso   1.000  H
  H229     1.0000 0.47600  0.33750  0.68090  Biso   1.000  H
  H230     1.0000 0.97600  0.83750  0.68090  Biso   1.000  H
  H231     1.0000 0.52400  0.33750  0.81910  Biso   1.000  H
  H232     1.0000 0.02400  0.83750  0.81910  Biso   1.000  H
  C361     1.0000 0.49500  0.25330  0.38500  Biso   1.000  C
  C362     1.0000 0.99500  0.75330  0.38500  Biso   1.000  C
  C363     1.0000 0.50500  0.25330  0.11500  Biso   1.000  C
  C364     1.0000 0.00500  0.75330  0.11500  Biso   1.000  C
  C365     1.0000 0.50500  0.74670  0.61500  Biso   1.000  C
  C366     1.0000 0.00500  0.24670  0.61500  Biso   1.000  C
  C367     1.0000 0.49500  0.74670  0.88500  Biso   1.000  C
  C368     1.0000 0.99500  0.24670  0.88500  Biso   1.000  C
  H233     1.0000 0.50720  0.31140  0.37940  Biso   1.000  H
  H234     1.0000 0.00720  0.81140  0.37940  Biso   1.000  H
  H235     1.0000 0.49280  0.31140  0.12060  Biso   1.000  H
  H236     1.0000 0.99280  0.81140  0.12060  Biso   1.000  H
  H237     1.0000 0.49280  0.68860  0.62060  Biso   1.000  H
  H238     1.0000 0.99280  0.18860  0.62060  Biso   1.000  H
  H239     1.0000 0.50720  0.68860  0.87940  Biso   1.000  H
  H240     1.0000 0.00720  0.18860  0.87940  Biso   1.000  H
  C369     1.0000 0.60190  0.70210  0.33910  Biso   1.000  C
  C370     1.0000 0.10190  0.20210  0.33910  Biso   1.000  C
  C371     1.0000 0.39810  0.70210  0.16090  Biso   1.000  C
  C372     1.0000 0.89810  0.20210  0.16090  Biso   1.000  C
  C373     1.0000 0.39810  0.29790  0.66090  Biso   1.000  C
  C374     1.0000 0.89810  0.79790  0.66090  Biso   1.000  C
  C375     1.0000 0.60190  0.29790  0.83910  Biso   1.000  C
  C376     1.0000 0.10190  0.79790  0.83910  Biso   1.000  C
  H241     1.0000 0.61260  0.64940  0.32510  Biso   1.000  H
  H242     1.0000 0.11260  0.14940  0.32510  Biso   1.000  H
  H243     1.0000 0.38740  0.64940  0.17490  Biso   1.000  H
  H244     1.0000 0.88740  0.14940  0.17490  Biso   1.000  H
  H245     1.0000 0.38740  0.35060  0.67490  Biso   1.000  H
  H246     1.0000 0.88740  0.85060  0.67490  Biso   1.000  H
  H247     1.0000 0.61260  0.35060  0.82510  Biso   1.000  H
  H248     1.0000 0.11260  0.85060  0.82510  Biso   1.000  H
  O105     1.0000 0.21760  0.86590  0.22040  Biso   1.000  O
  O106     1.0000 0.71760  0.36590  0.22040  Biso   1.000  O
  O107     1.0000 0.78240  0.86590  0.27960  Biso   1.000  O
  O108     1.0000 0.28240  0.36590  0.27960  Biso   1.000  O
  O109     1.0000 0.78240  0.13410  0.77960  Biso   1.000  O
  O110     1.0000 0.28240  0.63410  0.77960  Biso   1.000  O
  O111     1.0000 0.21760  0.13410  0.72040  Biso   1.000  O
  O112     1.0000 0.71760  0.63410  0.72040  Biso   1.000  O
  C377     1.0000 0.20160  0.88180  0.16790  Biso   1.000  C
  C378     1.0000 0.70160  0.38180  0.16790  Biso   1.000  C
  C379     1.0000 0.79840  0.88180  0.33210  Biso   1.000  C
  C380     1.0000 0.29840  0.38180  0.33210  Biso   1.000  C
  C381     1.0000 0.79840  0.11820  0.83210  Biso   1.000  C
  C382     1.0000 0.29840  0.61820  0.83210  Biso   1.000  C
  C383     1.0000 0.20160  0.11820  0.66790  Biso   1.000  C
  C384     1.0000 0.70160  0.61820  0.66790  Biso   1.000  C
  O113     1.0000 0.14740  0.23790  0.21340  Biso   1.000  O
  O114     1.0000 0.64740  0.73790  0.21340  Biso   1.000  O
  O115     1.0000 0.85260  0.23790  0.28660  Biso   1.000  O
  O116     1.0000 0.35260  0.73790  0.28660  Biso   1.000  O
  O117     1.0000 0.85260  0.76210  0.78660  Biso   1.000  O
  O118     1.0000 0.35260  0.26210  0.78660  Biso   1.000  O
  O119     1.0000 0.14740  0.76210  0.71340  Biso   1.000  O
  O120     1.0000 0.64740  0.26210  0.71340  Biso   1.000  O
