data_image0
_cell_length_a       26.4938
_cell_length_b       14.5214
_cell_length_c       25.6071
_cell_angle_alpha    90
_cell_angle_beta     114.285
_cell_angle_gamma    90

_symmetry_space_group_name_H-M    "P 1"
_symmetry_int_tables_number       1

loop_
  _symmetry_equiv_pos_as_xyz
  'x, y, z'

loop_
  _atom_site_label
  _atom_site_occupancy
  _atom_site_fract_x
  _atom_site_fract_y
  _atom_site_fract_z
  _atom_site_thermal_displace_type
  _atom_site_B_iso_or_equiv
  _atom_site_type_symbol
  Nd1      1.0000 0.21414  0.86739  0.31003  Biso   1.000  Nd
  Nd2      1.0000 0.71414  0.36739  0.31003  Biso   1.000  Nd
  Nd3      1.0000 0.78586  0.86739  0.18997  Biso   1.000  Nd
  Nd4      1.0000 0.28586  0.36739  0.18997  Biso   1.000  Nd
  Nd5      1.0000 0.78586  0.13261  0.68997  Biso   1.000  Nd
  Nd6      1.0000 0.28586  0.63261  0.68997  Biso   1.000  Nd
  Nd7      1.0000 0.21414  0.13261  0.81003  Biso   1.000  Nd
  Nd8      1.0000 0.71414  0.63261  0.81003  Biso   1.000  Nd
  Nd9      1.0000 0.16455  0.08841  0.19715  Biso   1.000  Nd
  Nd10     1.0000 0.66455  0.58841  0.19715  Biso   1.000  Nd
  Nd11     1.0000 0.83545  0.08841  0.30285  Biso   1.000  Nd
  Nd12     1.0000 0.33545  0.58841  0.30285  Biso   1.000  Nd
  Nd13     1.0000 0.83545  0.91159  0.80285  Biso   1.000  Nd
  Nd14     1.0000 0.33545  0.41159  0.80285  Biso   1.000  Nd
  Nd15     1.0000 0.16455  0.91159  0.69715  Biso   1.000  Nd
  Nd16     1.0000 0.66455  0.41159  0.69715  Biso   1.000  Nd
  Cu1      1.0000 0.43908  0.97182  0.07871  Biso   1.000  Cu
  Cu2      1.0000 0.93908  0.47182  0.07871  Biso   1.000  Cu
  Cu3      1.0000 0.56092  0.97182  0.42129  Biso   1.000  Cu
  Cu4      1.0000 0.06092  0.47182  0.42129  Biso   1.000  Cu
  Cu5      1.0000 0.56092  0.02818  0.92129  Biso   1.000  Cu
  Cu6      1.0000 0.06092  0.52818  0.92129  Biso   1.000  Cu
  Cu7      1.0000 0.43908  0.02818  0.57871  Biso   1.000  Cu
  Cu8      1.0000 0.93908  0.52818  0.57871  Biso   1.000  Cu
  N1       1.0000 0.48600  0.08870  0.09930  Biso   1.000  N
  N2       1.0000 0.98600  0.58870  0.09930  Biso   1.000  N
  N3       1.0000 0.51400  0.08870  0.40070  Biso   1.000  N
  N4       1.0000 0.01400  0.58870  0.40070  Biso   1.000  N
  N5       1.0000 0.51400  0.91130  0.90070  Biso   1.000  N
  N6       1.0000 0.01400  0.41130  0.90070  Biso   1.000  N
  N7       1.0000 0.48600  0.91130  0.59930  Biso   1.000  N
  N8       1.0000 0.98600  0.41130  0.59930  Biso   1.000  N
  O1       1.0000 0.12800  0.94090  0.23340  Biso   1.000  O
  O2       1.0000 0.62800  0.44090  0.23340  Biso   1.000  O
  O3       1.0000 0.87200  0.94090  0.26660  Biso   1.000  O
  O4       1.0000 0.37200  0.44090  0.26660  Biso   1.000  O
  O5       1.0000 0.87200  0.05910  0.76660  Biso   1.000  O
  O6       1.0000 0.37200  0.55910  0.76660  Biso   1.000  O
  O7       1.0000 0.12800  0.05910  0.73340  Biso   1.000  O
  O8       1.0000 0.62800  0.55910  0.73340  Biso   1.000  O
  O9       1.0000 0.21870  0.05350  0.30000  Biso   1.000  O
  O10      1.0000 0.71870  0.55350  0.30000  Biso   1.000  O
  O11      1.0000 0.78130  0.05350  0.20000  Biso   1.000  O
  O12      1.0000 0.28130  0.55350  0.20000  Biso   1.000  O
  O13      1.0000 0.78130  0.94650  0.70000  Biso   1.000  O
  O14      1.0000 0.28130  0.44650  0.70000  Biso   1.000  O
  O15      1.0000 0.21870  0.94650  0.80000  Biso   1.000  O
  O16      1.0000 0.71870  0.44650  0.80000  Biso   1.000  O
  O17      1.0000 0.28320  0.37100  0.28120  Biso   1.000  O
  O18      1.0000 0.78320  0.87100  0.28120  Biso   1.000  O
  O19      1.0000 0.71680  0.37100  0.21880  Biso   1.000  O
  O20      1.0000 0.21680  0.87100  0.21880  Biso   1.000  O
  O21      1.0000 0.71680  0.62900  0.71880  Biso   1.000  O
  O22      1.0000 0.21680  0.12900  0.71880  Biso   1.000  O
  O23      1.0000 0.28320  0.62900  0.78120  Biso   1.000  O
  O24      1.0000 0.78320  0.12900  0.78120  Biso   1.000  O
  C1       1.0000 0.00000  0.97980  0.25000  Biso   1.000  C
  C2       1.0000 0.50000  0.47980  0.25000  Biso   1.000  C
  C3       1.0000 0.00000  0.02020  0.75000  Biso   1.000  C
  C4       1.0000 0.50000  0.52020  0.75000  Biso   1.000  C
  H1       1.0000 0.00000  0.04390  0.25000  Biso   1.000  H
  H2       1.0000 0.50000  0.54390  0.25000  Biso   1.000  H
  H3       1.0000 0.00000  0.95610  0.75000  Biso   1.000  H
  H4       1.0000 0.50000  0.45610  0.75000  Biso   1.000  H
  C5       1.0000 0.30120  0.30590  0.37140  Biso   1.000  C
  C6       1.0000 0.80120  0.80590  0.37140  Biso   1.000  C
  C7       1.0000 0.69880  0.30590  0.12860  Biso   1.000  C
  C8       1.0000 0.19880  0.80590  0.12860  Biso   1.000  C
  C9       1.0000 0.69880  0.69410  0.62860  Biso   1.000  C
  C10      1.0000 0.19880  0.19410  0.62860  Biso   1.000  C
  C11      1.0000 0.30120  0.69410  0.87140  Biso   1.000  C
  C12      1.0000 0.80120  0.19410  0.87140  Biso   1.000  C
  O25      1.0000 0.08240  0.07030  0.22360  Biso   1.000  O
  O26      1.0000 0.58240  0.57030  0.22360  Biso   1.000  O
  O27      1.0000 0.91760  0.07030  0.27640  Biso   1.000  O
  O28      1.0000 0.41760  0.57030  0.27640  Biso   1.000  O
  O29      1.0000 0.91760  0.92970  0.77640  Biso   1.000  O
  O30      1.0000 0.41760  0.42970  0.77640  Biso   1.000  O
  O31      1.0000 0.08240  0.92970  0.72360  Biso   1.000  O
  O32      1.0000 0.58240  0.42970  0.72360  Biso   1.000  O
  O33      1.0000 0.26720  0.98680  0.38310  Biso   1.000  O
  O34      1.0000 0.76720  0.48680  0.38310  Biso   1.000  O
  O35      1.0000 0.73280  0.98680  0.11690  Biso   1.000  O
  O36      1.0000 0.23280  0.48680  0.11690  Biso   1.000  O
  O37      1.0000 0.73280  0.01320  0.61690  Biso   1.000  O
  O38      1.0000 0.23280  0.51320  0.61690  Biso   1.000  O
  O39      1.0000 0.26720  0.01320  0.88310  Biso   1.000  O
  O40      1.0000 0.76720  0.51320  0.88310  Biso   1.000  O
  O41      1.0000 0.08480  0.92570  0.60030  Biso   1.000  O
  O42      1.0000 0.58480  0.42570  0.60030  Biso   1.000  O
  O43      1.0000 0.91520  0.92570  0.89970  Biso   1.000  O
  O44      1.0000 0.41520  0.42570  0.89970  Biso   1.000  O
  O45      1.0000 0.91520  0.07430  0.39970  Biso   1.000  O
  O46      1.0000 0.41520  0.57430  0.39970  Biso   1.000  O
  O47      1.0000 0.08480  0.07430  0.10030  Biso   1.000  O
  O48      1.0000 0.58480  0.57430  0.10030  Biso   1.000  O
  O49      1.0000 0.26200  0.77350  0.39630  Biso   1.000  O
  O50      1.0000 0.76200  0.27350  0.39630  Biso   1.000  O
  O51      1.0000 0.73800  0.77350  0.10370  Biso   1.000  O
  O52      1.0000 0.23800  0.27350  0.10370  Biso   1.000  O
  O53      1.0000 0.73800  0.22650  0.60370  Biso   1.000  O
  O54      1.0000 0.23800  0.72650  0.60370  Biso   1.000  O
  O55      1.0000 0.26200  0.22650  0.89630  Biso   1.000  O
  O56      1.0000 0.76200  0.72650  0.89630  Biso   1.000  O
  H5       1.0000 0.24150  0.76540  0.41260  Biso   1.000  H
  H6       1.0000 0.74150  0.26540  0.41260  Biso   1.000  H
  H7       1.0000 0.75850  0.76540  0.08740  Biso   1.000  H
  H8       1.0000 0.25850  0.26540  0.08740  Biso   1.000  H
  H9       1.0000 0.75850  0.23460  0.58740  Biso   1.000  H
  H10      1.0000 0.25850  0.73460  0.58740  Biso   1.000  H
  H11      1.0000 0.24150  0.23460  0.91260  Biso   1.000  H
  H12      1.0000 0.74150  0.73460  0.91260  Biso   1.000  H
  O57      1.0000 0.15890  0.85200  0.60460  Biso   1.000  O
  O58      1.0000 0.65890  0.35200  0.60460  Biso   1.000  O
  O59      1.0000 0.84110  0.85200  0.89540  Biso   1.000  O
  O60      1.0000 0.34110  0.35200  0.89540  Biso   1.000  O
  O61      1.0000 0.84110  0.14800  0.39540  Biso   1.000  O
  O62      1.0000 0.34110  0.64800  0.39540  Biso   1.000  O
  O63      1.0000 0.15890  0.14800  0.10460  Biso   1.000  O
  O64      1.0000 0.65890  0.64800  0.10460  Biso   1.000  O
  O65      1.0000 0.17680  0.77560  0.42520  Biso   1.000  O
  O66      1.0000 0.67680  0.27560  0.42520  Biso   1.000  O
  O67      1.0000 0.82320  0.77560  0.07480  Biso   1.000  O
  O68      1.0000 0.32320  0.27560  0.07480  Biso   1.000  O
  O69      1.0000 0.82320  0.22440  0.57480  Biso   1.000  O
  O70      1.0000 0.32320  0.72440  0.57480  Biso   1.000  O
  O71      1.0000 0.17680  0.22440  0.92520  Biso   1.000  O
  O72      1.0000 0.67680  0.72440  0.92520  Biso   1.000  O
  O73      1.0000 0.32960  0.22220  0.22310  Biso   1.000  O
  O74      1.0000 0.82960  0.72220  0.22310  Biso   1.000  O
  O75      1.0000 0.67040  0.22220  0.27690  Biso   1.000  O
  O76      1.0000 0.17040  0.72220  0.27690  Biso   1.000  O
  O77      1.0000 0.67040  0.77780  0.77690  Biso   1.000  O
  O78      1.0000 0.17040  0.27780  0.77690  Biso   1.000  O
  O79      1.0000 0.32960  0.77780  0.72310  Biso   1.000  O
  O80      1.0000 0.82960  0.27780  0.72310  Biso   1.000  O
  O81      1.0000 0.30630  0.83580  0.31950  Biso   1.000  O
  O82      1.0000 0.80630  0.33580  0.31950  Biso   1.000  O
  O83      1.0000 0.69370  0.83580  0.18050  Biso   1.000  O
  O84      1.0000 0.19370  0.33580  0.18050  Biso   1.000  O
  O85      1.0000 0.69370  0.16420  0.68050  Biso   1.000  O
  O86      1.0000 0.19370  0.66420  0.68050  Biso   1.000  O
  O87      1.0000 0.30630  0.16420  0.81950  Biso   1.000  O
  O88      1.0000 0.80630  0.66420  0.81950  Biso   1.000  O
  C13      1.0000 0.15320  0.84860  0.40300  Biso   1.000  C
  C14      1.0000 0.65320  0.34860  0.40300  Biso   1.000  C
  C15      1.0000 0.84680  0.84860  0.09700  Biso   1.000  C
  C16      1.0000 0.34680  0.34860  0.09700  Biso   1.000  C
  C17      1.0000 0.84680  0.15140  0.59700  Biso   1.000  C
  C18      1.0000 0.34680  0.65140  0.59700  Biso   1.000  C
  C19      1.0000 0.15320  0.15140  0.90300  Biso   1.000  C
  C20      1.0000 0.65320  0.65140  0.90300  Biso   1.000  C
  C21      1.0000 0.25320  0.05760  0.35370  Biso   1.000  C
  C22      1.0000 0.75320  0.55760  0.35370  Biso   1.000  C
  C23      1.0000 0.74680  0.05760  0.14630  Biso   1.000  C
  C24      1.0000 0.24680  0.55760  0.14630  Biso   1.000  C
  C25      1.0000 0.74680  0.94240  0.64630  Biso   1.000  C
  C26      1.0000 0.24680  0.44240  0.64630  Biso   1.000  C
  C27      1.0000 0.25320  0.94240  0.85370  Biso   1.000  C
  C28      1.0000 0.75320  0.44240  0.85370  Biso   1.000  C
  C29      1.0000 0.27650  0.22150  0.34610  Biso   1.000  C
  C30      1.0000 0.77650  0.72150  0.34610  Biso   1.000  C
  C31      1.0000 0.72350  0.22150  0.15390  Biso   1.000  C
  C32      1.0000 0.22350  0.72150  0.15390  Biso   1.000  C
  C33      1.0000 0.72350  0.77850  0.65390  Biso   1.000  C
  C34      1.0000 0.22350  0.27850  0.65390  Biso   1.000  C
  C35      1.0000 0.27650  0.77850  0.84610  Biso   1.000  C
  C36      1.0000 0.77650  0.27850  0.84610  Biso   1.000  C
  H13      1.0000 0.25970  0.21610  0.30640  Biso   1.000  H
  H14      1.0000 0.75970  0.71610  0.30640  Biso   1.000  H
  H15      1.0000 0.74030  0.21610  0.19360  Biso   1.000  H
  H16      1.0000 0.24030  0.71610  0.19360  Biso   1.000  H
  H17      1.0000 0.74030  0.78390  0.69360  Biso   1.000  H
  H18      1.0000 0.24030  0.28390  0.69360  Biso   1.000  H
  H19      1.0000 0.25970  0.78390  0.80640  Biso   1.000  H
  H20      1.0000 0.75970  0.28390  0.80640  Biso   1.000  H
  C37      1.0000 0.04260  0.93370  0.24300  Biso   1.000  C
  C38      1.0000 0.54260  0.43370  0.24300  Biso   1.000  C
  C39      1.0000 0.95740  0.93370  0.25700  Biso   1.000  C
  C40      1.0000 0.45740  0.43370  0.25700  Biso   1.000  C
  C41      1.0000 0.95740  0.06630  0.75700  Biso   1.000  C
  C42      1.0000 0.45740  0.56630  0.75700  Biso   1.000  C
  C43      1.0000 0.04260  0.06630  0.74300  Biso   1.000  C
  C44      1.0000 0.54260  0.56630  0.74300  Biso   1.000  C
  O89      1.0000 0.15590  0.88540  0.35940  Biso   1.000  O
  O90      1.0000 0.65590  0.38540  0.35940  Biso   1.000  O
  O91      1.0000 0.84410  0.88540  0.14060  Biso   1.000  O
  O92      1.0000 0.34410  0.38540  0.14060  Biso   1.000  O
  O93      1.0000 0.84410  0.11460  0.64060  Biso   1.000  O
  O94      1.0000 0.34410  0.61460  0.64060  Biso   1.000  O
  O95      1.0000 0.15590  0.11460  0.85940  Biso   1.000  O
  O96      1.0000 0.65590  0.61460  0.85940  Biso   1.000  O
  C45      1.0000 0.27700  0.14730  0.37980  Biso   1.000  C
  C46      1.0000 0.77700  0.64730  0.37980  Biso   1.000  C
  C47      1.0000 0.72300  0.14730  0.12020  Biso   1.000  C
  C48      1.0000 0.22300  0.64730  0.12020  Biso   1.000  C
  C49      1.0000 0.72300  0.85270  0.62020  Biso   1.000  C
  C50      1.0000 0.22300  0.35270  0.62020  Biso   1.000  C
  C51      1.0000 0.27700  0.85270  0.87980  Biso   1.000  C
  C52      1.0000 0.77700  0.35270  0.87980  Biso   1.000  C
  C53      1.0000 0.12920  0.87300  0.48650  Biso   1.000  C
  C54      1.0000 0.62920  0.37300  0.48650  Biso   1.000  C
  C55      1.0000 0.87080  0.87300  0.01350  Biso   1.000  C
  C56      1.0000 0.37080  0.37300  0.01350  Biso   1.000  C
  C57      1.0000 0.87080  0.12700  0.51350  Biso   1.000  C
  C58      1.0000 0.37080  0.62700  0.51350  Biso   1.000  C
  C59      1.0000 0.12920  0.12700  0.98650  Biso   1.000  C
  C60      1.0000 0.62920  0.62700  0.98650  Biso   1.000  C
  H21      1.0000 0.15390  0.82600  0.50510  Biso   1.000  H
  H22      1.0000 0.65390  0.32600  0.50510  Biso   1.000  H
  H23      1.0000 0.84610  0.82600  0.99490  Biso   1.000  H
  H24      1.0000 0.34610  0.32600  0.99490  Biso   1.000  H
  H25      1.0000 0.84610  0.17400  0.49490  Biso   1.000  H
  H26      1.0000 0.34610  0.67400  0.49490  Biso   1.000  H
  H27      1.0000 0.15390  0.17400  0.00510  Biso   1.000  H
  H28      1.0000 0.65390  0.67400  0.00510  Biso   1.000  H
  C61      1.0000 0.10110  0.91880  0.51530  Biso   1.000  C
  C62      1.0000 0.60110  0.41880  0.51530  Biso   1.000  C
  C63      1.0000 0.89890  0.91880  0.98470  Biso   1.000  C
  C64      1.0000 0.39890  0.41880  0.98470  Biso   1.000  C
  C65      1.0000 0.89890  0.08120  0.48470  Biso   1.000  C
  C66      1.0000 0.39890  0.58120  0.48470  Biso   1.000  C
  C67      1.0000 0.10110  0.08120  0.01530  Biso   1.000  C
  C68      1.0000 0.60110  0.58120  0.01530  Biso   1.000  C
  N9       1.0000 0.35900  0.98930  0.06080  Biso   1.000  N
  N10      1.0000 0.85900  0.48930  0.06080  Biso   1.000  N
  N11      1.0000 0.64100  0.98930  0.43920  Biso   1.000  N
  N12      1.0000 0.14100  0.48930  0.43920  Biso   1.000  N
  N13      1.0000 0.64100  0.01070  0.93920  Biso   1.000  N
  N14      1.0000 0.14100  0.51070  0.93920  Biso   1.000  N
  N15      1.0000 0.35900  0.01070  0.56080  Biso   1.000  N
  N16      1.0000 0.85900  0.51070  0.56080  Biso   1.000  N
  C69      1.0000 0.11420  0.89730  0.57640  Biso   1.000  C
  C70      1.0000 0.61420  0.39730  0.57640  Biso   1.000  C
  C71      1.0000 0.88580  0.89730  0.92360  Biso   1.000  C
  C72      1.0000 0.38580  0.39730  0.92360  Biso   1.000  C
  C73      1.0000 0.88580  0.10270  0.42360  Biso   1.000  C
  C74      1.0000 0.38580  0.60270  0.42360  Biso   1.000  C
  C75      1.0000 0.11420  0.10270  0.07640  Biso   1.000  C
  C76      1.0000 0.61420  0.60270  0.07640  Biso   1.000  C
  C77      1.0000 0.12060  0.89690  0.43100  Biso   1.000  C
  C78      1.0000 0.62060  0.39690  0.43100  Biso   1.000  C
  C79      1.0000 0.87940  0.89690  0.06900  Biso   1.000  C
  C80      1.0000 0.37940  0.39690  0.06900  Biso   1.000  C
  C81      1.0000 0.87940  0.10310  0.56900  Biso   1.000  C
  C82      1.0000 0.37940  0.60310  0.56900  Biso   1.000  C
  C83      1.0000 0.12060  0.10310  0.93100  Biso   1.000  C
  C84      1.0000 0.62060  0.60310  0.93100  Biso   1.000  C
  C85      1.0000 0.08710  0.98670  0.23360  Biso   1.000  C
  C86      1.0000 0.58710  0.48670  0.23360  Biso   1.000  C
  C87      1.0000 0.91290  0.98670  0.26640  Biso   1.000  C
  C88      1.0000 0.41290  0.48670  0.26640  Biso   1.000  C
  C89      1.0000 0.91290  0.01330  0.76640  Biso   1.000  C
  C90      1.0000 0.41290  0.51330  0.76640  Biso   1.000  C
  C91      1.0000 0.08710  0.01330  0.73360  Biso   1.000  C
  C92      1.0000 0.58710  0.51330  0.73360  Biso   1.000  C
  C93      1.0000 0.08380  0.96740  0.40410  Biso   1.000  C
  C94      1.0000 0.58380  0.46740  0.40410  Biso   1.000  C
  C95      1.0000 0.91620  0.96740  0.09590  Biso   1.000  C
  C96      1.0000 0.41620  0.46740  0.09590  Biso   1.000  C
  C97      1.0000 0.91620  0.03260  0.59590  Biso   1.000  C
  C98      1.0000 0.41620  0.53260  0.59590  Biso   1.000  C
  C99      1.0000 0.08380  0.03260  0.90410  Biso   1.000  C
  C100     1.0000 0.58380  0.53260  0.90410  Biso   1.000  C
  H29      1.0000 0.07860  0.98550  0.36740  Biso   1.000  H
  H30      1.0000 0.57860  0.48550  0.36740  Biso   1.000  H
  H31      1.0000 0.92140  0.98550  0.13260  Biso   1.000  H
  H32      1.0000 0.42140  0.48550  0.13260  Biso   1.000  H
  H33      1.0000 0.92140  0.01450  0.63260  Biso   1.000  H
  H34      1.0000 0.42140  0.51450  0.63260  Biso   1.000  H
  H35      1.0000 0.07860  0.01450  0.86740  Biso   1.000  H
  H36      1.0000 0.57860  0.51450  0.86740  Biso   1.000  H
  N17      1.0000 0.42970  0.85880  0.12340  Biso   1.000  N
  N18      1.0000 0.92970  0.35880  0.12340  Biso   1.000  N
  N19      1.0000 0.57030  0.85880  0.37660  Biso   1.000  N
  N20      1.0000 0.07030  0.35880  0.37660  Biso   1.000  N
  N21      1.0000 0.57030  0.14120  0.87660  Biso   1.000  N
  N22      1.0000 0.07030  0.64120  0.87660  Biso   1.000  N
  N23      1.0000 0.42970  0.14120  0.62340  Biso   1.000  N
  N24      1.0000 0.92970  0.64120  0.62340  Biso   1.000  N
  N25      1.0000 0.49990  0.93110  0.05750  Biso   1.000  N
  N26      1.0000 0.99990  0.43110  0.05750  Biso   1.000  N
  N27      1.0000 0.50010  0.93110  0.44250  Biso   1.000  N
  N28      1.0000 0.00010  0.43110  0.44250  Biso   1.000  N
  N29      1.0000 0.50010  0.06890  0.94250  Biso   1.000  N
  N30      1.0000 0.00010  0.56890  0.94250  Biso   1.000  N
  N31      1.0000 0.49990  0.06890  0.55750  Biso   1.000  N
  N32      1.0000 0.99990  0.56890  0.55750  Biso   1.000  N
  C101     1.0000 0.04110  0.83850  0.24410  Biso   1.000  C
  C102     1.0000 0.54110  0.33850  0.24410  Biso   1.000  C
  C103     1.0000 0.95890  0.83850  0.25590  Biso   1.000  C
  C104     1.0000 0.45890  0.33850  0.25590  Biso   1.000  C
  C105     1.0000 0.95890  0.16150  0.75590  Biso   1.000  C
  C106     1.0000 0.45890  0.66150  0.75590  Biso   1.000  C
  C107     1.0000 0.04110  0.16150  0.74410  Biso   1.000  C
  C108     1.0000 0.54110  0.66150  0.74410  Biso   1.000  C
  H37      1.0000 0.06970  0.80580  0.24060  Biso   1.000  H
  H38      1.0000 0.56970  0.30580  0.24060  Biso   1.000  H
  H39      1.0000 0.93030  0.80580  0.25940  Biso   1.000  H
  H40      1.0000 0.43030  0.30580  0.25940  Biso   1.000  H
  H41      1.0000 0.93030  0.19420  0.75940  Biso   1.000  H
  H42      1.0000 0.43030  0.69420  0.75940  Biso   1.000  H
  H43      1.0000 0.06970  0.19420  0.74060  Biso   1.000  H
  H44      1.0000 0.56970  0.69420  0.74060  Biso   1.000  H
  C109     1.0000 0.53430  0.07830  0.09460  Biso   1.000  C
  C110     1.0000 0.03430  0.57830  0.09460  Biso   1.000  C
  C111     1.0000 0.46570  0.07830  0.40540  Biso   1.000  C
  C112     1.0000 0.96570  0.57830  0.40540  Biso   1.000  C
  C113     1.0000 0.46570  0.92170  0.90540  Biso   1.000  C
  C114     1.0000 0.96570  0.42170  0.90540  Biso   1.000  C
  C115     1.0000 0.53430  0.92170  0.59460  Biso   1.000  C
  C116     1.0000 0.03430  0.42170  0.59460  Biso   1.000  C
  C117     1.0000 0.05440  0.01150  0.43130  Biso   1.000  C
  C118     1.0000 0.55440  0.51150  0.43130  Biso   1.000  C
  C119     1.0000 0.94560  0.01150  0.06870  Biso   1.000  C
  C120     1.0000 0.44560  0.51150  0.06870  Biso   1.000  C
  C121     1.0000 0.94560  0.98850  0.56870  Biso   1.000  C
  C122     1.0000 0.44560  0.48850  0.56870  Biso   1.000  C
  C123     1.0000 0.05440  0.98850  0.93130  Biso   1.000  C
  C124     1.0000 0.55440  0.48850  0.93130  Biso   1.000  C
  H45      1.0000 0.02870  0.05690  0.41210  Biso   1.000  H
  H46      1.0000 0.52870  0.55690  0.41210  Biso   1.000  H
  H47      1.0000 0.97130  0.05690  0.08790  Biso   1.000  H
  H48      1.0000 0.47130  0.55690  0.08790  Biso   1.000  H
  H49      1.0000 0.97130  0.94310  0.58790  Biso   1.000  H
  H50      1.0000 0.47130  0.44310  0.58790  Biso   1.000  H
  H51      1.0000 0.02870  0.94310  0.91210  Biso   1.000  H
  H52      1.0000 0.52870  0.44310  0.91210  Biso   1.000  H
  C125     1.0000 0.54460  0.98660  0.07670  Biso   1.000  C
  C126     1.0000 0.04460  0.48660  0.07670  Biso   1.000  C
  C127     1.0000 0.45540  0.98660  0.42330  Biso   1.000  C
  C128     1.0000 0.95540  0.48660  0.42330  Biso   1.000  C
  C129     1.0000 0.45540  0.01340  0.92330  Biso   1.000  C
  C130     1.0000 0.95540  0.51340  0.92330  Biso   1.000  C
  C131     1.0000 0.54460  0.01340  0.57670  Biso   1.000  C
  C132     1.0000 0.04460  0.51340  0.57670  Biso   1.000  C
  O97      1.0000 0.25770  0.13790  0.21790  Biso   1.000  O
  O98      1.0000 0.75770  0.63790  0.21790  Biso   1.000  O
  O99      1.0000 0.74230  0.13790  0.28210  Biso   1.000  O
  O100     1.0000 0.24230  0.63790  0.28210  Biso   1.000  O
  O101     1.0000 0.74230  0.86210  0.78210  Biso   1.000  O
  O102     1.0000 0.24230  0.36210  0.78210  Biso   1.000  O
  O103     1.0000 0.25770  0.86210  0.71790  Biso   1.000  O
  O104     1.0000 0.75770  0.36210  0.71790  Biso   1.000  O
  O105     1.0000 0.35460  0.74310  0.28740  Biso   1.000  O
  O106     1.0000 0.85460  0.24310  0.28740  Biso   1.000  O
  O107     1.0000 0.64540  0.74310  0.21260  Biso   1.000  O
  O108     1.0000 0.14540  0.24310  0.21260  Biso   1.000  O
  O109     1.0000 0.64540  0.25690  0.71260  Biso   1.000  O
  O110     1.0000 0.14540  0.75690  0.71260  Biso   1.000  O
  O111     1.0000 0.35460  0.25690  0.78740  Biso   1.000  O
  O112     1.0000 0.85460  0.75690  0.78740  Biso   1.000  O
  O113     1.0000 0.31730  0.46120  0.35640  Biso   1.000  O
  O114     1.0000 0.81730  0.96120  0.35640  Biso   1.000  O
  O115     1.0000 0.68270  0.46120  0.14360  Biso   1.000  O
  O116     1.0000 0.18270  0.96120  0.14360  Biso   1.000  O
  O117     1.0000 0.68270  0.53880  0.64360  Biso   1.000  O
  O118     1.0000 0.18270  0.03880  0.64360  Biso   1.000  O
  O119     1.0000 0.31730  0.53880  0.85640  Biso   1.000  O
  O120     1.0000 0.81730  0.03880  0.85640  Biso   1.000  O
  C133     1.0000 0.35730  0.90590  0.27240  Biso   1.000  C
  C134     1.0000 0.85730  0.40590  0.27240  Biso   1.000  C
  C135     1.0000 0.64270  0.90590  0.22760  Biso   1.000  C
  C136     1.0000 0.14270  0.40590  0.22760  Biso   1.000  C
  C137     1.0000 0.64270  0.09410  0.72760  Biso   1.000  C
  C138     1.0000 0.14270  0.59410  0.72760  Biso   1.000  C
  C139     1.0000 0.35730  0.09410  0.77240  Biso   1.000  C
  C140     1.0000 0.85730  0.59410  0.77240  Biso   1.000  C
  C141     1.0000 0.34330  0.06270  0.24030  Biso   1.000  C
  C142     1.0000 0.84330  0.56270  0.24030  Biso   1.000  C
  C143     1.0000 0.65670  0.06270  0.25970  Biso   1.000  C
  C144     1.0000 0.15670  0.56270  0.25970  Biso   1.000  C
  C145     1.0000 0.65670  0.93730  0.75970  Biso   1.000  C
  C146     1.0000 0.15670  0.43730  0.75970  Biso   1.000  C
  C147     1.0000 0.34330  0.93730  0.74030  Biso   1.000  C
  C148     1.0000 0.84330  0.43730  0.74030  Biso   1.000  C
  C149     1.0000 0.30780  0.14730  0.22630  Biso   1.000  C
  C150     1.0000 0.80780  0.64730  0.22630  Biso   1.000  C
  C151     1.0000 0.69220  0.14730  0.27370  Biso   1.000  C
  C152     1.0000 0.19220  0.64730  0.27370  Biso   1.000  C
  C153     1.0000 0.69220  0.85270  0.77370  Biso   1.000  C
  C154     1.0000 0.19220  0.35270  0.77370  Biso   1.000  C
  C155     1.0000 0.30780  0.85270  0.72630  Biso   1.000  C
  C156     1.0000 0.80780  0.35270  0.72630  Biso   1.000  C
  C157     1.0000 0.32850  0.98530  0.26270  Biso   1.000  C
  C158     1.0000 0.82850  0.48530  0.26270  Biso   1.000  C
  C159     1.0000 0.67150  0.98530  0.23730  Biso   1.000  C
  C160     1.0000 0.17150  0.48530  0.23730  Biso   1.000  C
  C161     1.0000 0.67150  0.01470  0.73730  Biso   1.000  C
  C162     1.0000 0.17150  0.51470  0.73730  Biso   1.000  C
  C163     1.0000 0.32850  0.01470  0.76270  Biso   1.000  C
  C164     1.0000 0.82850  0.51470  0.76270  Biso   1.000  C
  H53      1.0000 0.29770  0.98840  0.27140  Biso   1.000  H
  H54      1.0000 0.79770  0.48840  0.27140  Biso   1.000  H
  H55      1.0000 0.70230  0.98840  0.22860  Biso   1.000  H
  H56      1.0000 0.20230  0.48840  0.22860  Biso   1.000  H
  H57      1.0000 0.70230  0.01160  0.72860  Biso   1.000  H
  H58      1.0000 0.20230  0.51160  0.72860  Biso   1.000  H
  H59      1.0000 0.29770  0.01160  0.77140  Biso   1.000  H
  H60      1.0000 0.79770  0.51160  0.77140  Biso   1.000  H
  C165     1.0000 0.30090  0.38430  0.33440  Biso   1.000  C
  C166     1.0000 0.80090  0.88430  0.33440  Biso   1.000  C
  C167     1.0000 0.69910  0.38430  0.16560  Biso   1.000  C
  C168     1.0000 0.19910  0.88430  0.16560  Biso   1.000  C
  C169     1.0000 0.69910  0.61570  0.66560  Biso   1.000  C
  C170     1.0000 0.19910  0.11570  0.66560  Biso   1.000  C
  C171     1.0000 0.30090  0.61570  0.83440  Biso   1.000  C
  C172     1.0000 0.80090  0.11570  0.83440  Biso   1.000  C
  C173     1.0000 0.32660  0.31190  0.43010  Biso   1.000  C
  C174     1.0000 0.82660  0.81190  0.43010  Biso   1.000  C
  C175     1.0000 0.67340  0.31190  0.06990  Biso   1.000  C
  C176     1.0000 0.17340  0.81190  0.06990  Biso   1.000  C
  C177     1.0000 0.67340  0.68810  0.56990  Biso   1.000  C
  C178     1.0000 0.17340  0.18810  0.56990  Biso   1.000  C
  C179     1.0000 0.32660  0.68810  0.93010  Biso   1.000  C
  C180     1.0000 0.82660  0.18810  0.93010  Biso   1.000  C
  H61      1.0000 0.34400  0.36630  0.44740  Biso   1.000  H
  H62      1.0000 0.84400  0.86630  0.44740  Biso   1.000  H
  H63      1.0000 0.65600  0.36630  0.05260  Biso   1.000  H
  H64      1.0000 0.15600  0.86630  0.05260  Biso   1.000  H
  H65      1.0000 0.65600  0.63370  0.55260  Biso   1.000  H
  H66      1.0000 0.15600  0.13370  0.55260  Biso   1.000  H
  H67      1.0000 0.34400  0.63370  0.94740  Biso   1.000  H
  H68      1.0000 0.84400  0.13370  0.94740  Biso   1.000  H
  C181     1.0000 0.33810  0.82300  0.29480  Biso   1.000  C
  C182     1.0000 0.83810  0.32300  0.29480  Biso   1.000  C
  C183     1.0000 0.66190  0.82300  0.20520  Biso   1.000  C
  C184     1.0000 0.16190  0.32300  0.20520  Biso   1.000  C
  C185     1.0000 0.66190  0.17700  0.70520  Biso   1.000  C
  C186     1.0000 0.16190  0.67700  0.70520  Biso   1.000  C
  C187     1.0000 0.33810  0.17700  0.79480  Biso   1.000  C
  C188     1.0000 0.83810  0.67700  0.79480  Biso   1.000  C
  C189     1.0000 0.40380  0.89900  0.26050  Biso   1.000  C
  C190     1.0000 0.90380  0.39900  0.26050  Biso   1.000  C
  C191     1.0000 0.59620  0.89900  0.23950  Biso   1.000  C
  C192     1.0000 0.09620  0.39900  0.23950  Biso   1.000  C
  C193     1.0000 0.59620  0.10100  0.73950  Biso   1.000  C
  C194     1.0000 0.09620  0.60100  0.73950  Biso   1.000  C
  C195     1.0000 0.40380  0.10100  0.76050  Biso   1.000  C
  C196     1.0000 0.90380  0.60100  0.76050  Biso   1.000  C
  H69      1.0000 0.42350  0.84420  0.26630  Biso   1.000  H
  H70      1.0000 0.92350  0.34420  0.26630  Biso   1.000  H
  H71      1.0000 0.57650  0.84420  0.23370  Biso   1.000  H
  H72      1.0000 0.07650  0.34420  0.23370  Biso   1.000  H
  H73      1.0000 0.57650  0.15580  0.73370  Biso   1.000  H
  H74      1.0000 0.07650  0.65580  0.73370  Biso   1.000  H
  H75      1.0000 0.42350  0.15580  0.76630  Biso   1.000  H
  H76      1.0000 0.92350  0.65580  0.76630  Biso   1.000  H
  C197     1.0000 0.06360  0.98790  0.48640  Biso   1.000  C
  C198     1.0000 0.56360  0.48790  0.48640  Biso   1.000  C
  C199     1.0000 0.93640  0.98790  0.01360  Biso   1.000  C
  C200     1.0000 0.43640  0.48790  0.01360  Biso   1.000  C
  C201     1.0000 0.93640  0.01210  0.51360  Biso   1.000  C
  C202     1.0000 0.43640  0.51210  0.51360  Biso   1.000  C
  C203     1.0000 0.06360  0.01210  0.98640  Biso   1.000  C
  C204     1.0000 0.56360  0.51210  0.98640  Biso   1.000  C
  H77      1.0000 0.04440  0.01850  0.50460  Biso   1.000  H
  H78      1.0000 0.54440  0.51850  0.50460  Biso   1.000  H
  H79      1.0000 0.95560  0.01850  0.99540  Biso   1.000  H
  H80      1.0000 0.45560  0.51850  0.99540  Biso   1.000  H
  H81      1.0000 0.95560  0.98150  0.49540  Biso   1.000  H
  H82      1.0000 0.45560  0.48150  0.49540  Biso   1.000  H
  H83      1.0000 0.04440  0.98150  0.00460  Biso   1.000  H
  H84      1.0000 0.54440  0.48150  0.00460  Biso   1.000  H
  C205     1.0000 0.39120  0.05940  0.23020  Biso   1.000  C
  C206     1.0000 0.89120  0.55940  0.23020  Biso   1.000  C
  C207     1.0000 0.60880  0.05940  0.26980  Biso   1.000  C
  C208     1.0000 0.10880  0.55940  0.26980  Biso   1.000  C
  C209     1.0000 0.60880  0.94060  0.76980  Biso   1.000  C
  C210     1.0000 0.10880  0.44060  0.76980  Biso   1.000  C
  C211     1.0000 0.39120  0.94060  0.73020  Biso   1.000  C
  C212     1.0000 0.89120  0.44060  0.73020  Biso   1.000  C
  H85      1.0000 0.40360  0.11120  0.21760  Biso   1.000  H
  H86      1.0000 0.90360  0.61120  0.21760  Biso   1.000  H
  H87      1.0000 0.59640  0.11120  0.28240  Biso   1.000  H
  H88      1.0000 0.09640  0.61120  0.28240  Biso   1.000  H
  H89      1.0000 0.59640  0.88880  0.78240  Biso   1.000  H
  H90      1.0000 0.09640  0.38880  0.78240  Biso   1.000  H
  H91      1.0000 0.40360  0.88880  0.71760  Biso   1.000  H
  H92      1.0000 0.90360  0.38880  0.71760  Biso   1.000  H
  C213     1.0000 0.00000  0.79060  0.25000  Biso   1.000  C
  C214     1.0000 0.50000  0.29060  0.25000  Biso   1.000  C
  C215     1.0000 0.00000  0.20940  0.75000  Biso   1.000  C
  C216     1.0000 0.50000  0.70940  0.75000  Biso   1.000  C
  H93      1.0000 0.00000  0.72660  0.25000  Biso   1.000  H
  H94      1.0000 0.50000  0.22660  0.25000  Biso   1.000  H
  H95      1.0000 0.00000  0.27340  0.75000  Biso   1.000  H
  H96      1.0000 0.50000  0.77340  0.75000  Biso   1.000  H
  C217     1.0000 0.32660  0.05920  0.03550  Biso   1.000  C
  C218     1.0000 0.82660  0.55920  0.03550  Biso   1.000  C
  C219     1.0000 0.67340  0.05920  0.46450  Biso   1.000  C
  C220     1.0000 0.17340  0.55920  0.46450  Biso   1.000  C
  C221     1.0000 0.67340  0.94080  0.96450  Biso   1.000  C
  C222     1.0000 0.17340  0.44080  0.96450  Biso   1.000  C
  C223     1.0000 0.32660  0.94080  0.53550  Biso   1.000  C
  C224     1.0000 0.82660  0.44080  0.53550  Biso   1.000  C
  H97      1.0000 0.33870  0.09910  0.01460  Biso   1.000  H
  H98      1.0000 0.83870  0.59910  0.01460  Biso   1.000  H
  H99      1.0000 0.66130  0.09910  0.48540  Biso   1.000  H
  H100     1.0000 0.16130  0.59910  0.48540  Biso   1.000  H
  H101     1.0000 0.66130  0.90090  0.98540  Biso   1.000  H
  H102     1.0000 0.16130  0.40090  0.98540  Biso   1.000  H
  H103     1.0000 0.33870  0.90090  0.51460  Biso   1.000  H
  H104     1.0000 0.83870  0.40090  0.51460  Biso   1.000  H
  C225     1.0000 0.30200  0.15660  0.43860  Biso   1.000  C
  C226     1.0000 0.80200  0.65660  0.43860  Biso   1.000  C
  C227     1.0000 0.69800  0.15660  0.06140  Biso   1.000  C
  C228     1.0000 0.19800  0.65660  0.06140  Biso   1.000  C
  C229     1.0000 0.69800  0.84340  0.56140  Biso   1.000  C
  C230     1.0000 0.19800  0.34340  0.56140  Biso   1.000  C
  C231     1.0000 0.30200  0.84340  0.93860  Biso   1.000  C
  C232     1.0000 0.80200  0.34340  0.93860  Biso   1.000  C
  H105     1.0000 0.30220  0.10680  0.46160  Biso   1.000  H
  H106     1.0000 0.80220  0.60680  0.46160  Biso   1.000  H
  H107     1.0000 0.69780  0.10680  0.03840  Biso   1.000  H
  H108     1.0000 0.19780  0.60680  0.03840  Biso   1.000  H
  H109     1.0000 0.69780  0.89320  0.53840  Biso   1.000  H
  H110     1.0000 0.19780  0.39320  0.53840  Biso   1.000  H
  H111     1.0000 0.30220  0.89320  0.96160  Biso   1.000  H
  H112     1.0000 0.80220  0.39320  0.96160  Biso   1.000  H
  C233     1.0000 0.41980  0.97660  0.23950  Biso   1.000  C
  C234     1.0000 0.91980  0.47660  0.23950  Biso   1.000  C
  C235     1.0000 0.58020  0.97660  0.26050  Biso   1.000  C
  C236     1.0000 0.08020  0.47660  0.26050  Biso   1.000  C
  C237     1.0000 0.58020  0.02340  0.76050  Biso   1.000  C
  C238     1.0000 0.08020  0.52340  0.76050  Biso   1.000  C
  C239     1.0000 0.41980  0.02340  0.73950  Biso   1.000  C
  C240     1.0000 0.91980  0.52340  0.73950  Biso   1.000  C
  H113     1.0000 0.45080  0.97300  0.23140  Biso   1.000  H
  H114     1.0000 0.95080  0.47300  0.23140  Biso   1.000  H
  H115     1.0000 0.54920  0.97300  0.26860  Biso   1.000  H
  H116     1.0000 0.04920  0.47300  0.26860  Biso   1.000  H
  H117     1.0000 0.54920  0.02700  0.76860  Biso   1.000  H
  H118     1.0000 0.04920  0.52700  0.76860  Biso   1.000  H
  H119     1.0000 0.45080  0.02700  0.73140  Biso   1.000  H
  H120     1.0000 0.95080  0.52700  0.73140  Biso   1.000  H
  C241     1.0000 0.32620  0.23720  0.46380  Biso   1.000  C
  C242     1.0000 0.82620  0.73720  0.46380  Biso   1.000  C
  C243     1.0000 0.67380  0.23720  0.03620  Biso   1.000  C
  C244     1.0000 0.17380  0.73720  0.03620  Biso   1.000  C
  C245     1.0000 0.67380  0.76280  0.53620  Biso   1.000  C
  C246     1.0000 0.17380  0.26280  0.53620  Biso   1.000  C
  C247     1.0000 0.32620  0.76280  0.96380  Biso   1.000  C
  C248     1.0000 0.82620  0.26280  0.96380  Biso   1.000  C
  H121     1.0000 0.34250  0.24220  0.50350  Biso   1.000  H
  H122     1.0000 0.84250  0.74220  0.50350  Biso   1.000  H
  H123     1.0000 0.65750  0.24220  0.99650  Biso   1.000  H
  H124     1.0000 0.15750  0.74220  0.99650  Biso   1.000  H
  H125     1.0000 0.65750  0.75780  0.49650  Biso   1.000  H
  H126     1.0000 0.15750  0.25780  0.49650  Biso   1.000  H
  H127     1.0000 0.34250  0.75780  0.00350  Biso   1.000  H
  H128     1.0000 0.84250  0.25780  0.00350  Biso   1.000  H
  C249     1.0000 0.59550  0.95720  0.07840  Biso   1.000  C
  C250     1.0000 0.09550  0.45720  0.07840  Biso   1.000  C
  C251     1.0000 0.40450  0.95720  0.42160  Biso   1.000  C
  C252     1.0000 0.90450  0.45720  0.42160  Biso   1.000  C
  C253     1.0000 0.40450  0.04280  0.92160  Biso   1.000  C
  C254     1.0000 0.90450  0.54280  0.92160  Biso   1.000  C
  C255     1.0000 0.59550  0.04280  0.57840  Biso   1.000  C
  C256     1.0000 0.09550  0.54280  0.57840  Biso   1.000  C
  H129     1.0000 0.62600  0.99630  0.09180  Biso   1.000  H
  H130     1.0000 0.12600  0.49630  0.09180  Biso   1.000  H
  H131     1.0000 0.37400  0.99630  0.40820  Biso   1.000  H
  H132     1.0000 0.87400  0.49630  0.40820  Biso   1.000  H
  H133     1.0000 0.37400  0.00370  0.90820  Biso   1.000  H
  H134     1.0000 0.87400  0.50370  0.90820  Biso   1.000  H
  H135     1.0000 0.62600  0.00370  0.59180  Biso   1.000  H
  H136     1.0000 0.12600  0.50370  0.59180  Biso   1.000  H
  C257     1.0000 0.34160  0.93110  0.09080  Biso   1.000  C
  C258     1.0000 0.84160  0.43110  0.09080  Biso   1.000  C
  C259     1.0000 0.65840  0.93110  0.40920  Biso   1.000  C
  C260     1.0000 0.15840  0.43110  0.40920  Biso   1.000  C
  C261     1.0000 0.65840  0.06890  0.90920  Biso   1.000  C
  C262     1.0000 0.15840  0.56890  0.90920  Biso   1.000  C
  C263     1.0000 0.34160  0.06890  0.59080  Biso   1.000  C
  C264     1.0000 0.84160  0.56890  0.59080  Biso   1.000  C
  C265     1.0000 0.37720  0.85080  0.11870  Biso   1.000  C
  C266     1.0000 0.87720  0.35080  0.11870  Biso   1.000  C
  C267     1.0000 0.62280  0.85080  0.38130  Biso   1.000  C
  C268     1.0000 0.12280  0.35080  0.38130  Biso   1.000  C
  C269     1.0000 0.62280  0.14920  0.88130  Biso   1.000  C
  C270     1.0000 0.12280  0.64920  0.88130  Biso   1.000  C
  C271     1.0000 0.37720  0.14920  0.61870  Biso   1.000  C
  C272     1.0000 0.87720  0.64920  0.61870  Biso   1.000  C
  C273     1.0000 0.50580  0.84550  0.03990  Biso   1.000  C
  C274     1.0000 0.00580  0.34550  0.03990  Biso   1.000  C
  C275     1.0000 0.49420  0.84550  0.46010  Biso   1.000  C
  C276     1.0000 0.99420  0.34550  0.46010  Biso   1.000  C
  C277     1.0000 0.49420  0.15450  0.96010  Biso   1.000  C
  C278     1.0000 0.99420  0.65450  0.96010  Biso   1.000  C
  C279     1.0000 0.50580  0.15450  0.53990  Biso   1.000  C
  C280     1.0000 0.00580  0.65450  0.53990  Biso   1.000  C
  H137     1.0000 0.47570  0.80560  0.02750  Biso   1.000  H
  H138     1.0000 0.97570  0.30560  0.02750  Biso   1.000  H
  H139     1.0000 0.52430  0.80560  0.47250  Biso   1.000  H
  H140     1.0000 0.02430  0.30560  0.47250  Biso   1.000  H
  H141     1.0000 0.52430  0.19440  0.97250  Biso   1.000  H
  H142     1.0000 0.02430  0.69440  0.97250  Biso   1.000  H
  H143     1.0000 0.47570  0.19440  0.52750  Biso   1.000  H
  H144     1.0000 0.97570  0.69440  0.52750  Biso   1.000  H
  C281     1.0000 0.27680  0.07820  0.03720  Biso   1.000  C
  C282     1.0000 0.77680  0.57820  0.03720  Biso   1.000  C
  C283     1.0000 0.72320  0.07820  0.46280  Biso   1.000  C
  C284     1.0000 0.22320  0.57820  0.46280  Biso   1.000  C
  C285     1.0000 0.72320  0.92180  0.96280  Biso   1.000  C
  C286     1.0000 0.22320  0.42180  0.96280  Biso   1.000  C
  C287     1.0000 0.27680  0.92180  0.53720  Biso   1.000  C
  C288     1.0000 0.77680  0.42180  0.53720  Biso   1.000  C
  H145     1.0000 0.25560  0.12830  0.01750  Biso   1.000  H
  H146     1.0000 0.75560  0.62830  0.01750  Biso   1.000  H
  H147     1.0000 0.74440  0.12830  0.48250  Biso   1.000  H
  H148     1.0000 0.24440  0.62830  0.48250  Biso   1.000  H
  H149     1.0000 0.74440  0.87170  0.98250  Biso   1.000  H
  H150     1.0000 0.24440  0.37170  0.98250  Biso   1.000  H
  H151     1.0000 0.25560  0.87170  0.51750  Biso   1.000  H
  H152     1.0000 0.75560  0.37170  0.51750  Biso   1.000  H
  C289     1.0000 0.25920  0.02170  0.06840  Biso   1.000  C
  C290     1.0000 0.75920  0.52170  0.06840  Biso   1.000  C
  C291     1.0000 0.74080  0.02170  0.43160  Biso   1.000  C
  C292     1.0000 0.24080  0.52170  0.43160  Biso   1.000  C
  C293     1.0000 0.74080  0.97830  0.93160  Biso   1.000  C
  C294     1.0000 0.24080  0.47830  0.93160  Biso   1.000  C
  C295     1.0000 0.25920  0.97830  0.56840  Biso   1.000  C
  C296     1.0000 0.75920  0.47830  0.56840  Biso   1.000  C
  H153     1.0000 0.22580  0.03260  0.07120  Biso   1.000  H
  H154     1.0000 0.72580  0.53260  0.07120  Biso   1.000  H
  H155     1.0000 0.77420  0.03260  0.42880  Biso   1.000  H
  H156     1.0000 0.27420  0.53260  0.42880  Biso   1.000  H
  H157     1.0000 0.77420  0.96740  0.92880  Biso   1.000  H
  H158     1.0000 0.27420  0.46740  0.92880  Biso   1.000  H
  H159     1.0000 0.22580  0.96740  0.57120  Biso   1.000  H
  H160     1.0000 0.72580  0.46740  0.57120  Biso   1.000  H
  C297     1.0000 0.55580  0.81530  0.03980  Biso   1.000  C
  C298     1.0000 0.05580  0.31530  0.03980  Biso   1.000  C
  C299     1.0000 0.44420  0.81530  0.46020  Biso   1.000  C
  C300     1.0000 0.94420  0.31530  0.46020  Biso   1.000  C
  C301     1.0000 0.44420  0.18470  0.96020  Biso   1.000  C
  C302     1.0000 0.94420  0.68470  0.96020  Biso   1.000  C
  C303     1.0000 0.55580  0.18470  0.53980  Biso   1.000  C
  C304     1.0000 0.05580  0.68470  0.53980  Biso   1.000  C
  H161     1.0000 0.55820  0.75720  0.02570  Biso   1.000  H
  H162     1.0000 0.05820  0.25720  0.02570  Biso   1.000  H
  H163     1.0000 0.44180  0.75720  0.47430  Biso   1.000  H
  H164     1.0000 0.94180  0.25720  0.47430  Biso   1.000  H
  H165     1.0000 0.44180  0.24280  0.97430  Biso   1.000  H
  H166     1.0000 0.94180  0.74280  0.97430  Biso   1.000  H
  H167     1.0000 0.55820  0.24280  0.52570  Biso   1.000  H
  H168     1.0000 0.05820  0.74280  0.52570  Biso   1.000  H
  C305     1.0000 0.46500  0.78820  0.14650  Biso   1.000  C
  C306     1.0000 0.96500  0.28820  0.14650  Biso   1.000  C
  C307     1.0000 0.53500  0.78820  0.35350  Biso   1.000  C
  C308     1.0000 0.03500  0.28820  0.35350  Biso   1.000  C
  C309     1.0000 0.53500  0.21180  0.85350  Biso   1.000  C
  C310     1.0000 0.03500  0.71180  0.85350  Biso   1.000  C
  C311     1.0000 0.46500  0.21180  0.64650  Biso   1.000  C
  C312     1.0000 0.96500  0.71180  0.64650  Biso   1.000  C
  H169     1.0000 0.50100  0.79310  0.14950  Biso   1.000  H
  H170     1.0000 0.00100  0.29310  0.14950  Biso   1.000  H
  H171     1.0000 0.49900  0.79310  0.35050  Biso   1.000  H
  H172     1.0000 0.99900  0.29310  0.35050  Biso   1.000  H
  H173     1.0000 0.49900  0.20690  0.85050  Biso   1.000  H
  H174     1.0000 0.99900  0.70690  0.85050  Biso   1.000  H
  H175     1.0000 0.50100  0.20690  0.64950  Biso   1.000  H
  H176     1.0000 0.00100  0.70690  0.64950  Biso   1.000  H
  C313     1.0000 0.47180  0.17350  0.10980  Biso   1.000  C
  C314     1.0000 0.97180  0.67350  0.10980  Biso   1.000  C
  C315     1.0000 0.52820  0.17350  0.39020  Biso   1.000  C
  C316     1.0000 0.02820  0.67350  0.39020  Biso   1.000  C
  C317     1.0000 0.52820  0.82650  0.89020  Biso   1.000  C
  C318     1.0000 0.02820  0.32650  0.89020  Biso   1.000  C
  C319     1.0000 0.47180  0.82650  0.60980  Biso   1.000  C
  C320     1.0000 0.97180  0.32650  0.60980  Biso   1.000  C
  H177     1.0000 0.43800  0.18060  0.11240  Biso   1.000  H
  H178     1.0000 0.93800  0.68060  0.11240  Biso   1.000  H
  H179     1.0000 0.56200  0.18060  0.38760  Biso   1.000  H
  H180     1.0000 0.06200  0.68060  0.38760  Biso   1.000  H
  H181     1.0000 0.56200  0.81940  0.88760  Biso   1.000  H
  H182     1.0000 0.06200  0.31940  0.88760  Biso   1.000  H
  H183     1.0000 0.43800  0.81940  0.61240  Biso   1.000  H
  H184     1.0000 0.93800  0.31940  0.61240  Biso   1.000  H
  C321     1.0000 0.60000  0.87000  0.06000  Biso   1.000  C
  C322     1.0000 0.10000  0.37000  0.06000  Biso   1.000  C
  C323     1.0000 0.40000  0.87000  0.44000  Biso   1.000  C
  C324     1.0000 0.90000  0.37000  0.44000  Biso   1.000  C
  C325     1.0000 0.40000  0.13000  0.94000  Biso   1.000  C
  C326     1.0000 0.90000  0.63000  0.94000  Biso   1.000  C
  C327     1.0000 0.60000  0.13000  0.56000  Biso   1.000  C
  C328     1.0000 0.10000  0.63000  0.56000  Biso   1.000  C
  H185     1.0000 0.63380  0.84930  0.06160  Biso   1.000  H
  H186     1.0000 0.13380  0.34930  0.06160  Biso   1.000  H
  H187     1.0000 0.36620  0.84930  0.43840  Biso   1.000  H
  H188     1.0000 0.86620  0.34930  0.43840  Biso   1.000  H
  H189     1.0000 0.36620  0.15070  0.93840  Biso   1.000  H
  H190     1.0000 0.86620  0.65070  0.93840  Biso   1.000  H
  H191     1.0000 0.63380  0.15070  0.56160  Biso   1.000  H
  H192     1.0000 0.13380  0.65070  0.56160  Biso   1.000  H
  C329     1.0000 0.44960  0.70950  0.16560  Biso   1.000  C
  C330     1.0000 0.94960  0.20950  0.16560  Biso   1.000  C
  C331     1.0000 0.55040  0.70950  0.33440  Biso   1.000  C
  C332     1.0000 0.05040  0.20950  0.33440  Biso   1.000  C
  C333     1.0000 0.55040  0.29050  0.83440  Biso   1.000  C
  C334     1.0000 0.05040  0.79050  0.83440  Biso   1.000  C
  C335     1.0000 0.44960  0.29050  0.66560  Biso   1.000  C
  C336     1.0000 0.94960  0.79050  0.66560  Biso   1.000  C
  H193     1.0000 0.47490  0.66220  0.18180  Biso   1.000  H
  H194     1.0000 0.97490  0.16220  0.18180  Biso   1.000  H
  H195     1.0000 0.52510  0.66220  0.31820  Biso   1.000  H
  H196     1.0000 0.02510  0.16220  0.31820  Biso   1.000  H
  H197     1.0000 0.52510  0.33780  0.81820  Biso   1.000  H
  H198     1.0000 0.02510  0.83780  0.81820  Biso   1.000  H
  H199     1.0000 0.47490  0.33780  0.68180  Biso   1.000  H
  H200     1.0000 0.97490  0.83780  0.68180  Biso   1.000  H
  C337     1.0000 0.29210  0.94710  0.09640  Biso   1.000  C
  C338     1.0000 0.79210  0.44710  0.09640  Biso   1.000  C
  C339     1.0000 0.70790  0.94710  0.40360  Biso   1.000  C
  C340     1.0000 0.20790  0.44710  0.40360  Biso   1.000  C
  C341     1.0000 0.70790  0.05290  0.90360  Biso   1.000  C
  C342     1.0000 0.20790  0.55290  0.90360  Biso   1.000  C
  C343     1.0000 0.29210  0.05290  0.59640  Biso   1.000  C
  C344     1.0000 0.79210  0.55290  0.59640  Biso   1.000  C
  H201     1.0000 0.28120  0.90800  0.11860  Biso   1.000  H
  H202     1.0000 0.78120  0.40800  0.11860  Biso   1.000  H
  H203     1.0000 0.71880  0.90800  0.38140  Biso   1.000  H
  H204     1.0000 0.21880  0.40800  0.38140  Biso   1.000  H
  H205     1.0000 0.71880  0.09200  0.88140  Biso   1.000  H
  H206     1.0000 0.21880  0.59200  0.88140  Biso   1.000  H
  H207     1.0000 0.28120  0.09200  0.61860  Biso   1.000  H
  H208     1.0000 0.78120  0.59200  0.61860  Biso   1.000  H
  C345     1.0000 0.36020  0.77070  0.13590  Biso   1.000  C
  C346     1.0000 0.86020  0.27070  0.13590  Biso   1.000  C
  C347     1.0000 0.63980  0.77070  0.36410  Biso   1.000  C
  C348     1.0000 0.13980  0.27070  0.36410  Biso   1.000  C
  C349     1.0000 0.63980  0.22930  0.86410  Biso   1.000  C
  C350     1.0000 0.13980  0.72930  0.86410  Biso   1.000  C
  C351     1.0000 0.36020  0.22930  0.63590  Biso   1.000  C
  C352     1.0000 0.86020  0.72930  0.63590  Biso   1.000  C
  H209     1.0000 0.32360  0.76330  0.13080  Biso   1.000  H
  H210     1.0000 0.82360  0.26330  0.13080  Biso   1.000  H
  H211     1.0000 0.67640  0.76330  0.36920  Biso   1.000  H
  H212     1.0000 0.17640  0.26330  0.36920  Biso   1.000  H
  H213     1.0000 0.67640  0.23670  0.86920  Biso   1.000  H
  H214     1.0000 0.17640  0.73670  0.86920  Biso   1.000  H
  H215     1.0000 0.32360  0.23670  0.63080  Biso   1.000  H
  H216     1.0000 0.82360  0.73670  0.63080  Biso   1.000  H
  C353     1.0000 0.56940  0.15210  0.10400  Biso   1.000  C
  C354     1.0000 0.06940  0.65210  0.10400  Biso   1.000  C
  C355     1.0000 0.43060  0.15210  0.39600  Biso   1.000  C
  C356     1.0000 0.93060  0.65210  0.39600  Biso   1.000  C
  C357     1.0000 0.43060  0.84790  0.89600  Biso   1.000  C
  C358     1.0000 0.93060  0.34790  0.89600  Biso   1.000  C
  C359     1.0000 0.56940  0.84790  0.60400  Biso   1.000  C
  C360     1.0000 0.06940  0.34790  0.60400  Biso   1.000  C
  H217     1.0000 0.60410  0.14350  0.10380  Biso   1.000  H
  H218     1.0000 0.10410  0.64350  0.10380  Biso   1.000  H
  H219     1.0000 0.39590  0.14350  0.39620  Biso   1.000  H
  H220     1.0000 0.89590  0.64350  0.39620  Biso   1.000  H
  H221     1.0000 0.39590  0.85650  0.89620  Biso   1.000  H
  H222     1.0000 0.89590  0.35650  0.89620  Biso   1.000  H
  H223     1.0000 0.60410  0.85650  0.60380  Biso   1.000  H
  H224     1.0000 0.10410  0.35650  0.60380  Biso   1.000  H
  C361     1.0000 0.50440  0.24990  0.11680  Biso   1.000  C
  C362     1.0000 0.00440  0.74990  0.11680  Biso   1.000  C
  C363     1.0000 0.49560  0.24990  0.38320  Biso   1.000  C
  C364     1.0000 0.99560  0.74990  0.38320  Biso   1.000  C
  C365     1.0000 0.49560  0.75010  0.88320  Biso   1.000  C
  C366     1.0000 0.99560  0.25010  0.88320  Biso   1.000  C
  C367     1.0000 0.50440  0.75010  0.61680  Biso   1.000  C
  C368     1.0000 0.00440  0.25010  0.61680  Biso   1.000  C
  H225     1.0000 0.49270  0.30740  0.12350  Biso   1.000  H
  H226     1.0000 0.99270  0.80740  0.12350  Biso   1.000  H
  H227     1.0000 0.50730  0.30740  0.37650  Biso   1.000  H
  H228     1.0000 0.00730  0.80740  0.37650  Biso   1.000  H
  H229     1.0000 0.50730  0.69260  0.87650  Biso   1.000  H
  H230     1.0000 0.00730  0.19260  0.87650  Biso   1.000  H
  H231     1.0000 0.49270  0.69260  0.62350  Biso   1.000  H
  H232     1.0000 0.99270  0.19260  0.62350  Biso   1.000  H
  C369     1.0000 0.55370  0.23960  0.11390  Biso   1.000  C
  C370     1.0000 0.05370  0.73960  0.11390  Biso   1.000  C
  C371     1.0000 0.44630  0.23960  0.38610  Biso   1.000  C
  C372     1.0000 0.94630  0.73960  0.38610  Biso   1.000  C
  C373     1.0000 0.44630  0.76040  0.88610  Biso   1.000  C
  C374     1.0000 0.94630  0.26040  0.88610  Biso   1.000  C
  C375     1.0000 0.55370  0.76040  0.61390  Biso   1.000  C
  C376     1.0000 0.05370  0.26040  0.61390  Biso   1.000  C
  H233     1.0000 0.57680  0.29000  0.11850  Biso   1.000  H
  H234     1.0000 0.07680  0.79000  0.11850  Biso   1.000  H
  H235     1.0000 0.42320  0.29000  0.38150  Biso   1.000  H
  H236     1.0000 0.92320  0.79000  0.38150  Biso   1.000  H
  H237     1.0000 0.42320  0.71000  0.88150  Biso   1.000  H
  H238     1.0000 0.92320  0.21000  0.88150  Biso   1.000  H
  H239     1.0000 0.57680  0.71000  0.61850  Biso   1.000  H
  H240     1.0000 0.07680  0.21000  0.61850  Biso   1.000  H
  C377     1.0000 0.39830  0.70230  0.16060  Biso   1.000  C
  C378     1.0000 0.89830  0.20230  0.16060  Biso   1.000  C
  C379     1.0000 0.60170  0.70230  0.33940  Biso   1.000  C
  C380     1.0000 0.10170  0.20230  0.33940  Biso   1.000  C
  C381     1.0000 0.60170  0.29770  0.83940  Biso   1.000  C
  C382     1.0000 0.10170  0.79770  0.83940  Biso   1.000  C
  C383     1.0000 0.39830  0.29770  0.66060  Biso   1.000  C
  C384     1.0000 0.89830  0.79770  0.66060  Biso   1.000  C
  H241     1.0000 0.38770  0.64960  0.17420  Biso   1.000  H
  H242     1.0000 0.88770  0.14960  0.17420  Biso   1.000  H
  H243     1.0000 0.61230  0.64960  0.32580  Biso   1.000  H
  H244     1.0000 0.11230  0.14960  0.32580  Biso   1.000  H
  H245     1.0000 0.61230  0.35040  0.82580  Biso   1.000  H
  H246     1.0000 0.11230  0.85040  0.82580  Biso   1.000  H
  H247     1.0000 0.38770  0.35040  0.67420  Biso   1.000  H
  H248     1.0000 0.88770  0.85040  0.67420  Biso   1.000  H
