data_image0
_cell_length_a       26.3797
_cell_length_b       14.4378
_cell_length_c       25.4231
_cell_angle_alpha    90
_cell_angle_beta     113.631
_cell_angle_gamma    90

_symmetry_space_group_name_H-M    "P 1"
_symmetry_int_tables_number       1

loop_
  _symmetry_equiv_pos_as_xyz
  'x, y, z'

loop_
  _atom_site_label
  _atom_site_occupancy
  _atom_site_fract_x
  _atom_site_fract_y
  _atom_site_fract_z
  _atom_site_thermal_displace_type
  _atom_site_B_iso_or_equiv
  _atom_site_type_symbol
  Sm1      1.0000 0.21376  0.63500  0.31006  Biso   1.000  Sm
  Sm2      1.0000 0.71376  0.13500  0.31006  Biso   1.000  Sm
  Sm3      1.0000 0.78624  0.63500  0.18994  Biso   1.000  Sm
  Sm4      1.0000 0.28624  0.13500  0.18994  Biso   1.000  Sm
  Sm5      1.0000 0.78624  0.36500  0.68994  Biso   1.000  Sm
  Sm6      1.0000 0.28624  0.86500  0.68994  Biso   1.000  Sm
  Sm7      1.0000 0.21376  0.36500  0.81006  Biso   1.000  Sm
  Sm8      1.0000 0.71376  0.86500  0.81006  Biso   1.000  Sm
  Sm9      1.0000 0.16496  0.41439  0.19794  Biso   1.000  Sm
  Sm10     1.0000 0.66496  0.91439  0.19794  Biso   1.000  Sm
  Sm11     1.0000 0.83504  0.41439  0.30206  Biso   1.000  Sm
  Sm12     1.0000 0.33504  0.91439  0.30206  Biso   1.000  Sm
  Sm13     1.0000 0.83504  0.58561  0.80206  Biso   1.000  Sm
  Sm14     1.0000 0.33504  0.08561  0.80206  Biso   1.000  Sm
  Sm15     1.0000 0.16496  0.58561  0.69794  Biso   1.000  Sm
  Sm16     1.0000 0.66496  0.08561  0.69794  Biso   1.000  Sm
  Cu1      1.0000 0.56023  0.52693  0.42174  Biso   1.000  Cu
  Cu2      1.0000 0.06023  0.02693  0.42174  Biso   1.000  Cu
  Cu3      1.0000 0.43977  0.52693  0.07826  Biso   1.000  Cu
  Cu4      1.0000 0.93977  0.02693  0.07826  Biso   1.000  Cu
  Cu5      1.0000 0.43977  0.47307  0.57826  Biso   1.000  Cu
  Cu6      1.0000 0.93977  0.97307  0.57826  Biso   1.000  Cu
  Cu7      1.0000 0.56023  0.47307  0.92174  Biso   1.000  Cu
  Cu8      1.0000 0.06023  0.97307  0.92174  Biso   1.000  Cu
  C1       1.0000 0.30690  0.35630  0.22580  Biso   1.000  C
  C2       1.0000 0.80690  0.85630  0.22580  Biso   1.000  C
  C3       1.0000 0.69310  0.35630  0.27420  Biso   1.000  C
  C4       1.0000 0.19310  0.85630  0.27420  Biso   1.000  C
  C5       1.0000 0.69310  0.64370  0.77420  Biso   1.000  C
  C6       1.0000 0.19310  0.14370  0.77420  Biso   1.000  C
  C7       1.0000 0.30690  0.64370  0.72580  Biso   1.000  C
  C8       1.0000 0.80690  0.14370  0.72580  Biso   1.000  C
  C9       1.0000 0.34280  0.43940  0.24030  Biso   1.000  C
  C10      1.0000 0.84280  0.93940  0.24030  Biso   1.000  C
  C11      1.0000 0.65720  0.43940  0.25970  Biso   1.000  C
  C12      1.0000 0.15720  0.93940  0.25970  Biso   1.000  C
  C13      1.0000 0.65720  0.56060  0.75970  Biso   1.000  C
  C14      1.0000 0.15720  0.06060  0.75970  Biso   1.000  C
  C15      1.0000 0.34280  0.56060  0.74030  Biso   1.000  C
  C16      1.0000 0.84280  0.06060  0.74030  Biso   1.000  C
  C17      1.0000 0.39060  0.44390  0.23050  Biso   1.000  C
  C18      1.0000 0.89060  0.94390  0.23050  Biso   1.000  C
  C19      1.0000 0.60940  0.44390  0.26950  Biso   1.000  C
  C20      1.0000 0.10940  0.94390  0.26950  Biso   1.000  C
  C21      1.0000 0.60940  0.55610  0.76950  Biso   1.000  C
  C22      1.0000 0.10940  0.05610  0.76950  Biso   1.000  C
  C23      1.0000 0.39060  0.55610  0.73050  Biso   1.000  C
  C24      1.0000 0.89060  0.05610  0.73050  Biso   1.000  C
  H1       1.0000 0.40300  0.39160  0.21780  Biso   1.000  H
  H2       1.0000 0.90300  0.89160  0.21780  Biso   1.000  H
  H3       1.0000 0.59700  0.39160  0.28220  Biso   1.000  H
  H4       1.0000 0.09700  0.89160  0.28220  Biso   1.000  H
  H5       1.0000 0.59700  0.60840  0.78220  Biso   1.000  H
  H6       1.0000 0.09700  0.10840  0.78220  Biso   1.000  H
  H7       1.0000 0.40300  0.60840  0.71780  Biso   1.000  H
  H8       1.0000 0.90300  0.10840  0.71780  Biso   1.000  H
  C25      1.0000 0.41980  0.52440  0.23930  Biso   1.000  C
  C26      1.0000 0.91980  0.02440  0.23930  Biso   1.000  C
  C27      1.0000 0.58020  0.52440  0.26070  Biso   1.000  C
  C28      1.0000 0.08020  0.02440  0.26070  Biso   1.000  C
  C29      1.0000 0.58020  0.47560  0.76070  Biso   1.000  C
  C30      1.0000 0.08020  0.97560  0.76070  Biso   1.000  C
  C31      1.0000 0.41980  0.47560  0.73930  Biso   1.000  C
  C32      1.0000 0.91980  0.97560  0.73930  Biso   1.000  C
  H9       1.0000 0.45130  0.52680  0.23140  Biso   1.000  H
  H10      1.0000 0.95130  0.02680  0.23140  Biso   1.000  H
  H11      1.0000 0.54870  0.52680  0.26860  Biso   1.000  H
  H12      1.0000 0.04870  0.02680  0.26860  Biso   1.000  H
  H13      1.0000 0.54870  0.47320  0.76860  Biso   1.000  H
  H14      1.0000 0.04870  0.97320  0.76860  Biso   1.000  H
  H15      1.0000 0.45130  0.47320  0.73140  Biso   1.000  H
  H16      1.0000 0.95130  0.97320  0.73140  Biso   1.000  H
  C33      1.0000 0.40350  0.60250  0.25950  Biso   1.000  C
  C34      1.0000 0.90350  0.10250  0.25950  Biso   1.000  C
  C35      1.0000 0.59650  0.60250  0.24050  Biso   1.000  C
  C36      1.0000 0.09650  0.10250  0.24050  Biso   1.000  C
  C37      1.0000 0.59650  0.39750  0.74050  Biso   1.000  C
  C38      1.0000 0.09650  0.89750  0.74050  Biso   1.000  C
  C39      1.0000 0.40350  0.39750  0.75950  Biso   1.000  C
  C40      1.0000 0.90350  0.89750  0.75950  Biso   1.000  C
  H17      1.0000 0.42340  0.65730  0.26480  Biso   1.000  H
  H18      1.0000 0.92340  0.15730  0.26480  Biso   1.000  H
  H19      1.0000 0.57660  0.65730  0.23520  Biso   1.000  H
  H20      1.0000 0.07660  0.15730  0.23520  Biso   1.000  H
  H21      1.0000 0.57660  0.34270  0.73520  Biso   1.000  H
  H22      1.0000 0.07660  0.84270  0.73520  Biso   1.000  H
  H23      1.0000 0.42340  0.34270  0.76480  Biso   1.000  H
  H24      1.0000 0.92340  0.84270  0.76480  Biso   1.000  H
  C41      1.0000 0.35670  0.59810  0.27210  Biso   1.000  C
  C42      1.0000 0.85670  0.09810  0.27210  Biso   1.000  C
  C43      1.0000 0.64330  0.59810  0.22790  Biso   1.000  C
  C44      1.0000 0.14330  0.09810  0.22790  Biso   1.000  C
  C45      1.0000 0.64330  0.40190  0.72790  Biso   1.000  C
  C46      1.0000 0.14330  0.90190  0.72790  Biso   1.000  C
  C47      1.0000 0.35670  0.40190  0.77210  Biso   1.000  C
  C48      1.0000 0.85670  0.90190  0.77210  Biso   1.000  C
  C49      1.0000 0.32740  0.51590  0.26220  Biso   1.000  C
  C50      1.0000 0.82740  0.01590  0.26220  Biso   1.000  C
  C51      1.0000 0.67260  0.51590  0.23780  Biso   1.000  C
  C52      1.0000 0.17260  0.01590  0.23780  Biso   1.000  C
  C53      1.0000 0.67260  0.48410  0.73780  Biso   1.000  C
  C54      1.0000 0.17260  0.98410  0.73780  Biso   1.000  C
  C55      1.0000 0.32740  0.48410  0.76220  Biso   1.000  C
  C56      1.0000 0.82740  0.98410  0.76220  Biso   1.000  C
  H25      1.0000 0.29630  0.51250  0.27080  Biso   1.000  H
  H26      1.0000 0.79630  0.01250  0.27080  Biso   1.000  H
  H27      1.0000 0.70370  0.51250  0.22920  Biso   1.000  H
  H28      1.0000 0.20370  0.01250  0.22920  Biso   1.000  H
  H29      1.0000 0.70370  0.48750  0.72920  Biso   1.000  H
  H30      1.0000 0.20370  0.98750  0.72920  Biso   1.000  H
  H31      1.0000 0.29630  0.48750  0.77080  Biso   1.000  H
  H32      1.0000 0.79630  0.98750  0.77080  Biso   1.000  H
  C57      1.0000 0.33650  0.68160  0.29480  Biso   1.000  C
  C58      1.0000 0.83650  0.18160  0.29480  Biso   1.000  C
  C59      1.0000 0.66350  0.68160  0.20520  Biso   1.000  C
  C60      1.0000 0.16350  0.18160  0.20520  Biso   1.000  C
  C61      1.0000 0.66350  0.31840  0.70520  Biso   1.000  C
  C62      1.0000 0.16350  0.81840  0.70520  Biso   1.000  C
  C63      1.0000 0.33650  0.31840  0.79480  Biso   1.000  C
  C64      1.0000 0.83650  0.81840  0.79480  Biso   1.000  C
  C65      1.0000 0.25110  0.44630  0.35230  Biso   1.000  C
  C66      1.0000 0.75110  0.94630  0.35230  Biso   1.000  C
  C67      1.0000 0.74890  0.44630  0.14770  Biso   1.000  C
  C68      1.0000 0.24890  0.94630  0.14770  Biso   1.000  C
  C69      1.0000 0.74890  0.55370  0.64770  Biso   1.000  C
  C70      1.0000 0.24890  0.05370  0.64770  Biso   1.000  C
  C71      1.0000 0.25110  0.55370  0.85230  Biso   1.000  C
  C72      1.0000 0.75110  0.05370  0.85230  Biso   1.000  C
  C73      1.0000 0.27450  0.35510  0.37970  Biso   1.000  C
  C74      1.0000 0.77450  0.85510  0.37970  Biso   1.000  C
  C75      1.0000 0.72550  0.35510  0.12030  Biso   1.000  C
  C76      1.0000 0.22550  0.85510  0.12030  Biso   1.000  C
  C77      1.0000 0.72550  0.64490  0.62030  Biso   1.000  C
  C78      1.0000 0.22550  0.14490  0.62030  Biso   1.000  C
  C79      1.0000 0.27450  0.64490  0.87970  Biso   1.000  C
  C80      1.0000 0.77450  0.14490  0.87970  Biso   1.000  C
  C81      1.0000 0.29910  0.34750  0.43870  Biso   1.000  C
  C82      1.0000 0.79910  0.84750  0.43870  Biso   1.000  C
  C83      1.0000 0.70090  0.34750  0.06130  Biso   1.000  C
  C84      1.0000 0.20090  0.84750  0.06130  Biso   1.000  C
  C85      1.0000 0.70090  0.65250  0.56130  Biso   1.000  C
  C86      1.0000 0.20090  0.15250  0.56130  Biso   1.000  C
  C87      1.0000 0.29910  0.65250  0.93870  Biso   1.000  C
  C88      1.0000 0.79910  0.15250  0.93870  Biso   1.000  C
  H33      1.0000 0.29990  0.39750  0.46200  Biso   1.000  H
  H34      1.0000 0.79990  0.89750  0.46200  Biso   1.000  H
  H35      1.0000 0.70010  0.39750  0.03800  Biso   1.000  H
  H36      1.0000 0.20010  0.89750  0.03800  Biso   1.000  H
  H37      1.0000 0.70010  0.60250  0.53800  Biso   1.000  H
  H38      1.0000 0.20010  0.10250  0.53800  Biso   1.000  H
  H39      1.0000 0.29990  0.60250  0.96200  Biso   1.000  H
  H40      1.0000 0.79990  0.10250  0.96200  Biso   1.000  H
  C89      1.0000 0.32290  0.26300  0.46250  Biso   1.000  C
  C90      1.0000 0.82290  0.76300  0.46250  Biso   1.000  C
  C91      1.0000 0.67710  0.26300  0.03750  Biso   1.000  C
  C92      1.0000 0.17710  0.76300  0.03750  Biso   1.000  C
  C93      1.0000 0.67710  0.73700  0.53750  Biso   1.000  C
  C94      1.0000 0.17710  0.23700  0.53750  Biso   1.000  C
  C95      1.0000 0.32290  0.73700  0.96250  Biso   1.000  C
  C96      1.0000 0.82290  0.23700  0.96250  Biso   1.000  C
  H41      1.0000 0.33820  0.25670  0.50220  Biso   1.000  H
  H42      1.0000 0.83820  0.75670  0.50220  Biso   1.000  H
  H43      1.0000 0.66180  0.25670  0.99780  Biso   1.000  H
  H44      1.0000 0.16180  0.75670  0.99780  Biso   1.000  H
  H45      1.0000 0.66180  0.74330  0.49780  Biso   1.000  H
  H46      1.0000 0.16180  0.24330  0.49780  Biso   1.000  H
  H47      1.0000 0.33820  0.74330  0.00220  Biso   1.000  H
  H48      1.0000 0.83820  0.24330  0.00220  Biso   1.000  H
  C97      1.0000 0.32460  0.18850  0.42940  Biso   1.000  C
  C98      1.0000 0.82460  0.68850  0.42940  Biso   1.000  C
  C99      1.0000 0.67540  0.18850  0.07060  Biso   1.000  C
  C100     1.0000 0.17540  0.68850  0.07060  Biso   1.000  C
  C101     1.0000 0.67540  0.81150  0.57060  Biso   1.000  C
  C102     1.0000 0.17540  0.31150  0.57060  Biso   1.000  C
  C103     1.0000 0.32460  0.81150  0.92940  Biso   1.000  C
  C104     1.0000 0.82460  0.31150  0.92940  Biso   1.000  C
  H49      1.0000 0.34170  0.13360  0.44650  Biso   1.000  H
  H50      1.0000 0.84170  0.63360  0.44650  Biso   1.000  H
  H51      1.0000 0.65830  0.13360  0.05350  Biso   1.000  H
  H52      1.0000 0.15830  0.63360  0.05350  Biso   1.000  H
  H53      1.0000 0.65830  0.86640  0.55350  Biso   1.000  H
  H54      1.0000 0.15830  0.36640  0.55350  Biso   1.000  H
  H55      1.0000 0.34170  0.86640  0.94650  Biso   1.000  H
  H56      1.0000 0.84170  0.36640  0.94650  Biso   1.000  H
  C105     1.0000 0.30020  0.19710  0.37010  Biso   1.000  C
  C106     1.0000 0.80020  0.69710  0.37010  Biso   1.000  C
  C107     1.0000 0.69980  0.19710  0.12990  Biso   1.000  C
  C108     1.0000 0.19980  0.69710  0.12990  Biso   1.000  C
  C109     1.0000 0.69980  0.80290  0.62990  Biso   1.000  C
  C110     1.0000 0.19980  0.30290  0.62990  Biso   1.000  C
  C111     1.0000 0.30020  0.80290  0.87010  Biso   1.000  C
  C112     1.0000 0.80020  0.30290  0.87010  Biso   1.000  C
  C113     1.0000 0.27520  0.28040  0.34550  Biso   1.000  C
  C114     1.0000 0.77520  0.78040  0.34550  Biso   1.000  C
  C115     1.0000 0.72480  0.28040  0.15450  Biso   1.000  C
  C116     1.0000 0.22480  0.78040  0.15450  Biso   1.000  C
  C117     1.0000 0.72480  0.71960  0.65450  Biso   1.000  C
  C118     1.0000 0.22480  0.21960  0.65450  Biso   1.000  C
  C119     1.0000 0.27520  0.71960  0.84550  Biso   1.000  C
  C120     1.0000 0.77520  0.21960  0.84550  Biso   1.000  C
  H57      1.0000 0.25890  0.28610  0.30570  Biso   1.000  H
  H58      1.0000 0.75890  0.78610  0.30570  Biso   1.000  H
  H59      1.0000 0.74110  0.28610  0.19430  Biso   1.000  H
  H60      1.0000 0.24110  0.78610  0.19430  Biso   1.000  H
  H61      1.0000 0.74110  0.71390  0.69430  Biso   1.000  H
  H62      1.0000 0.24110  0.21390  0.69430  Biso   1.000  H
  H63      1.0000 0.25890  0.71390  0.80570  Biso   1.000  H
  H64      1.0000 0.75890  0.21390  0.80570  Biso   1.000  H
  C121     1.0000 0.29990  0.11730  0.33280  Biso   1.000  C
  C122     1.0000 0.79990  0.61730  0.33280  Biso   1.000  C
  C123     1.0000 0.70010  0.11730  0.16720  Biso   1.000  C
  C124     1.0000 0.20010  0.61730  0.16720  Biso   1.000  C
  C125     1.0000 0.70010  0.88270  0.66720  Biso   1.000  C
  C126     1.0000 0.20010  0.38270  0.66720  Biso   1.000  C
  C127     1.0000 0.29990  0.88270  0.83280  Biso   1.000  C
  C128     1.0000 0.79990  0.38270  0.83280  Biso   1.000  C
  C129     1.0000 0.15320  0.65230  0.40340  Biso   1.000  C
  C130     1.0000 0.65320  0.15230  0.40340  Biso   1.000  C
  C131     1.0000 0.84680  0.65230  0.09660  Biso   1.000  C
  C132     1.0000 0.34680  0.15230  0.09660  Biso   1.000  C
  C133     1.0000 0.84680  0.34770  0.59660  Biso   1.000  C
  C134     1.0000 0.34680  0.84770  0.59660  Biso   1.000  C
  C135     1.0000 0.15320  0.34770  0.90340  Biso   1.000  C
  C136     1.0000 0.65320  0.84770  0.90340  Biso   1.000  C
  C137     1.0000 0.12170  0.60100  0.43220  Biso   1.000  C
  C138     1.0000 0.62170  0.10100  0.43220  Biso   1.000  C
  C139     1.0000 0.87830  0.60100  0.06780  Biso   1.000  C
  C140     1.0000 0.37830  0.10100  0.06780  Biso   1.000  C
  C141     1.0000 0.87830  0.39900  0.56780  Biso   1.000  C
  C142     1.0000 0.37830  0.89900  0.56780  Biso   1.000  C
  C143     1.0000 0.12170  0.39900  0.93220  Biso   1.000  C
  C144     1.0000 0.62170  0.89900  0.93220  Biso   1.000  C
  C145     1.0000 0.08330  0.53030  0.40440  Biso   1.000  C
  C146     1.0000 0.58330  0.03030  0.40440  Biso   1.000  C
  C147     1.0000 0.91670  0.53030  0.09560  Biso   1.000  C
  C148     1.0000 0.41670  0.03030  0.09560  Biso   1.000  C
  C149     1.0000 0.91670  0.46970  0.59560  Biso   1.000  C
  C150     1.0000 0.41670  0.96970  0.59560  Biso   1.000  C
  C151     1.0000 0.08330  0.46970  0.90440  Biso   1.000  C
  C152     1.0000 0.58330  0.96970  0.90440  Biso   1.000  C
  H65      1.0000 0.07690  0.51360  0.36700  Biso   1.000  H
  H66      1.0000 0.57690  0.01360  0.36700  Biso   1.000  H
  H67      1.0000 0.92310  0.51360  0.13300  Biso   1.000  H
  H68      1.0000 0.42310  0.01360  0.13300  Biso   1.000  H
  H69      1.0000 0.92310  0.48640  0.63300  Biso   1.000  H
  H70      1.0000 0.42310  0.98640  0.63300  Biso   1.000  H
  H71      1.0000 0.07690  0.48640  0.86700  Biso   1.000  H
  H72      1.0000 0.57690  0.98640  0.86700  Biso   1.000  H
  C153     1.0000 0.05530  0.48630  0.43250  Biso   1.000  C
  C154     1.0000 0.55530  0.98630  0.43250  Biso   1.000  C
  C155     1.0000 0.94470  0.48630  0.06750  Biso   1.000  C
  C156     1.0000 0.44470  0.98630  0.06750  Biso   1.000  C
  C157     1.0000 0.94470  0.51370  0.56750  Biso   1.000  C
  C158     1.0000 0.44470  0.01370  0.56750  Biso   1.000  C
  C159     1.0000 0.05530  0.51370  0.93250  Biso   1.000  C
  C160     1.0000 0.55530  0.01370  0.93250  Biso   1.000  C
  H73      1.0000 0.02990  0.44010  0.41380  Biso   1.000  H
  H74      1.0000 0.52990  0.94010  0.41380  Biso   1.000  H
  H75      1.0000 0.97010  0.44010  0.08620  Biso   1.000  H
  H76      1.0000 0.47010  0.94010  0.08620  Biso   1.000  H
  H77      1.0000 0.97010  0.55990  0.58620  Biso   1.000  H
  H78      1.0000 0.47010  0.05990  0.58620  Biso   1.000  H
  H79      1.0000 0.02990  0.55990  0.91380  Biso   1.000  H
  H80      1.0000 0.52990  0.05990  0.91380  Biso   1.000  H
  C161     1.0000 0.06450  0.50960  0.48820  Biso   1.000  C
  C162     1.0000 0.56450  0.00960  0.48820  Biso   1.000  C
  C163     1.0000 0.93550  0.50960  0.01180  Biso   1.000  C
  C164     1.0000 0.43550  0.00960  0.01180  Biso   1.000  C
  C165     1.0000 0.93550  0.49040  0.51180  Biso   1.000  C
  C166     1.0000 0.43550  0.99040  0.51180  Biso   1.000  C
  C167     1.0000 0.06450  0.49040  0.98820  Biso   1.000  C
  C168     1.0000 0.56450  0.99040  0.98820  Biso   1.000  C
  H81      1.0000 0.04500  0.47950  0.50670  Biso   1.000  H
  H82      1.0000 0.54500  0.97950  0.50670  Biso   1.000  H
  H83      1.0000 0.95500  0.47950  0.99330  Biso   1.000  H
  H84      1.0000 0.45500  0.97950  0.99330  Biso   1.000  H
  H85      1.0000 0.95500  0.52050  0.49330  Biso   1.000  H
  H86      1.0000 0.45500  0.02050  0.49330  Biso   1.000  H
  H87      1.0000 0.04500  0.52050  0.00670  Biso   1.000  H
  H88      1.0000 0.54500  0.02050  0.00670  Biso   1.000  H
  C169     1.0000 0.10230  0.57760  0.51670  Biso   1.000  C
  C170     1.0000 0.60230  0.07760  0.51670  Biso   1.000  C
  C171     1.0000 0.89770  0.57760  0.98330  Biso   1.000  C
  C172     1.0000 0.39770  0.07760  0.98330  Biso   1.000  C
  C173     1.0000 0.89770  0.42240  0.48330  Biso   1.000  C
  C174     1.0000 0.39770  0.92240  0.48330  Biso   1.000  C
  C175     1.0000 0.10230  0.42240  0.01670  Biso   1.000  C
  C176     1.0000 0.60230  0.92240  0.01670  Biso   1.000  C
  C177     1.0000 0.12950  0.62450  0.48730  Biso   1.000  C
  C178     1.0000 0.62950  0.12450  0.48730  Biso   1.000  C
  C179     1.0000 0.87050  0.62450  0.01270  Biso   1.000  C
  C180     1.0000 0.37050  0.12450  0.01270  Biso   1.000  C
  C181     1.0000 0.87050  0.37550  0.51270  Biso   1.000  C
  C182     1.0000 0.37050  0.87550  0.51270  Biso   1.000  C
  C183     1.0000 0.12950  0.37550  0.98730  Biso   1.000  C
  C184     1.0000 0.62950  0.87550  0.98730  Biso   1.000  C
  H89      1.0000 0.15340  0.67280  0.50550  Biso   1.000  H
  H90      1.0000 0.65340  0.17280  0.50550  Biso   1.000  H
  H91      1.0000 0.84660  0.67280  0.99450  Biso   1.000  H
  H92      1.0000 0.34660  0.17280  0.99450  Biso   1.000  H
  H93      1.0000 0.84660  0.32720  0.49450  Biso   1.000  H
  H94      1.0000 0.34660  0.82720  0.49450  Biso   1.000  H
  H95      1.0000 0.15340  0.32720  0.00550  Biso   1.000  H
  H96      1.0000 0.65340  0.82720  0.00550  Biso   1.000  H
  C185     1.0000 0.11590  0.60040  0.57860  Biso   1.000  C
  C186     1.0000 0.61590  0.10040  0.57860  Biso   1.000  C
  C187     1.0000 0.88410  0.60040  0.92140  Biso   1.000  C
  C188     1.0000 0.38410  0.10040  0.92140  Biso   1.000  C
  C189     1.0000 0.88410  0.39960  0.42140  Biso   1.000  C
  C190     1.0000 0.38410  0.89960  0.42140  Biso   1.000  C
  C191     1.0000 0.11590  0.39960  0.07860  Biso   1.000  C
  C192     1.0000 0.61590  0.89960  0.07860  Biso   1.000  C
  C193     1.0000 0.08760  0.51700  0.23400  Biso   1.000  C
  C194     1.0000 0.58760  0.01700  0.23400  Biso   1.000  C
  C195     1.0000 0.91240  0.51700  0.26600  Biso   1.000  C
  C196     1.0000 0.41240  0.01700  0.26600  Biso   1.000  C
  C197     1.0000 0.91240  0.48300  0.76600  Biso   1.000  C
  C198     1.0000 0.41240  0.98300  0.76600  Biso   1.000  C
  C199     1.0000 0.08760  0.48300  0.73400  Biso   1.000  C
  C200     1.0000 0.58760  0.98300  0.73400  Biso   1.000  C
  C201     1.0000 0.04280  0.56860  0.24370  Biso   1.000  C
  C202     1.0000 0.54280  0.06860  0.24370  Biso   1.000  C
  C203     1.0000 0.95720  0.56860  0.25630  Biso   1.000  C
  C204     1.0000 0.45720  0.06860  0.25630  Biso   1.000  C
  C205     1.0000 0.95720  0.43140  0.75630  Biso   1.000  C
  C206     1.0000 0.45720  0.93140  0.75630  Biso   1.000  C
  C207     1.0000 0.04280  0.43140  0.74370  Biso   1.000  C
  C208     1.0000 0.54280  0.93140  0.74370  Biso   1.000  C
  C209     1.0000 0.04230  0.66490  0.24470  Biso   1.000  C
  C210     1.0000 0.54230  0.16490  0.24470  Biso   1.000  C
  C211     1.0000 0.95770  0.66490  0.25530  Biso   1.000  C
  C212     1.0000 0.45770  0.16490  0.25530  Biso   1.000  C
  C213     1.0000 0.95770  0.33510  0.75530  Biso   1.000  C
  C214     1.0000 0.45770  0.83510  0.75530  Biso   1.000  C
  C215     1.0000 0.04230  0.33510  0.74470  Biso   1.000  C
  C216     1.0000 0.54230  0.83510  0.74470  Biso   1.000  C
  H97      1.0000 0.07150  0.69740  0.24180  Biso   1.000  H
  H98      1.0000 0.57150  0.19740  0.24180  Biso   1.000  H
  H99      1.0000 0.92850  0.69740  0.25820  Biso   1.000  H
  H100     1.0000 0.42850  0.19740  0.25820  Biso   1.000  H
  H101     1.0000 0.92850  0.30260  0.75820  Biso   1.000  H
  H102     1.0000 0.42850  0.80260  0.75820  Biso   1.000  H
  H103     1.0000 0.07150  0.30260  0.74180  Biso   1.000  H
  H104     1.0000 0.57150  0.80260  0.74180  Biso   1.000  H
  C217     1.0000 0.00000  0.71290  0.25000  Biso   1.000  C
  C218     1.0000 0.50000  0.21290  0.25000  Biso   1.000  C
  C219     1.0000 0.00000  0.28710  0.75000  Biso   1.000  C
  C220     1.0000 0.50000  0.78710  0.75000  Biso   1.000  C
  H105     1.0000 0.00000  0.77730  0.25000  Biso   1.000  H
  H106     1.0000 0.50000  0.27730  0.25000  Biso   1.000  H
  H107     1.0000 0.00000  0.22270  0.75000  Biso   1.000  H
  H108     1.0000 0.50000  0.72270  0.75000  Biso   1.000  H
  C221     1.0000 0.00000  0.52200  0.25000  Biso   1.000  C
  C222     1.0000 0.50000  0.02200  0.25000  Biso   1.000  C
  C223     1.0000 0.00000  0.47800  0.75000  Biso   1.000  C
  C224     1.0000 0.50000  0.97800  0.75000  Biso   1.000  C
  H109     1.0000 0.00000  0.45760  0.25000  Biso   1.000  H
  H110     1.0000 0.50000  0.95760  0.25000  Biso   1.000  H
  H111     1.0000 0.00000  0.54240  0.75000  Biso   1.000  H
  H112     1.0000 0.50000  0.04240  0.75000  Biso   1.000  H
  C225     1.0000 0.53610  0.71170  0.35390  Biso   1.000  C
  C226     1.0000 0.03610  0.21170  0.35390  Biso   1.000  C
  C227     1.0000 0.46390  0.71170  0.14610  Biso   1.000  C
  C228     1.0000 0.96390  0.21170  0.14610  Biso   1.000  C
  C229     1.0000 0.46390  0.28830  0.64610  Biso   1.000  C
  C230     1.0000 0.96390  0.78830  0.64610  Biso   1.000  C
  C231     1.0000 0.53610  0.28830  0.85390  Biso   1.000  C
  C232     1.0000 0.03610  0.78830  0.85390  Biso   1.000  C
  H113     1.0000 0.49990  0.70680  0.35100  Biso   1.000  H
  H114     1.0000 0.99990  0.20680  0.35100  Biso   1.000  H
  H115     1.0000 0.50010  0.70680  0.14900  Biso   1.000  H
  H116     1.0000 0.00010  0.20680  0.14900  Biso   1.000  H
  H117     1.0000 0.50010  0.29320  0.64900  Biso   1.000  H
  H118     1.0000 0.00010  0.79320  0.64900  Biso   1.000  H
  H119     1.0000 0.49990  0.29320  0.85100  Biso   1.000  H
  H120     1.0000 0.99990  0.79320  0.85100  Biso   1.000  H
  C233     1.0000 0.55070  0.79140  0.33460  Biso   1.000  C
  C234     1.0000 0.05070  0.29140  0.33460  Biso   1.000  C
  C235     1.0000 0.44930  0.79140  0.16540  Biso   1.000  C
  C236     1.0000 0.94930  0.29140  0.16540  Biso   1.000  C
  C237     1.0000 0.44930  0.20860  0.66540  Biso   1.000  C
  C238     1.0000 0.94930  0.70860  0.66540  Biso   1.000  C
  C239     1.0000 0.55070  0.20860  0.83460  Biso   1.000  C
  C240     1.0000 0.05070  0.70860  0.83460  Biso   1.000  C
  H121     1.0000 0.52520  0.83830  0.31760  Biso   1.000  H
  H122     1.0000 0.02520  0.33830  0.31760  Biso   1.000  H
  H123     1.0000 0.47480  0.83830  0.18240  Biso   1.000  H
  H124     1.0000 0.97480  0.33830  0.18240  Biso   1.000  H
  H125     1.0000 0.47480  0.16170  0.68240  Biso   1.000  H
  H126     1.0000 0.97480  0.66170  0.68240  Biso   1.000  H
  H127     1.0000 0.52520  0.16170  0.81760  Biso   1.000  H
  H128     1.0000 0.02520  0.66170  0.81760  Biso   1.000  H
  C241     1.0000 0.60410  0.79880  0.34130  Biso   1.000  C
  C242     1.0000 0.10410  0.29880  0.34130  Biso   1.000  C
  C243     1.0000 0.39590  0.79880  0.15870  Biso   1.000  C
  C244     1.0000 0.89590  0.29880  0.15870  Biso   1.000  C
  C245     1.0000 0.39590  0.20120  0.65870  Biso   1.000  C
  C246     1.0000 0.89590  0.70120  0.65870  Biso   1.000  C
  C247     1.0000 0.60410  0.20120  0.84130  Biso   1.000  C
  C248     1.0000 0.10410  0.70120  0.84130  Biso   1.000  C
  H129     1.0000 0.61610  0.85270  0.32980  Biso   1.000  H
  H130     1.0000 0.11610  0.35270  0.32980  Biso   1.000  H
  H131     1.0000 0.38390  0.85270  0.17020  Biso   1.000  H
  H132     1.0000 0.88390  0.35270  0.17020  Biso   1.000  H
  H133     1.0000 0.38390  0.14730  0.67020  Biso   1.000  H
  H134     1.0000 0.88390  0.64730  0.67020  Biso   1.000  H
  H135     1.0000 0.61610  0.14730  0.82980  Biso   1.000  H
  H136     1.0000 0.11610  0.64730  0.82980  Biso   1.000  H
  C249     1.0000 0.64050  0.72810  0.36470  Biso   1.000  C
  C250     1.0000 0.14050  0.22810  0.36470  Biso   1.000  C
  C251     1.0000 0.35950  0.72810  0.13530  Biso   1.000  C
  C252     1.0000 0.85950  0.22810  0.13530  Biso   1.000  C
  C253     1.0000 0.35950  0.27190  0.63530  Biso   1.000  C
  C254     1.0000 0.85950  0.77190  0.63530  Biso   1.000  C
  C255     1.0000 0.64050  0.27190  0.86470  Biso   1.000  C
  C256     1.0000 0.14050  0.77190  0.86470  Biso   1.000  C
  H137     1.0000 0.67700  0.73290  0.36880  Biso   1.000  H
  H138     1.0000 0.17700  0.23290  0.36880  Biso   1.000  H
  H139     1.0000 0.32300  0.73290  0.13120  Biso   1.000  H
  H140     1.0000 0.82300  0.23290  0.13120  Biso   1.000  H
  H141     1.0000 0.32300  0.26710  0.63120  Biso   1.000  H
  H142     1.0000 0.82300  0.76710  0.63120  Biso   1.000  H
  H143     1.0000 0.67700  0.26710  0.86880  Biso   1.000  H
  H144     1.0000 0.17700  0.76710  0.86880  Biso   1.000  H
  C257     1.0000 0.62240  0.65050  0.38190  Biso   1.000  C
  C258     1.0000 0.12240  0.15050  0.38190  Biso   1.000  C
  C259     1.0000 0.37760  0.65050  0.11810  Biso   1.000  C
  C260     1.0000 0.87760  0.15050  0.11810  Biso   1.000  C
  C261     1.0000 0.37760  0.34950  0.61810  Biso   1.000  C
  C262     1.0000 0.87760  0.84950  0.61810  Biso   1.000  C
  C263     1.0000 0.62240  0.34950  0.88190  Biso   1.000  C
  C264     1.0000 0.12240  0.84950  0.88190  Biso   1.000  C
  C265     1.0000 0.65830  0.57070  0.40890  Biso   1.000  C
  C266     1.0000 0.15830  0.07070  0.40890  Biso   1.000  C
  C267     1.0000 0.34170  0.57070  0.09110  Biso   1.000  C
  C268     1.0000 0.84170  0.07070  0.09110  Biso   1.000  C
  C269     1.0000 0.34170  0.42930  0.59110  Biso   1.000  C
  C270     1.0000 0.84170  0.92930  0.59110  Biso   1.000  C
  C271     1.0000 0.65830  0.42930  0.90890  Biso   1.000  C
  C272     1.0000 0.15830  0.92930  0.90890  Biso   1.000  C
  C273     1.0000 0.70790  0.55290  0.40430  Biso   1.000  C
  C274     1.0000 0.20790  0.05290  0.40430  Biso   1.000  C
  C275     1.0000 0.29210  0.55290  0.09570  Biso   1.000  C
  C276     1.0000 0.79210  0.05290  0.09570  Biso   1.000  C
  C277     1.0000 0.29210  0.44710  0.59570  Biso   1.000  C
  C278     1.0000 0.79210  0.94710  0.59570  Biso   1.000  C
  C279     1.0000 0.70790  0.44710  0.90430  Biso   1.000  C
  C280     1.0000 0.20790  0.94710  0.90430  Biso   1.000  C
  H145     1.0000 0.71960  0.59240  0.38260  Biso   1.000  H
  H146     1.0000 0.21960  0.09240  0.38260  Biso   1.000  H
  H147     1.0000 0.28040  0.59240  0.11740  Biso   1.000  H
  H148     1.0000 0.78040  0.09240  0.11740  Biso   1.000  H
  H149     1.0000 0.28040  0.40760  0.61740  Biso   1.000  H
  H150     1.0000 0.78040  0.90760  0.61740  Biso   1.000  H
  H151     1.0000 0.71960  0.40760  0.88260  Biso   1.000  H
  H152     1.0000 0.21960  0.90760  0.88260  Biso   1.000  H
  C281     1.0000 0.73980  0.47900  0.43090  Biso   1.000  C
  C282     1.0000 0.23980  0.97900  0.43090  Biso   1.000  C
  C283     1.0000 0.26020  0.47900  0.06910  Biso   1.000  C
  C284     1.0000 0.76020  0.97900  0.06910  Biso   1.000  C
  C285     1.0000 0.26020  0.52100  0.56910  Biso   1.000  C
  C286     1.0000 0.76020  0.02100  0.56910  Biso   1.000  C
  C287     1.0000 0.73980  0.52100  0.93090  Biso   1.000  C
  C288     1.0000 0.23980  0.02100  0.93090  Biso   1.000  C
  H153     1.0000 0.77280  0.46720  0.42700  Biso   1.000  H
  H154     1.0000 0.27280  0.96720  0.42700  Biso   1.000  H
  H155     1.0000 0.22720  0.46720  0.07300  Biso   1.000  H
  H156     1.0000 0.72720  0.96720  0.07300  Biso   1.000  H
  H157     1.0000 0.22720  0.53280  0.57300  Biso   1.000  H
  H158     1.0000 0.72720  0.03280  0.57300  Biso   1.000  H
  H159     1.0000 0.77280  0.53280  0.92700  Biso   1.000  H
  H160     1.0000 0.27280  0.03280  0.92700  Biso   1.000  H
  C289     1.0000 0.72250  0.42280  0.46330  Biso   1.000  C
  C290     1.0000 0.22250  0.92280  0.46330  Biso   1.000  C
  C291     1.0000 0.27750  0.42280  0.03670  Biso   1.000  C
  C292     1.0000 0.77750  0.92280  0.03670  Biso   1.000  C
  C293     1.0000 0.27750  0.57720  0.53670  Biso   1.000  C
  C294     1.0000 0.77750  0.07720  0.53670  Biso   1.000  C
  C295     1.0000 0.72250  0.57720  0.96330  Biso   1.000  C
  C296     1.0000 0.22250  0.07720  0.96330  Biso   1.000  C
  H161     1.0000 0.74460  0.37400  0.48390  Biso   1.000  H
  H162     1.0000 0.24460  0.87400  0.48390  Biso   1.000  H
  H163     1.0000 0.25540  0.37400  0.01610  Biso   1.000  H
  H164     1.0000 0.75540  0.87400  0.01610  Biso   1.000  H
  H165     1.0000 0.25540  0.62600  0.51610  Biso   1.000  H
  H166     1.0000 0.75540  0.12600  0.51610  Biso   1.000  H
  H167     1.0000 0.74460  0.62600  0.98390  Biso   1.000  H
  H168     1.0000 0.24460  0.12600  0.98390  Biso   1.000  H
  C297     1.0000 0.67200  0.43930  0.46500  Biso   1.000  C
  C298     1.0000 0.17200  0.93930  0.46500  Biso   1.000  C
  C299     1.0000 0.32800  0.43930  0.03500  Biso   1.000  C
  C300     1.0000 0.82800  0.93930  0.03500  Biso   1.000  C
  C301     1.0000 0.32800  0.56070  0.53500  Biso   1.000  C
  C302     1.0000 0.82800  0.06070  0.53500  Biso   1.000  C
  C303     1.0000 0.67200  0.56070  0.96500  Biso   1.000  C
  C304     1.0000 0.17200  0.06070  0.96500  Biso   1.000  C
  H169     1.0000 0.65960  0.39850  0.48550  Biso   1.000  H
  H170     1.0000 0.15960  0.89850  0.48550  Biso   1.000  H
  H171     1.0000 0.34040  0.39850  0.01450  Biso   1.000  H
  H172     1.0000 0.84040  0.89850  0.01450  Biso   1.000  H
  H173     1.0000 0.34040  0.60150  0.51450  Biso   1.000  H
  H174     1.0000 0.84040  0.10150  0.51450  Biso   1.000  H
  H175     1.0000 0.65960  0.60150  0.98550  Biso   1.000  H
  H176     1.0000 0.15960  0.10150  0.98550  Biso   1.000  H
  C305     1.0000 0.49230  0.65420  0.46050  Biso   1.000  C
  C306     1.0000 0.99230  0.15420  0.46050  Biso   1.000  C
  C307     1.0000 0.50770  0.65420  0.03950  Biso   1.000  C
  C308     1.0000 0.00770  0.15420  0.03950  Biso   1.000  C
  C309     1.0000 0.50770  0.34580  0.53950  Biso   1.000  C
  C310     1.0000 0.00770  0.84580  0.53950  Biso   1.000  C
  C311     1.0000 0.49230  0.34580  0.96050  Biso   1.000  C
  C312     1.0000 0.99230  0.84580  0.96050  Biso   1.000  C
  H177     1.0000 0.52270  0.69360  0.47370  Biso   1.000  H
  H178     1.0000 0.02270  0.19360  0.47370  Biso   1.000  H
  H179     1.0000 0.47730  0.69360  0.02630  Biso   1.000  H
  H180     1.0000 0.97730  0.19360  0.02630  Biso   1.000  H
  H181     1.0000 0.47730  0.30640  0.52630  Biso   1.000  H
  H182     1.0000 0.97730  0.80640  0.52630  Biso   1.000  H
  H183     1.0000 0.52270  0.30640  0.97370  Biso   1.000  H
  H184     1.0000 0.02270  0.80640  0.97370  Biso   1.000  H
  C313     1.0000 0.44260  0.68660  0.46000  Biso   1.000  C
  C314     1.0000 0.94260  0.18660  0.46000  Biso   1.000  C
  C315     1.0000 0.55740  0.68660  0.04000  Biso   1.000  C
  C316     1.0000 0.05740  0.18660  0.04000  Biso   1.000  C
  C317     1.0000 0.55740  0.31340  0.54000  Biso   1.000  C
  C318     1.0000 0.05740  0.81340  0.54000  Biso   1.000  C
  C319     1.0000 0.44260  0.31340  0.96000  Biso   1.000  C
  C320     1.0000 0.94260  0.81340  0.96000  Biso   1.000  C
  H185     1.0000 0.44020  0.74480  0.47450  Biso   1.000  H
  H186     1.0000 0.94020  0.24480  0.47450  Biso   1.000  H
  H187     1.0000 0.55980  0.74480  0.02550  Biso   1.000  H
  H188     1.0000 0.05980  0.24480  0.02550  Biso   1.000  H
  H189     1.0000 0.55980  0.25520  0.52550  Biso   1.000  H
  H190     1.0000 0.05980  0.75520  0.52550  Biso   1.000  H
  H191     1.0000 0.44020  0.25520  0.97450  Biso   1.000  H
  H192     1.0000 0.94020  0.75520  0.97450  Biso   1.000  H
  C321     1.0000 0.39740  0.63020  0.43770  Biso   1.000  C
  C322     1.0000 0.89740  0.13020  0.43770  Biso   1.000  C
  C323     1.0000 0.60260  0.63020  0.06230  Biso   1.000  C
  C324     1.0000 0.10260  0.13020  0.06230  Biso   1.000  C
  C325     1.0000 0.60260  0.36980  0.56230  Biso   1.000  C
  C326     1.0000 0.10260  0.86980  0.56230  Biso   1.000  C
  C327     1.0000 0.39740  0.36980  0.93770  Biso   1.000  C
  C328     1.0000 0.89740  0.86980  0.93770  Biso   1.000  C
  H193     1.0000 0.36280  0.65150  0.43370  Biso   1.000  H
  H194     1.0000 0.86280  0.15150  0.43370  Biso   1.000  H
  H195     1.0000 0.63720  0.65150  0.06630  Biso   1.000  H
  H196     1.0000 0.13720  0.15150  0.06630  Biso   1.000  H
  H197     1.0000 0.63720  0.34850  0.56630  Biso   1.000  H
  H198     1.0000 0.13720  0.84850  0.56630  Biso   1.000  H
  H199     1.0000 0.36280  0.34850  0.93370  Biso   1.000  H
  H200     1.0000 0.86280  0.84850  0.93370  Biso   1.000  H
  C329     1.0000 0.40360  0.54210  0.42140  Biso   1.000  C
  C330     1.0000 0.90360  0.04210  0.42140  Biso   1.000  C
  C331     1.0000 0.59640  0.54210  0.07860  Biso   1.000  C
  C332     1.0000 0.09640  0.04210  0.07860  Biso   1.000  C
  C333     1.0000 0.59640  0.45790  0.57860  Biso   1.000  C
  C334     1.0000 0.09640  0.95790  0.57860  Biso   1.000  C
  C335     1.0000 0.40360  0.45790  0.92140  Biso   1.000  C
  C336     1.0000 0.90360  0.95790  0.92140  Biso   1.000  C
  H201     1.0000 0.37360  0.50170  0.40910  Biso   1.000  H
  H202     1.0000 0.87360  0.00170  0.40910  Biso   1.000  H
  H203     1.0000 0.62640  0.50170  0.09090  Biso   1.000  H
  H204     1.0000 0.12640  0.00170  0.09090  Biso   1.000  H
  H205     1.0000 0.62640  0.49830  0.59090  Biso   1.000  H
  H206     1.0000 0.12640  0.99830  0.59090  Biso   1.000  H
  H207     1.0000 0.37360  0.49830  0.90910  Biso   1.000  H
  H208     1.0000 0.87360  0.99830  0.90910  Biso   1.000  H
  C337     1.0000 0.45420  0.51280  0.42300  Biso   1.000  C
  C338     1.0000 0.95420  0.01280  0.42300  Biso   1.000  C
  C339     1.0000 0.54580  0.51280  0.07700  Biso   1.000  C
  C340     1.0000 0.04580  0.01280  0.07700  Biso   1.000  C
  C341     1.0000 0.54580  0.48720  0.57700  Biso   1.000  C
  C342     1.0000 0.04580  0.98720  0.57700  Biso   1.000  C
  C343     1.0000 0.45420  0.48720  0.92300  Biso   1.000  C
  C344     1.0000 0.95420  0.98720  0.92300  Biso   1.000  C
  C345     1.0000 0.46450  0.42040  0.40610  Biso   1.000  C
  C346     1.0000 0.96450  0.92040  0.40610  Biso   1.000  C
  C347     1.0000 0.53550  0.42040  0.09390  Biso   1.000  C
  C348     1.0000 0.03550  0.92040  0.09390  Biso   1.000  C
  C349     1.0000 0.53550  0.57960  0.59390  Biso   1.000  C
  C350     1.0000 0.03550  0.07960  0.59390  Biso   1.000  C
  C351     1.0000 0.46450  0.57960  0.90610  Biso   1.000  C
  C352     1.0000 0.96450  0.07960  0.90610  Biso   1.000  C
  C353     1.0000 0.43000  0.34610  0.39800  Biso   1.000  C
  C354     1.0000 0.93000  0.84610  0.39800  Biso   1.000  C
  C355     1.0000 0.57000  0.34610  0.10200  Biso   1.000  C
  C356     1.0000 0.07000  0.84610  0.10200  Biso   1.000  C
  C357     1.0000 0.57000  0.65390  0.60200  Biso   1.000  C
  C358     1.0000 0.07000  0.15390  0.60200  Biso   1.000  C
  C359     1.0000 0.43000  0.65390  0.89800  Biso   1.000  C
  C360     1.0000 0.93000  0.15390  0.89800  Biso   1.000  C
  H209     1.0000 0.39610  0.35460  0.40050  Biso   1.000  H
  H210     1.0000 0.89610  0.85460  0.40050  Biso   1.000  H
  H211     1.0000 0.60390  0.35460  0.09950  Biso   1.000  H
  H212     1.0000 0.10390  0.85460  0.09950  Biso   1.000  H
  H213     1.0000 0.60390  0.64540  0.59950  Biso   1.000  H
  H214     1.0000 0.10390  0.14540  0.59950  Biso   1.000  H
  H215     1.0000 0.39610  0.64540  0.90050  Biso   1.000  H
  H216     1.0000 0.89610  0.14540  0.90050  Biso   1.000  H
  C361     1.0000 0.44420  0.25890  0.38610  Biso   1.000  C
  C362     1.0000 0.94420  0.75890  0.38610  Biso   1.000  C
  C363     1.0000 0.55580  0.25890  0.11390  Biso   1.000  C
  C364     1.0000 0.05580  0.75890  0.11390  Biso   1.000  C
  C365     1.0000 0.55580  0.74110  0.61390  Biso   1.000  C
  C366     1.0000 0.05580  0.24110  0.61390  Biso   1.000  C
  C367     1.0000 0.44420  0.74110  0.88610  Biso   1.000  C
  C368     1.0000 0.94420  0.24110  0.88610  Biso   1.000  C
  H217     1.0000 0.42000  0.20920  0.37910  Biso   1.000  H
  H218     1.0000 0.92000  0.70920  0.37910  Biso   1.000  H
  H219     1.0000 0.58000  0.20920  0.12090  Biso   1.000  H
  H220     1.0000 0.08000  0.70920  0.12090  Biso   1.000  H
  H221     1.0000 0.58000  0.79080  0.62090  Biso   1.000  H
  H222     1.0000 0.08000  0.29080  0.62090  Biso   1.000  H
  H223     1.0000 0.42000  0.79080  0.87910  Biso   1.000  H
  H224     1.0000 0.92000  0.29080  0.87910  Biso   1.000  H
  C369     1.0000 0.49630  0.24840  0.38520  Biso   1.000  C
  C370     1.0000 0.99630  0.74840  0.38520  Biso   1.000  C
  C371     1.0000 0.50370  0.24840  0.11480  Biso   1.000  C
  C372     1.0000 0.00370  0.74840  0.11480  Biso   1.000  C
  C373     1.0000 0.50370  0.75160  0.61480  Biso   1.000  C
  C374     1.0000 0.00370  0.25160  0.61480  Biso   1.000  C
  C375     1.0000 0.49630  0.75160  0.88520  Biso   1.000  C
  C376     1.0000 0.99630  0.25160  0.88520  Biso   1.000  C
  H225     1.0000 0.50910  0.19050  0.38000  Biso   1.000  H
  H226     1.0000 0.00910  0.69050  0.38000  Biso   1.000  H
  H227     1.0000 0.49090  0.19050  0.12000  Biso   1.000  H
  H228     1.0000 0.99090  0.69050  0.12000  Biso   1.000  H
  H229     1.0000 0.49090  0.80950  0.62000  Biso   1.000  H
  H230     1.0000 0.99090  0.30950  0.62000  Biso   1.000  H
  H231     1.0000 0.50910  0.80950  0.88000  Biso   1.000  H
  H232     1.0000 0.00910  0.30950  0.88000  Biso   1.000  H
  C377     1.0000 0.52810  0.32630  0.39210  Biso   1.000  C
  C378     1.0000 0.02810  0.82630  0.39210  Biso   1.000  C
  C379     1.0000 0.47190  0.32630  0.10790  Biso   1.000  C
  C380     1.0000 0.97190  0.82630  0.10790  Biso   1.000  C
  C381     1.0000 0.47190  0.67370  0.60790  Biso   1.000  C
  C382     1.0000 0.97190  0.17370  0.60790  Biso   1.000  C
  C383     1.0000 0.52810  0.67370  0.89210  Biso   1.000  C
  C384     1.0000 0.02810  0.17370  0.89210  Biso   1.000  C
  H233     1.0000 0.56240  0.31980  0.39000  Biso   1.000  H
  H234     1.0000 0.06240  0.81980  0.39000  Biso   1.000  H
  H235     1.0000 0.43760  0.31980  0.11000  Biso   1.000  H
  H236     1.0000 0.93760  0.81980  0.11000  Biso   1.000  H
  H237     1.0000 0.43760  0.68020  0.61000  Biso   1.000  H
  H238     1.0000 0.93760  0.18020  0.61000  Biso   1.000  H
  H239     1.0000 0.56240  0.68020  0.89000  Biso   1.000  H
  H240     1.0000 0.06240  0.18020  0.89000  Biso   1.000  H
  N1       1.0000 0.57000  0.64020  0.37660  Biso   1.000  N
  N2       1.0000 0.07000  0.14020  0.37660  Biso   1.000  N
  N3       1.0000 0.43000  0.64020  0.12340  Biso   1.000  N
  N4       1.0000 0.93000  0.14020  0.12340  Biso   1.000  N
  N5       1.0000 0.43000  0.35980  0.62340  Biso   1.000  N
  N6       1.0000 0.93000  0.85980  0.62340  Biso   1.000  N
  N7       1.0000 0.57000  0.35980  0.87660  Biso   1.000  N
  N8       1.0000 0.07000  0.85980  0.87660  Biso   1.000  N
  N9       1.0000 0.64010  0.51030  0.43890  Biso   1.000  N
  N10      1.0000 0.14010  0.01030  0.43890  Biso   1.000  N
  N11      1.0000 0.35990  0.51030  0.06110  Biso   1.000  N
  N12      1.0000 0.85990  0.01030  0.06110  Biso   1.000  N
  N13      1.0000 0.35990  0.48970  0.56110  Biso   1.000  N
  N14      1.0000 0.85990  0.98970  0.56110  Biso   1.000  N
  N15      1.0000 0.64010  0.48970  0.93890  Biso   1.000  N
  N16      1.0000 0.14010  0.98970  0.93890  Biso   1.000  N
  N17      1.0000 0.49870  0.56910  0.44290  Biso   1.000  N
  N18      1.0000 0.99870  0.06910  0.44290  Biso   1.000  N
  N19      1.0000 0.50130  0.56910  0.05710  Biso   1.000  N
  N20      1.0000 0.00130  0.06910  0.05710  Biso   1.000  N
  N21      1.0000 0.50130  0.43090  0.55710  Biso   1.000  N
  N22      1.0000 0.00130  0.93090  0.55710  Biso   1.000  N
  N23      1.0000 0.49870  0.43090  0.94290  Biso   1.000  N
  N24      1.0000 0.99870  0.93090  0.94290  Biso   1.000  N
  N25      1.0000 0.51310  0.41080  0.40150  Biso   1.000  N
  N26      1.0000 0.01310  0.91080  0.40150  Biso   1.000  N
  N27      1.0000 0.48690  0.41080  0.09850  Biso   1.000  N
  N28      1.0000 0.98690  0.91080  0.09850  Biso   1.000  N
  N29      1.0000 0.48690  0.58920  0.59850  Biso   1.000  N
  N30      1.0000 0.98690  0.08920  0.59850  Biso   1.000  N
  N31      1.0000 0.51310  0.58920  0.90150  Biso   1.000  N
  N32      1.0000 0.01310  0.08920  0.90150  Biso   1.000  N
  O1       1.0000 0.32800  0.28020  0.22200  Biso   1.000  O
  O2       1.0000 0.82800  0.78020  0.22200  Biso   1.000  O
  O3       1.0000 0.67200  0.28020  0.27800  Biso   1.000  O
  O4       1.0000 0.17200  0.78020  0.27800  Biso   1.000  O
  O5       1.0000 0.67200  0.71980  0.77800  Biso   1.000  O
  O6       1.0000 0.17200  0.21980  0.77800  Biso   1.000  O
  O7       1.0000 0.32800  0.71980  0.72200  Biso   1.000  O
  O8       1.0000 0.82800  0.21980  0.72200  Biso   1.000  O
  O9       1.0000 0.25580  0.36550  0.21690  Biso   1.000  O
  O10      1.0000 0.75580  0.86550  0.21690  Biso   1.000  O
  O11      1.0000 0.74420  0.36550  0.28310  Biso   1.000  O
  O12      1.0000 0.24420  0.86550  0.28310  Biso   1.000  O
  O13      1.0000 0.74420  0.63450  0.78310  Biso   1.000  O
  O14      1.0000 0.24420  0.13450  0.78310  Biso   1.000  O
  O15      1.0000 0.25580  0.63450  0.71690  Biso   1.000  O
  O16      1.0000 0.75580  0.13450  0.71690  Biso   1.000  O
  O17      1.0000 0.30430  0.66840  0.31920  Biso   1.000  O
  O18      1.0000 0.80430  0.16840  0.31920  Biso   1.000  O
  O19      1.0000 0.69570  0.66840  0.18080  Biso   1.000  O
  O20      1.0000 0.19570  0.16840  0.18080  Biso   1.000  O
  O21      1.0000 0.69570  0.33160  0.68080  Biso   1.000  O
  O22      1.0000 0.19570  0.83160  0.68080  Biso   1.000  O
  O23      1.0000 0.30430  0.33160  0.81920  Biso   1.000  O
  O24      1.0000 0.80430  0.83160  0.81920  Biso   1.000  O
  O25      1.0000 0.35380  0.76040  0.28650  Biso   1.000  O
  O26      1.0000 0.85380  0.26040  0.28650  Biso   1.000  O
  O27      1.0000 0.64620  0.76040  0.21350  Biso   1.000  O
  O28      1.0000 0.14620  0.26040  0.21350  Biso   1.000  O
  O29      1.0000 0.64620  0.23960  0.71350  Biso   1.000  O
  O30      1.0000 0.14620  0.73960  0.71350  Biso   1.000  O
  O31      1.0000 0.35380  0.23960  0.78650  Biso   1.000  O
  O32      1.0000 0.85380  0.73960  0.78650  Biso   1.000  O
  O33      1.0000 0.21760  0.45000  0.29950  Biso   1.000  O
  O34      1.0000 0.71760  0.95000  0.29950  Biso   1.000  O
  O35      1.0000 0.78240  0.45000  0.20050  Biso   1.000  O
  O36      1.0000 0.28240  0.95000  0.20050  Biso   1.000  O
  O37      1.0000 0.78240  0.55000  0.70050  Biso   1.000  O
  O38      1.0000 0.28240  0.05000  0.70050  Biso   1.000  O
  O39      1.0000 0.21760  0.55000  0.79950  Biso   1.000  O
  O40      1.0000 0.71760  0.05000  0.79950  Biso   1.000  O
  O41      1.0000 0.26520  0.51790  0.38190  Biso   1.000  O
  O42      1.0000 0.76520  0.01790  0.38190  Biso   1.000  O
  O43      1.0000 0.73480  0.51790  0.11810  Biso   1.000  O
  O44      1.0000 0.23480  0.01790  0.11810  Biso   1.000  O
  O45      1.0000 0.73480  0.48210  0.61810  Biso   1.000  O
  O46      1.0000 0.23480  0.98210  0.61810  Biso   1.000  O
  O47      1.0000 0.26520  0.48210  0.88190  Biso   1.000  O
  O48      1.0000 0.76520  0.98210  0.88190  Biso   1.000  O
  O49      1.0000 0.31630  0.04050  0.35450  Biso   1.000  O
  O50      1.0000 0.81630  0.54050  0.35450  Biso   1.000  O
  O51      1.0000 0.68370  0.04050  0.14550  Biso   1.000  O
  O52      1.0000 0.18370  0.54050  0.14550  Biso   1.000  O
  O53      1.0000 0.68370  0.95950  0.64550  Biso   1.000  O
  O54      1.0000 0.18370  0.45950  0.64550  Biso   1.000  O
  O55      1.0000 0.31630  0.95950  0.85450  Biso   1.000  O
  O56      1.0000 0.81630  0.45950  0.85450  Biso   1.000  O
  O57      1.0000 0.28220  0.13260  0.27980  Biso   1.000  O
  O58      1.0000 0.78220  0.63260  0.27980  Biso   1.000  O
  O59      1.0000 0.71780  0.13260  0.22020  Biso   1.000  O
  O60      1.0000 0.21780  0.63260  0.22020  Biso   1.000  O
  O61      1.0000 0.71780  0.86740  0.72020  Biso   1.000  O
  O62      1.0000 0.21780  0.36740  0.72020  Biso   1.000  O
  O63      1.0000 0.28220  0.86740  0.77980  Biso   1.000  O
  O64      1.0000 0.78220  0.36740  0.77980  Biso   1.000  O
  O65      1.0000 0.15550  0.61480  0.35860  Biso   1.000  O
  O66      1.0000 0.65550  0.11480  0.35860  Biso   1.000  O
  O67      1.0000 0.84450  0.61480  0.14140  Biso   1.000  O
  O68      1.0000 0.34450  0.11480  0.14140  Biso   1.000  O
  O69      1.0000 0.84450  0.38520  0.64140  Biso   1.000  O
  O70      1.0000 0.34450  0.88520  0.64140  Biso   1.000  O
  O71      1.0000 0.15550  0.38520  0.85860  Biso   1.000  O
  O72      1.0000 0.65550  0.88520  0.85860  Biso   1.000  O
  O73      1.0000 0.17570  0.72590  0.42510  Biso   1.000  O
  O74      1.0000 0.67570  0.22590  0.42510  Biso   1.000  O
  O75      1.0000 0.82430  0.72590  0.07490  Biso   1.000  O
  O76      1.0000 0.32430  0.22590  0.07490  Biso   1.000  O
  O77      1.0000 0.82430  0.27410  0.57490  Biso   1.000  O
  O78      1.0000 0.32430  0.77410  0.57490  Biso   1.000  O
  O79      1.0000 0.17570  0.27410  0.92510  Biso   1.000  O
  O80      1.0000 0.67570  0.77410  0.92510  Biso   1.000  O
  O81      1.0000 0.15950  0.64580  0.60600  Biso   1.000  O
  O82      1.0000 0.65950  0.14580  0.60600  Biso   1.000  O
  O83      1.0000 0.84050  0.64580  0.89400  Biso   1.000  O
  O84      1.0000 0.34050  0.14580  0.89400  Biso   1.000  O
  O85      1.0000 0.84050  0.35420  0.39400  Biso   1.000  O
  O86      1.0000 0.34050  0.85420  0.39400  Biso   1.000  O
  O87      1.0000 0.15950  0.35420  0.10600  Biso   1.000  O
  O88      1.0000 0.65950  0.85420  0.10600  Biso   1.000  O
  O89      1.0000 0.08680  0.57000  0.60300  Biso   1.000  O
  O90      1.0000 0.58680  0.07000  0.60300  Biso   1.000  O
  O91      1.0000 0.91320  0.57000  0.89700  Biso   1.000  O
  O92      1.0000 0.41320  0.07000  0.89700  Biso   1.000  O
  O93      1.0000 0.91320  0.43000  0.39700  Biso   1.000  O
  O94      1.0000 0.41320  0.93000  0.39700  Biso   1.000  O
  O95      1.0000 0.08680  0.43000  0.10300  Biso   1.000  O
  O96      1.0000 0.58680  0.93000  0.10300  Biso   1.000  O
  O97      1.0000 0.12970  0.56300  0.23400  Biso   1.000  O
  O98      1.0000 0.62970  0.06300  0.23400  Biso   1.000  O
  O99      1.0000 0.87030  0.56300  0.26600  Biso   1.000  O
  O100     1.0000 0.37030  0.06300  0.26600  Biso   1.000  O
  O101     1.0000 0.87030  0.43700  0.76600  Biso   1.000  O
  O102     1.0000 0.37030  0.93700  0.76600  Biso   1.000  O
  O103     1.0000 0.12970  0.43700  0.73400  Biso   1.000  O
  O104     1.0000 0.62970  0.93700  0.73400  Biso   1.000  O
  O105     1.0000 0.08380  0.43240  0.22500  Biso   1.000  O
  O106     1.0000 0.58380  0.93240  0.22500  Biso   1.000  O
  O107     1.0000 0.91620  0.43240  0.27500  Biso   1.000  O
  O108     1.0000 0.41620  0.93240  0.27500  Biso   1.000  O
  O109     1.0000 0.91620  0.56760  0.77500  Biso   1.000  O
  O110     1.0000 0.41620  0.06760  0.77500  Biso   1.000  O
  O111     1.0000 0.08380  0.56760  0.72500  Biso   1.000  O
  O112     1.0000 0.58380  0.06760  0.72500  Biso   1.000  O
  O113     1.0000 0.25990  0.72840  0.39530  Biso   1.000  O
  O114     1.0000 0.75990  0.22840  0.39530  Biso   1.000  O
  O115     1.0000 0.74010  0.72840  0.10470  Biso   1.000  O
  O116     1.0000 0.24010  0.22840  0.10470  Biso   1.000  O
  O117     1.0000 0.74010  0.27160  0.60470  Biso   1.000  O
  O118     1.0000 0.24010  0.77160  0.60470  Biso   1.000  O
  O119     1.0000 0.25990  0.27160  0.89530  Biso   1.000  O
  O120     1.0000 0.75990  0.77160  0.89530  Biso   1.000  O
