data_image0
_cell_length_a       22.768
_cell_length_b       22.145
_cell_length_c       17.048
_cell_angle_alpha    90
_cell_angle_beta     90
_cell_angle_gamma    90

_symmetry_space_group_name_H-M    "P 1"
_symmetry_int_tables_number       1

loop_
  _symmetry_equiv_pos_as_xyz
  'x, y, z'

loop_
  _atom_site_label
  _atom_site_occupancy
  _atom_site_fract_x
  _atom_site_fract_y
  _atom_site_fract_z
  _atom_site_thermal_displace_type
  _atom_site_B_iso_or_equiv
  _atom_site_type_symbol
  Si1      1.0000 0.50000  0.75240  0.96560  Biso   1.000  Si
  Si2      1.0000 0.50000  0.24760  0.46560  Biso   1.000  Si
  Si3      1.0000 0.00000  0.25240  0.96560  Biso   1.000  Si
  Si4      1.0000 0.00000  0.74760  0.46560  Biso   1.000  Si
  Cu1      1.0000 0.25017  0.51899  0.71060  Biso   1.000  Cu
  Cu2      1.0000 0.74983  0.48101  0.21060  Biso   1.000  Cu
  Cu3      1.0000 0.25017  0.48101  0.21060  Biso   1.000  Cu
  Cu4      1.0000 0.74983  0.51899  0.71060  Biso   1.000  Cu
  Cu5      1.0000 0.75017  0.01899  0.71060  Biso   1.000  Cu
  Cu6      1.0000 0.24983  0.98101  0.21060  Biso   1.000  Cu
  Cu7      1.0000 0.75017  0.98101  0.21060  Biso   1.000  Cu
  Cu8      1.0000 0.24983  0.01899  0.71060  Biso   1.000  Cu
  W1       1.0000 0.57956  0.69955  0.79852  Biso   1.000  W
  W2       1.0000 0.42044  0.30045  0.29852  Biso   1.000  W
  W3       1.0000 0.57956  0.30045  0.29852  Biso   1.000  W
  W4       1.0000 0.42044  0.69955  0.79852  Biso   1.000  W
  W5       1.0000 0.07956  0.19955  0.79852  Biso   1.000  W
  W6       1.0000 0.92044  0.80045  0.29852  Biso   1.000  W
  W7       1.0000 0.07956  0.80045  0.29852  Biso   1.000  W
  W8       1.0000 0.92044  0.19955  0.79852  Biso   1.000  W
  W9       1.0000 0.57400  0.80332  0.13262  Biso   1.000  W
  W10      1.0000 0.42600  0.19668  0.63262  Biso   1.000  W
  W11      1.0000 0.57400  0.19668  0.63262  Biso   1.000  W
  W12      1.0000 0.42600  0.80332  0.13262  Biso   1.000  W
  W13      1.0000 0.07400  0.30332  0.13262  Biso   1.000  W
  W14      1.0000 0.92600  0.69668  0.63262  Biso   1.000  W
  W15      1.0000 0.07400  0.69668  0.63262  Biso   1.000  W
  W16      1.0000 0.92600  0.30332  0.13262  Biso   1.000  W
  W17      1.0000 0.50000  0.84334  0.79272  Biso   1.000  W
  W18      1.0000 0.50000  0.15666  0.29272  Biso   1.000  W
  W19      1.0000 0.00000  0.34334  0.79272  Biso   1.000  W
  W20      1.0000 0.00000  0.65666  0.29272  Biso   1.000  W
  W21      1.0000 0.65300  0.74979  0.95908  Biso   1.000  W
  W22      1.0000 0.34700  0.25021  0.45908  Biso   1.000  W
  W23      1.0000 0.65300  0.25021  0.45908  Biso   1.000  W
  W24      1.0000 0.34700  0.74979  0.95908  Biso   1.000  W
  W25      1.0000 0.15300  0.24979  0.95908  Biso   1.000  W
  W26      1.0000 0.84700  0.75021  0.45908  Biso   1.000  W
  W27      1.0000 0.15300  0.75021  0.45908  Biso   1.000  W
  W28      1.0000 0.84700  0.24979  0.95908  Biso   1.000  W
  W29      1.0000 0.57971  0.61611  0.96592  Biso   1.000  W
  W30      1.0000 0.42029  0.38389  0.46592  Biso   1.000  W
  W31      1.0000 0.57971  0.38389  0.46592  Biso   1.000  W
  W32      1.0000 0.42029  0.61611  0.96592  Biso   1.000  W
  W33      1.0000 0.07971  0.11611  0.96592  Biso   1.000  W
  W34      1.0000 0.92029  0.88389  0.46592  Biso   1.000  W
  W35      1.0000 0.07971  0.88389  0.46592  Biso   1.000  W
  W36      1.0000 0.92029  0.11611  0.96592  Biso   1.000  W
  W37      1.0000 0.50000  0.67069  0.13866  Biso   1.000  W
  W38      1.0000 0.50000  0.32931  0.63866  Biso   1.000  W
  W39      1.0000 0.00000  0.17069  0.13866  Biso   1.000  W
  W40      1.0000 0.00000  0.82931  0.63866  Biso   1.000  W
  W41      1.0000 0.57388  0.89352  0.95154  Biso   1.000  W
  W42      1.0000 0.42612  0.10648  0.45154  Biso   1.000  W
  W43      1.0000 0.57388  0.10648  0.45154  Biso   1.000  W
  W44      1.0000 0.42612  0.89352  0.95154  Biso   1.000  W
  W45      1.0000 0.07388  0.39352  0.95154  Biso   1.000  W
  W46      1.0000 0.92612  0.60648  0.45154  Biso   1.000  W
  W47      1.0000 0.07388  0.60648  0.45154  Biso   1.000  W
  W48      1.0000 0.92612  0.39352  0.95154  Biso   1.000  W
  O1       1.0000 0.62950  0.83070  0.93790  Biso   1.000  O
  O2       1.0000 0.37050  0.16930  0.43790  Biso   1.000  O
  O3       1.0000 0.62950  0.16930  0.43790  Biso   1.000  O
  O4       1.0000 0.37050  0.83070  0.93790  Biso   1.000  O
  O5       1.0000 0.12950  0.33070  0.93790  Biso   1.000  O
  O6       1.0000 0.87050  0.66930  0.43790  Biso   1.000  O
  O7       1.0000 0.12950  0.66930  0.43790  Biso   1.000  O
  O8       1.0000 0.87050  0.33070  0.93790  Biso   1.000  O
  O9       1.0000 0.61750  0.83360  0.20000  Biso   1.000  O
  O10      1.0000 0.38250  0.16640  0.70000  Biso   1.000  O
  O11      1.0000 0.61750  0.16640  0.70000  Biso   1.000  O
  O12      1.0000 0.38250  0.83360  0.20000  Biso   1.000  O
  O13      1.0000 0.11750  0.33360  0.20000  Biso   1.000  O
  O14      1.0000 0.88250  0.66640  0.70000  Biso   1.000  O
  O15      1.0000 0.11750  0.66640  0.70000  Biso   1.000  O
  O16      1.0000 0.88250  0.33360  0.20000  Biso   1.000  O
  O17      1.0000 0.62730  0.76540  0.06310  Biso   1.000  O
  O18      1.0000 0.37270  0.23460  0.56310  Biso   1.000  O
  O19      1.0000 0.62730  0.23460  0.56310  Biso   1.000  O
  O20      1.0000 0.37270  0.76540  0.06310  Biso   1.000  O
  O21      1.0000 0.12730  0.26540  0.06310  Biso   1.000  O
  O22      1.0000 0.87270  0.73460  0.56310  Biso   1.000  O
  O23      1.0000 0.12730  0.73460  0.56310  Biso   1.000  O
  O24      1.0000 0.87270  0.26540  0.06310  Biso   1.000  O
  O25      1.0000 0.57020  0.86530  0.05710  Biso   1.000  O
  O26      1.0000 0.42980  0.13470  0.55710  Biso   1.000  O
  O27      1.0000 0.57020  0.13470  0.55710  Biso   1.000  O
  O28      1.0000 0.42980  0.86530  0.05710  Biso   1.000  O
  O29      1.0000 0.07020  0.36530  0.05710  Biso   1.000  O
  O30      1.0000 0.92980  0.63470  0.55710  Biso   1.000  O
  O31      1.0000 0.07020  0.63470  0.55710  Biso   1.000  O
  O32      1.0000 0.92980  0.36530  0.05710  Biso   1.000  O
  O33      1.0000 0.55610  0.64100  0.06910  Biso   1.000  O
  O34      1.0000 0.44390  0.35900  0.56910  Biso   1.000  O
  O35      1.0000 0.55610  0.35900  0.56910  Biso   1.000  O
  O36      1.0000 0.44390  0.64100  0.06910  Biso   1.000  O
  O37      1.0000 0.05610  0.14100  0.06910  Biso   1.000  O
  O38      1.0000 0.94390  0.85900  0.56910  Biso   1.000  O
  O39      1.0000 0.05610  0.85900  0.56910  Biso   1.000  O
  O40      1.0000 0.94390  0.14100  0.06910  Biso   1.000  O
  O41      1.0000 0.59190  0.62640  0.85440  Biso   1.000  O
  O42      1.0000 0.40810  0.37360  0.35440  Biso   1.000  O
  O43      1.0000 0.59190  0.37360  0.35440  Biso   1.000  O
  O44      1.0000 0.40810  0.62640  0.85440  Biso   1.000  O
  O45      1.0000 0.09190  0.12640  0.85440  Biso   1.000  O
  O46      1.0000 0.90810  0.87360  0.35440  Biso   1.000  O
  O47      1.0000 0.09190  0.87360  0.35440  Biso   1.000  O
  O48      1.0000 0.90810  0.12640  0.85440  Biso   1.000  O
  O49      1.0000 0.64960  0.73070  0.85060  Biso   1.000  O
  O50      1.0000 0.35040  0.26930  0.35060  Biso   1.000  O
  O51      1.0000 0.64960  0.26930  0.35060  Biso   1.000  O
  O52      1.0000 0.35040  0.73070  0.85060  Biso   1.000  O
  O53      1.0000 0.14960  0.23070  0.85060  Biso   1.000  O
  O54      1.0000 0.85040  0.76930  0.35060  Biso   1.000  O
  O55      1.0000 0.14960  0.76930  0.35060  Biso   1.000  O
  O56      1.0000 0.85040  0.23070  0.85060  Biso   1.000  O
  O57      1.0000 0.61870  0.95460  0.95850  Biso   1.000  O
  O58      1.0000 0.38130  0.04540  0.45850  Biso   1.000  O
  O59      1.0000 0.61870  0.04540  0.45850  Biso   1.000  O
  O60      1.0000 0.38130  0.95460  0.95850  Biso   1.000  O
  O61      1.0000 0.11870  0.45460  0.95850  Biso   1.000  O
  O62      1.0000 0.88130  0.54540  0.45850  Biso   1.000  O
  O63      1.0000 0.11870  0.54540  0.45850  Biso   1.000  O
  O64      1.0000 0.88130  0.45460  0.95850  Biso   1.000  O
  O65      1.0000 0.55740  0.72460  0.17870  Biso   1.000  O
  O66      1.0000 0.44260  0.27540  0.67870  Biso   1.000  O
  O67      1.0000 0.55740  0.27540  0.67870  Biso   1.000  O
  O68      1.0000 0.44260  0.72460  0.17870  Biso   1.000  O
  O69      1.0000 0.05740  0.22460  0.17870  Biso   1.000  O
  O70      1.0000 0.94260  0.77540  0.67870  Biso   1.000  O
  O71      1.0000 0.05740  0.77540  0.67870  Biso   1.000  O
  O72      1.0000 0.94260  0.22460  0.17870  Biso   1.000  O
  O73      1.0000 0.50000  0.82800  0.17650  Biso   1.000  O
  O74      1.0000 0.50000  0.17200  0.67650  Biso   1.000  O
  O75      1.0000 0.00000  0.32800  0.17650  Biso   1.000  O
  O76      1.0000 0.00000  0.67200  0.67650  Biso   1.000  O
  O77      1.0000 0.50000  0.60040  0.94660  Biso   1.000  O
  O78      1.0000 0.50000  0.39960  0.44660  Biso   1.000  O
  O79      1.0000 0.00000  0.10040  0.94660  Biso   1.000  O
  O80      1.0000 0.00000  0.89960  0.44660  Biso   1.000  O
  O81      1.0000 0.50000  0.62120  0.21370  Biso   1.000  O
  O82      1.0000 0.50000  0.37880  0.71370  Biso   1.000  O
  O83      1.0000 0.00000  0.12120  0.21370  Biso   1.000  O
  O84      1.0000 0.00000  0.87880  0.71370  Biso   1.000  O
  O85      1.0000 0.55690  0.78050  0.78580  Biso   1.000  O
  O86      1.0000 0.44310  0.21950  0.28580  Biso   1.000  O
  O87      1.0000 0.55690  0.21950  0.28580  Biso   1.000  O
  O88      1.0000 0.44310  0.78050  0.78580  Biso   1.000  O
  O89      1.0000 0.05690  0.28050  0.78580  Biso   1.000  O
  O90      1.0000 0.94310  0.71950  0.28580  Biso   1.000  O
  O91      1.0000 0.05690  0.71950  0.28580  Biso   1.000  O
  O92      1.0000 0.94310  0.28050  0.78580  Biso   1.000  O
  O93      1.0000 0.50000  0.93720  0.96680  Biso   1.000  O
  O94      1.0000 0.50000  0.06280  0.46680  Biso   1.000  O
  O95      1.0000 0.00000  0.43720  0.96680  Biso   1.000  O
  O96      1.0000 0.00000  0.56280  0.46680  Biso   1.000  O
  O97      1.0000 0.60990  0.54780  0.97890  Biso   1.000  O
  O98      1.0000 0.39010  0.45220  0.47890  Biso   1.000  O
  O99      1.0000 0.60990  0.45220  0.47890  Biso   1.000  O
  O100     1.0000 0.39010  0.54780  0.97890  Biso   1.000  O
  O101     1.0000 0.10990  0.04780  0.97890  Biso   1.000  O
  O102     1.0000 0.89010  0.95220  0.47890  Biso   1.000  O
  O103     1.0000 0.10990  0.95220  0.47890  Biso   1.000  O
  O104     1.0000 0.89010  0.04780  0.97890  Biso   1.000  O
  O105     1.0000 0.55830  0.71910  0.93420  Biso   1.000  O
  O106     1.0000 0.44170  0.28090  0.43420  Biso   1.000  O
  O107     1.0000 0.55830  0.28090  0.43420  Biso   1.000  O
  O108     1.0000 0.44170  0.71910  0.93420  Biso   1.000  O
  O109     1.0000 0.05830  0.21910  0.93420  Biso   1.000  O
  O110     1.0000 0.94170  0.78090  0.43420  Biso   1.000  O
  O111     1.0000 0.05830  0.78090  0.43420  Biso   1.000  O
  O112     1.0000 0.94170  0.21910  0.93420  Biso   1.000  O
  O113     1.0000 0.50000  0.67880  0.79100  Biso   1.000  O
  O114     1.0000 0.50000  0.32120  0.29100  Biso   1.000  O
  O115     1.0000 0.00000  0.17880  0.79100  Biso   1.000  O
  O116     1.0000 0.00000  0.82120  0.29100  Biso   1.000  O
  O117     1.0000 0.72690  0.75730  0.96820  Biso   1.000  O
  O118     1.0000 0.27310  0.24270  0.46820  Biso   1.000  O
  O119     1.0000 0.72690  0.24270  0.46820  Biso   1.000  O
  O120     1.0000 0.27310  0.75730  0.96820  Biso   1.000  O
  O121     1.0000 0.22690  0.25730  0.96820  Biso   1.000  O
  O122     1.0000 0.77310  0.74270  0.46820  Biso   1.000  O
  O123     1.0000 0.22690  0.74270  0.46820  Biso   1.000  O
  O124     1.0000 0.77310  0.25730  0.96820  Biso   1.000  O
  O125     1.0000 0.50000  0.87410  0.70310  Biso   1.000  O
  O126     1.0000 0.50000  0.12590  0.20310  Biso   1.000  O
  O127     1.0000 0.00000  0.37410  0.70310  Biso   1.000  O
  O128     1.0000 0.00000  0.62590  0.20310  Biso   1.000  O
  O129     1.0000 0.50000  0.75630  0.05880  Biso   1.000  O
  O130     1.0000 0.50000  0.24370  0.55880  Biso   1.000  O
  O131     1.0000 0.00000  0.25630  0.05880  Biso   1.000  O
  O132     1.0000 0.00000  0.74370  0.55880  Biso   1.000  O
  O133     1.0000 0.60940  0.67870  0.71120  Biso   1.000  O
  O134     1.0000 0.39060  0.32130  0.21120  Biso   1.000  O
  O135     1.0000 0.60940  0.32130  0.21120  Biso   1.000  O
  O136     1.0000 0.39060  0.67870  0.71120  Biso   1.000  O
  O137     1.0000 0.10940  0.17870  0.71120  Biso   1.000  O
  O138     1.0000 0.89060  0.82130  0.21120  Biso   1.000  O
  O139     1.0000 0.10940  0.82130  0.21120  Biso   1.000  O
  O140     1.0000 0.89060  0.17870  0.71120  Biso   1.000  O
  O141     1.0000 0.64950  0.66570  0.98380  Biso   1.000  O
  O142     1.0000 0.35050  0.33430  0.48380  Biso   1.000  O
  O143     1.0000 0.64950  0.33430  0.48380  Biso   1.000  O
  O144     1.0000 0.35050  0.66570  0.98380  Biso   1.000  O
  O145     1.0000 0.14950  0.16570  0.98380  Biso   1.000  O
  O146     1.0000 0.85050  0.83430  0.48380  Biso   1.000  O
  O147     1.0000 0.14950  0.83430  0.48380  Biso   1.000  O
  O148     1.0000 0.85050  0.16570  0.98380  Biso   1.000  O
  O149     1.0000 0.55880  0.89520  0.84040  Biso   1.000  O
  O150     1.0000 0.44120  0.10480  0.34040  Biso   1.000  O
  O151     1.0000 0.55880  0.10480  0.34040  Biso   1.000  O
  O152     1.0000 0.44120  0.89520  0.84040  Biso   1.000  O
  O153     1.0000 0.05880  0.39520  0.84040  Biso   1.000  O
  O154     1.0000 0.94120  0.60480  0.34040  Biso   1.000  O
  O155     1.0000 0.05880  0.60480  0.34040  Biso   1.000  O
  O156     1.0000 0.94120  0.39520  0.84040  Biso   1.000  O
  O157     1.0000 0.50000  0.82270  0.92710  Biso   1.000  O
  O158     1.0000 0.50000  0.17730  0.42710  Biso   1.000  O
  O159     1.0000 0.00000  0.32270  0.92710  Biso   1.000  O
  O160     1.0000 0.00000  0.67730  0.42710  Biso   1.000  O
  O161     1.0000 0.25100  0.50780  0.85340  Biso   1.000  O
  O162     1.0000 0.74900  0.49220  0.35340  Biso   1.000  O
  O163     1.0000 0.25100  0.49220  0.35340  Biso   1.000  O
  O164     1.0000 0.74900  0.50780  0.85340  Biso   1.000  O
  O165     1.0000 0.75100  0.00780  0.85340  Biso   1.000  O
  O166     1.0000 0.24900  0.99220  0.35340  Biso   1.000  O
  O167     1.0000 0.75100  0.99220  0.35340  Biso   1.000  O
  O168     1.0000 0.24900  0.00780  0.85340  Biso   1.000  O
  O169     1.0000 0.24840  0.51110  0.56400  Biso   1.000  O
  O170     1.0000 0.75160  0.48890  0.06400  Biso   1.000  O
  O171     1.0000 0.24840  0.48890  0.06400  Biso   1.000  O
  O172     1.0000 0.75160  0.51110  0.56400  Biso   1.000  O
  O173     1.0000 0.74840  0.01110  0.56400  Biso   1.000  O
  O174     1.0000 0.25160  0.98890  0.06400  Biso   1.000  O
  O175     1.0000 0.74840  0.98890  0.06400  Biso   1.000  O
  O176     1.0000 0.25160  0.01110  0.56400  Biso   1.000  O
  O177     1.0000 0.25410  0.40770  0.47360  Biso   1.000  O
  O178     1.0000 0.74590  0.59230  0.97360  Biso   1.000  O
  O179     1.0000 0.25410  0.59230  0.97360  Biso   1.000  O
  O180     1.0000 0.74590  0.40770  0.47360  Biso   1.000  O
  O181     1.0000 0.75410  0.90770  0.47360  Biso   1.000  O
  O182     1.0000 0.24590  0.09230  0.97360  Biso   1.000  O
  O183     1.0000 0.75410  0.09230  0.97360  Biso   1.000  O
  O184     1.0000 0.24590  0.90770  0.47360  Biso   1.000  O
  O185     1.0000 0.75860  0.59800  0.44260  Biso   1.000  O
  O186     1.0000 0.24140  0.40200  0.94260  Biso   1.000  O
  O187     1.0000 0.75860  0.40200  0.94260  Biso   1.000  O
  O188     1.0000 0.24140  0.59800  0.44260  Biso   1.000  O
  O189     1.0000 0.25860  0.09800  0.44260  Biso   1.000  O
  O190     1.0000 0.74140  0.90200  0.94260  Biso   1.000  O
  O191     1.0000 0.25860  0.90200  0.94260  Biso   1.000  O
  O192     1.0000 0.74140  0.09800  0.44260  Biso   1.000  O
  N1       1.0000 0.25100  0.42840  0.70920  Biso   1.000  N
  N2       1.0000 0.74900  0.57160  0.20920  Biso   1.000  N
  N3       1.0000 0.25100  0.57160  0.20920  Biso   1.000  N
  N4       1.0000 0.74900  0.42840  0.70920  Biso   1.000  N
  N5       1.0000 0.75100  0.92840  0.70920  Biso   1.000  N
  N6       1.0000 0.24900  0.07160  0.20920  Biso   1.000  N
  N7       1.0000 0.75100  0.07160  0.20920  Biso   1.000  N
  N8       1.0000 0.24900  0.92840  0.70920  Biso   1.000  N
  N9       1.0000 0.15770  0.51960  0.71520  Biso   1.000  N
  N10      1.0000 0.84230  0.48040  0.21520  Biso   1.000  N
  N11      1.0000 0.15770  0.48040  0.21520  Biso   1.000  N
  N12      1.0000 0.84230  0.51960  0.71520  Biso   1.000  N
  N13      1.0000 0.65770  0.01960  0.71520  Biso   1.000  N
  N14      1.0000 0.34230  0.98040  0.21520  Biso   1.000  N
  N15      1.0000 0.65770  0.98040  0.21520  Biso   1.000  N
  N16      1.0000 0.34230  0.01960  0.71520  Biso   1.000  N
  N17      1.0000 0.34370  0.51950  0.71270  Biso   1.000  N
  N18      1.0000 0.65630  0.48050  0.21270  Biso   1.000  N
  N19      1.0000 0.34370  0.48050  0.21270  Biso   1.000  N
  N20      1.0000 0.65630  0.51950  0.71270  Biso   1.000  N
  N21      1.0000 0.84370  0.01950  0.71270  Biso   1.000  N
  N22      1.0000 0.15630  0.98050  0.21270  Biso   1.000  N
  N23      1.0000 0.84370  0.98050  0.21270  Biso   1.000  N
  N24      1.0000 0.15630  0.01950  0.71270  Biso   1.000  N
  N25      1.0000 0.25010  0.10950  0.71140  Biso   1.000  N
  N26      1.0000 0.74990  0.89050  0.21140  Biso   1.000  N
  N27      1.0000 0.25010  0.89050  0.21140  Biso   1.000  N
  N28      1.0000 0.74990  0.10950  0.71140  Biso   1.000  N
  N29      1.0000 0.75010  0.60950  0.71140  Biso   1.000  N
  N30      1.0000 0.24990  0.39050  0.21140  Biso   1.000  N
  N31      1.0000 0.75010  0.39050  0.21140  Biso   1.000  N
  N32      1.0000 0.24990  0.60950  0.71140  Biso   1.000  N
  C1       1.0000 0.21340  0.39620  0.75300  Biso   1.000  C
  C2       1.0000 0.78660  0.60380  0.25300  Biso   1.000  C
  C3       1.0000 0.21340  0.60380  0.25300  Biso   1.000  C
  C4       1.0000 0.78660  0.39620  0.75300  Biso   1.000  C
  C5       1.0000 0.71340  0.89620  0.75300  Biso   1.000  C
  C6       1.0000 0.28660  0.10380  0.25300  Biso   1.000  C
  C7       1.0000 0.71340  0.10380  0.25300  Biso   1.000  C
  C8       1.0000 0.28660  0.89620  0.75300  Biso   1.000  C
  H1       1.0000 0.18640  0.41790  0.78280  Biso   1.000  H
  H2       1.0000 0.81360  0.58210  0.28280  Biso   1.000  H
  H3       1.0000 0.18640  0.58210  0.28280  Biso   1.000  H
  H4       1.0000 0.81360  0.41790  0.78280  Biso   1.000  H
  H5       1.0000 0.68640  0.91790  0.78280  Biso   1.000  H
  H6       1.0000 0.31360  0.08210  0.28280  Biso   1.000  H
  H7       1.0000 0.68640  0.08210  0.28280  Biso   1.000  H
  H8       1.0000 0.31360  0.91790  0.78280  Biso   1.000  H
  C9       1.0000 0.25240  0.30230  0.71020  Biso   1.000  C
  C10      1.0000 0.74760  0.69770  0.21020  Biso   1.000  C
  C11      1.0000 0.25240  0.69770  0.21020  Biso   1.000  C
  C12      1.0000 0.74760  0.30230  0.71020  Biso   1.000  C
  C13      1.0000 0.75240  0.80230  0.71020  Biso   1.000  C
  C14      1.0000 0.24760  0.19770  0.21020  Biso   1.000  C
  C15      1.0000 0.75240  0.19770  0.21020  Biso   1.000  C
  C16      1.0000 0.24760  0.80230  0.71020  Biso   1.000  C
  C17      1.0000 0.21070  0.33350  0.75830  Biso   1.000  C
  C18      1.0000 0.78930  0.66650  0.25830  Biso   1.000  C
  C19      1.0000 0.21070  0.66650  0.25830  Biso   1.000  C
  C20      1.0000 0.78930  0.33350  0.75830  Biso   1.000  C
  C21      1.0000 0.71070  0.83350  0.75830  Biso   1.000  C
  C22      1.0000 0.28930  0.16650  0.25830  Biso   1.000  C
  C23      1.0000 0.71070  0.16650  0.25830  Biso   1.000  C
  C24      1.0000 0.28930  0.83350  0.75830  Biso   1.000  C
  H9       1.0000 0.18410  0.31350  0.79040  Biso   1.000  H
  H10      1.0000 0.81590  0.68650  0.29040  Biso   1.000  H
  H11      1.0000 0.18410  0.68650  0.29040  Biso   1.000  H
  H12      1.0000 0.81590  0.31350  0.79040  Biso   1.000  H
  H13      1.0000 0.68410  0.81350  0.79040  Biso   1.000  H
  H14      1.0000 0.31590  0.18650  0.29040  Biso   1.000  H
  H15      1.0000 0.68410  0.18650  0.29040  Biso   1.000  H
  H16      1.0000 0.31590  0.81350  0.79040  Biso   1.000  H
  C25      1.0000 0.29080  0.33480  0.66860  Biso   1.000  C
  C26      1.0000 0.70920  0.66520  0.16860  Biso   1.000  C
  C27      1.0000 0.29080  0.66520  0.16860  Biso   1.000  C
  C28      1.0000 0.70920  0.33480  0.66860  Biso   1.000  C
  C29      1.0000 0.79080  0.83480  0.66860  Biso   1.000  C
  C30      1.0000 0.20920  0.16520  0.16860  Biso   1.000  C
  C31      1.0000 0.79080  0.16520  0.16860  Biso   1.000  C
  C32      1.0000 0.20920  0.83480  0.66860  Biso   1.000  C
  H17      1.0000 0.31810  0.31450  0.63770  Biso   1.000  H
  H18      1.0000 0.68190  0.68550  0.13770  Biso   1.000  H
  H19      1.0000 0.31810  0.68550  0.13770  Biso   1.000  H
  H20      1.0000 0.68190  0.31450  0.63770  Biso   1.000  H
  H21      1.0000 0.81810  0.81450  0.63770  Biso   1.000  H
  H22      1.0000 0.18190  0.18550  0.13770  Biso   1.000  H
  H23      1.0000 0.81810  0.18550  0.13770  Biso   1.000  H
  H24      1.0000 0.18190  0.81450  0.63770  Biso   1.000  H
  C33      1.0000 0.29180  0.39650  0.66950  Biso   1.000  C
  C34      1.0000 0.70820  0.60350  0.16950  Biso   1.000  C
  C35      1.0000 0.29180  0.60350  0.16950  Biso   1.000  C
  C36      1.0000 0.70820  0.39650  0.66950  Biso   1.000  C
  C37      1.0000 0.79180  0.89650  0.66950  Biso   1.000  C
  C38      1.0000 0.20820  0.10350  0.16950  Biso   1.000  C
  C39      1.0000 0.79180  0.10350  0.16950  Biso   1.000  C
  C40      1.0000 0.20820  0.89650  0.66950  Biso   1.000  C
  H25      1.0000 0.32110  0.41690  0.64220  Biso   1.000  H
  H26      1.0000 0.67890  0.58310  0.14220  Biso   1.000  H
  H27      1.0000 0.32110  0.58310  0.14220  Biso   1.000  H
  H28      1.0000 0.67890  0.41690  0.64220  Biso   1.000  H
  H29      1.0000 0.82110  0.91690  0.64220  Biso   1.000  H
  H30      1.0000 0.17890  0.08310  0.14220  Biso   1.000  H
  H31      1.0000 0.82110  0.08310  0.14220  Biso   1.000  H
  H32      1.0000 0.17890  0.91690  0.64220  Biso   1.000  H
  C41      1.0000 0.37540  0.50990  0.77680  Biso   1.000  C
  C42      1.0000 0.62460  0.49010  0.27680  Biso   1.000  C
  C43      1.0000 0.37540  0.49010  0.27680  Biso   1.000  C
  C44      1.0000 0.62460  0.50990  0.77680  Biso   1.000  C
  C45      1.0000 0.87540  0.00990  0.77680  Biso   1.000  C
  C46      1.0000 0.12460  0.99010  0.27680  Biso   1.000  C
  C47      1.0000 0.87540  0.99010  0.27680  Biso   1.000  C
  C48      1.0000 0.12460  0.00990  0.77680  Biso   1.000  C
  H33      1.0000 0.35590  0.50700  0.82450  Biso   1.000  H
  H34      1.0000 0.64410  0.49300  0.32450  Biso   1.000  H
  H35      1.0000 0.35590  0.49300  0.32450  Biso   1.000  H
  H36      1.0000 0.64410  0.50700  0.82450  Biso   1.000  H
  H37      1.0000 0.85590  0.00700  0.82450  Biso   1.000  H
  H38      1.0000 0.14410  0.99300  0.32450  Biso   1.000  H
  H39      1.0000 0.85590  0.99300  0.32450  Biso   1.000  H
  H40      1.0000 0.14410  0.00700  0.82450  Biso   1.000  H
  C49      1.0000 0.06320  0.52940  0.77830  Biso   1.000  C
  C50      1.0000 0.93680  0.47060  0.27830  Biso   1.000  C
  C51      1.0000 0.06320  0.47060  0.27830  Biso   1.000  C
  C52      1.0000 0.93680  0.52940  0.77830  Biso   1.000  C
  C53      1.0000 0.56320  0.02940  0.77830  Biso   1.000  C
  C54      1.0000 0.43680  0.97060  0.27830  Biso   1.000  C
  C55      1.0000 0.56320  0.97060  0.27830  Biso   1.000  C
  C56      1.0000 0.43680  0.02940  0.77830  Biso   1.000  C
  H41      1.0000 0.04340  0.53740  0.82490  Biso   1.000  H
  H42      1.0000 0.95660  0.46260  0.32490  Biso   1.000  H
  H43      1.0000 0.04340  0.46260  0.32490  Biso   1.000  H
  H44      1.0000 0.95660  0.53740  0.82490  Biso   1.000  H
  H45      1.0000 0.54340  0.03740  0.82490  Biso   1.000  H
  H46      1.0000 0.45660  0.96260  0.32490  Biso   1.000  H
  H47      1.0000 0.54340  0.96260  0.32490  Biso   1.000  H
  H48      1.0000 0.45660  0.03740  0.82490  Biso   1.000  H
  C57      1.0000 0.43390  0.53120  0.63900  Biso   1.000  C
  C58      1.0000 0.56610  0.46880  0.13900  Biso   1.000  C
  C59      1.0000 0.43390  0.46880  0.13900  Biso   1.000  C
  C60      1.0000 0.56610  0.53120  0.63900  Biso   1.000  C
  C61      1.0000 0.93390  0.03120  0.63900  Biso   1.000  C
  C62      1.0000 0.06610  0.96880  0.13900  Biso   1.000  C
  C63      1.0000 0.93390  0.96880  0.13900  Biso   1.000  C
  C64      1.0000 0.06610  0.03120  0.63900  Biso   1.000  C
  H49      1.0000 0.45250  0.53950  0.59170  Biso   1.000  H
  H50      1.0000 0.54750  0.46050  0.09170  Biso   1.000  H
  H51      1.0000 0.45250  0.46050  0.09170  Biso   1.000  H
  H52      1.0000 0.54750  0.53950  0.59170  Biso   1.000  H
  H53      1.0000 0.95250  0.03950  0.59170  Biso   1.000  H
  H54      1.0000 0.04750  0.96050  0.09170  Biso   1.000  H
  H55      1.0000 0.95250  0.96050  0.09170  Biso   1.000  H
  H56      1.0000 0.04750  0.03950  0.59170  Biso   1.000  H
  C65      1.0000 0.06550  0.51090  0.65300  Biso   1.000  C
  C66      1.0000 0.93450  0.48910  0.15300  Biso   1.000  C
  C67      1.0000 0.06550  0.48910  0.15300  Biso   1.000  C
  C68      1.0000 0.93450  0.51090  0.65300  Biso   1.000  C
  C69      1.0000 0.56550  0.01090  0.65300  Biso   1.000  C
  C70      1.0000 0.43450  0.98910  0.15300  Biso   1.000  C
  C71      1.0000 0.56550  0.98910  0.15300  Biso   1.000  C
  C72      1.0000 0.43450  0.01090  0.65300  Biso   1.000  C
  H57      1.0000 0.04560  0.50590  0.60580  Biso   1.000  H
  H58      1.0000 0.95440  0.49410  0.10580  Biso   1.000  H
  H59      1.0000 0.04560  0.49410  0.10580  Biso   1.000  H
  H60      1.0000 0.95440  0.50590  0.60580  Biso   1.000  H
  H61      1.0000 0.54560  0.00590  0.60580  Biso   1.000  H
  H62      1.0000 0.45440  0.99410  0.10580  Biso   1.000  H
  H63      1.0000 0.54560  0.99410  0.10580  Biso   1.000  H
  H64      1.0000 0.45440  0.00590  0.60580  Biso   1.000  H
  C73      1.0000 0.25060  0.23570  0.70780  Biso   1.000  C
  C74      1.0000 0.74940  0.76430  0.20780  Biso   1.000  C
  C75      1.0000 0.25060  0.76430  0.20780  Biso   1.000  C
  C76      1.0000 0.74940  0.23570  0.70780  Biso   1.000  C
  C77      1.0000 0.75060  0.73570  0.70780  Biso   1.000  C
  C78      1.0000 0.24940  0.26430  0.20780  Biso   1.000  C
  C79      1.0000 0.75060  0.26430  0.20780  Biso   1.000  C
  C80      1.0000 0.24940  0.73570  0.70780  Biso   1.000  C
  C81      1.0000 0.12560  0.52930  0.77910  Biso   1.000  C
  C82      1.0000 0.87440  0.47070  0.27910  Biso   1.000  C
  C83      1.0000 0.12560  0.47070  0.27910  Biso   1.000  C
  C84      1.0000 0.87440  0.52930  0.77910  Biso   1.000  C
  C85      1.0000 0.62560  0.02930  0.77910  Biso   1.000  C
  C86      1.0000 0.37440  0.97070  0.27910  Biso   1.000  C
  C87      1.0000 0.62560  0.97070  0.27910  Biso   1.000  C
  C88      1.0000 0.37440  0.02930  0.77910  Biso   1.000  C
  H65      1.0000 0.14480  0.53640  0.82640  Biso   1.000  H
  H66      1.0000 0.85520  0.46360  0.32640  Biso   1.000  H
  H67      1.0000 0.14480  0.46360  0.32640  Biso   1.000  H
  H68      1.0000 0.85520  0.53640  0.82640  Biso   1.000  H
  H69      1.0000 0.64480  0.03640  0.82640  Biso   1.000  H
  H70      1.0000 0.35520  0.96360  0.32640  Biso   1.000  H
  H71      1.0000 0.64480  0.96360  0.32640  Biso   1.000  H
  H72      1.0000 0.35520  0.03640  0.82640  Biso   1.000  H
  C89      1.0000 0.12520  0.50910  0.65130  Biso   1.000  C
  C90      1.0000 0.87480  0.49090  0.15130  Biso   1.000  C
  C91      1.0000 0.12520  0.49090  0.15130  Biso   1.000  C
  C92      1.0000 0.87480  0.50910  0.65130  Biso   1.000  C
  C93      1.0000 0.62520  0.00910  0.65130  Biso   1.000  C
  C94      1.0000 0.37480  0.99090  0.15130  Biso   1.000  C
  C95      1.0000 0.62520  0.99090  0.15130  Biso   1.000  C
  C96      1.0000 0.37480  0.00910  0.65130  Biso   1.000  C
  H73      1.0000 0.14400  0.50040  0.60430  Biso   1.000  H
  H74      1.0000 0.85600  0.49960  0.10430  Biso   1.000  H
  H75      1.0000 0.14400  0.49960  0.10430  Biso   1.000  H
  H76      1.0000 0.85600  0.50040  0.60430  Biso   1.000  H
  H77      1.0000 0.64400  0.00040  0.60430  Biso   1.000  H
  H78      1.0000 0.35600  0.99960  0.10430  Biso   1.000  H
  H79      1.0000 0.64400  0.99960  0.10430  Biso   1.000  H
  H80      1.0000 0.35600  0.00040  0.60430  Biso   1.000  H
  C97      1.0000 0.43660  0.50380  0.77670  Biso   1.000  C
  C98      1.0000 0.56340  0.49620  0.27670  Biso   1.000  C
  C99      1.0000 0.43660  0.49620  0.27670  Biso   1.000  C
  C100     1.0000 0.56340  0.50380  0.77670  Biso   1.000  C
  C101     1.0000 0.93660  0.00380  0.77670  Biso   1.000  C
  C102     1.0000 0.06340  0.99620  0.27670  Biso   1.000  C
  C103     1.0000 0.93660  0.99620  0.27670  Biso   1.000  C
  C104     1.0000 0.06340  0.00380  0.77670  Biso   1.000  C
  H81      1.0000 0.45650  0.49000  0.82080  Biso   1.000  H
  H82      1.0000 0.54350  0.51000  0.32080  Biso   1.000  H
  H83      1.0000 0.45650  0.51000  0.32080  Biso   1.000  H
  H84      1.0000 0.54350  0.49000  0.82080  Biso   1.000  H
  H85      1.0000 0.95650  0.99000  0.82080  Biso   1.000  H
  H86      1.0000 0.04350  0.01000  0.32080  Biso   1.000  H
  H87      1.0000 0.95650  0.01000  0.32080  Biso   1.000  H
  H88      1.0000 0.04350  0.99000  0.82080  Biso   1.000  H
  C105     1.0000 0.37480  0.53030  0.64410  Biso   1.000  C
  C106     1.0000 0.62520  0.46970  0.14410  Biso   1.000  C
  C107     1.0000 0.37480  0.46970  0.14410  Biso   1.000  C
  C108     1.0000 0.62520  0.53030  0.64410  Biso   1.000  C
  C109     1.0000 0.87480  0.03030  0.64410  Biso   1.000  C
  C110     1.0000 0.12520  0.96970  0.14410  Biso   1.000  C
  C111     1.0000 0.87480  0.96970  0.14410  Biso   1.000  C
  C112     1.0000 0.12520  0.03030  0.64410  Biso   1.000  C
  H89      1.0000 0.35340  0.53730  0.59860  Biso   1.000  H
  H90      1.0000 0.64660  0.46270  0.09860  Biso   1.000  H
  H91      1.0000 0.35340  0.46270  0.09860  Biso   1.000  H
  H92      1.0000 0.64660  0.53730  0.59860  Biso   1.000  H
  H93      1.0000 0.85340  0.03730  0.59860  Biso   1.000  H
  H94      1.0000 0.14660  0.96270  0.09860  Biso   1.000  H
  H95      1.0000 0.85340  0.96270  0.09860  Biso   1.000  H
  H96      1.0000 0.14660  0.03730  0.59860  Biso   1.000  H
  C113     1.0000 0.25380  0.20370  0.78060  Biso   1.000  C
  C114     1.0000 0.74620  0.79630  0.28060  Biso   1.000  C
  C115     1.0000 0.25380  0.79630  0.28060  Biso   1.000  C
  C116     1.0000 0.74620  0.20370  0.78060  Biso   1.000  C
  C117     1.0000 0.75380  0.70370  0.78060  Biso   1.000  C
  C118     1.0000 0.24620  0.29630  0.28060  Biso   1.000  C
  C119     1.0000 0.75380  0.29630  0.28060  Biso   1.000  C
  C120     1.0000 0.24620  0.70370  0.78060  Biso   1.000  C
  H97      1.0000 0.25590  0.22470  0.82770  Biso   1.000  H
  H98      1.0000 0.74410  0.77530  0.32770  Biso   1.000  H
  H99      1.0000 0.25590  0.77530  0.32770  Biso   1.000  H
  H100     1.0000 0.74410  0.22470  0.82770  Biso   1.000  H
  H101     1.0000 0.75590  0.72470  0.82770  Biso   1.000  H
  H102     1.0000 0.24410  0.27530  0.32770  Biso   1.000  H
  H103     1.0000 0.75590  0.27530  0.32770  Biso   1.000  H
  H104     1.0000 0.24410  0.72470  0.82770  Biso   1.000  H
  C121     1.0000 0.46690  0.51920  0.70750  Biso   1.000  C
  C122     1.0000 0.53310  0.48080  0.20750  Biso   1.000  C
  C123     1.0000 0.46690  0.48080  0.20750  Biso   1.000  C
  C124     1.0000 0.53310  0.51920  0.70750  Biso   1.000  C
  C125     1.0000 0.96690  0.01920  0.70750  Biso   1.000  C
  C126     1.0000 0.03310  0.98080  0.20750  Biso   1.000  C
  C127     1.0000 0.96690  0.98080  0.20750  Biso   1.000  C
  C128     1.0000 0.03310  0.01920  0.70750  Biso   1.000  C
  C129     1.0000 0.24760  0.14000  0.64280  Biso   1.000  C
  C130     1.0000 0.75240  0.86000  0.14280  Biso   1.000  C
  C131     1.0000 0.24760  0.86000  0.14280  Biso   1.000  C
  C132     1.0000 0.75240  0.14000  0.64280  Biso   1.000  C
  C133     1.0000 0.74760  0.64000  0.64280  Biso   1.000  C
  C134     1.0000 0.25240  0.36000  0.14280  Biso   1.000  C
  C135     1.0000 0.74760  0.36000  0.14280  Biso   1.000  C
  C136     1.0000 0.25240  0.64000  0.64280  Biso   1.000  C
  H105     1.0000 0.24520  0.11900  0.59570  Biso   1.000  H
  H106     1.0000 0.75480  0.88100  0.09570  Biso   1.000  H
  H107     1.0000 0.24520  0.88100  0.09570  Biso   1.000  H
  H108     1.0000 0.75480  0.11900  0.59570  Biso   1.000  H
  H109     1.0000 0.74520  0.61900  0.59570  Biso   1.000  H
  H110     1.0000 0.25480  0.38100  0.09570  Biso   1.000  H
  H111     1.0000 0.74520  0.38100  0.09570  Biso   1.000  H
  H112     1.0000 0.25480  0.61900  0.59570  Biso   1.000  H
  C137     1.0000 0.03360  0.51930  0.71780  Biso   1.000  C
  C138     1.0000 0.96640  0.48070  0.21780  Biso   1.000  C
  C139     1.0000 0.03360  0.48070  0.21780  Biso   1.000  C
  C140     1.0000 0.96640  0.51930  0.71780  Biso   1.000  C
  C141     1.0000 0.53360  0.01930  0.71780  Biso   1.000  C
  C142     1.0000 0.46640  0.98070  0.21780  Biso   1.000  C
  C143     1.0000 0.53360  0.98070  0.21780  Biso   1.000  C
  C144     1.0000 0.46640  0.01930  0.71780  Biso   1.000  C
  C145     1.0000 0.25370  0.14050  0.78030  Biso   1.000  C
  C146     1.0000 0.74630  0.85950  0.28030  Biso   1.000  C
  C147     1.0000 0.25370  0.85950  0.28030  Biso   1.000  C
  C148     1.0000 0.74630  0.14050  0.78030  Biso   1.000  C
  C149     1.0000 0.75370  0.64050  0.78030  Biso   1.000  C
  C150     1.0000 0.24630  0.35950  0.28030  Biso   1.000  C
  C151     1.0000 0.75370  0.35950  0.28030  Biso   1.000  C
  C152     1.0000 0.24630  0.64050  0.78030  Biso   1.000  C
  H113     1.0000 0.25610  0.11960  0.82740  Biso   1.000  H
  H114     1.0000 0.74390  0.88040  0.32740  Biso   1.000  H
  H115     1.0000 0.25610  0.88040  0.32740  Biso   1.000  H
  H116     1.0000 0.74390  0.11960  0.82740  Biso   1.000  H
  H117     1.0000 0.75610  0.61960  0.82740  Biso   1.000  H
  H118     1.0000 0.24390  0.38040  0.32740  Biso   1.000  H
  H119     1.0000 0.75610  0.38040  0.32740  Biso   1.000  H
  H120     1.0000 0.24390  0.61960  0.82740  Biso   1.000  H
  C153     1.0000 0.24840  0.20300  0.64270  Biso   1.000  C
  C154     1.0000 0.75160  0.79700  0.14270  Biso   1.000  C
  C155     1.0000 0.24840  0.79700  0.14270  Biso   1.000  C
  C156     1.0000 0.75160  0.20300  0.64270  Biso   1.000  C
  C157     1.0000 0.74840  0.70300  0.64270  Biso   1.000  C
  C158     1.0000 0.25160  0.29700  0.14270  Biso   1.000  C
  C159     1.0000 0.74840  0.29700  0.14270  Biso   1.000  C
  C160     1.0000 0.25160  0.70300  0.64270  Biso   1.000  C
  H121     1.0000 0.24730  0.22300  0.59470  Biso   1.000  H
  H122     1.0000 0.75270  0.77700  0.09470  Biso   1.000  H
  H123     1.0000 0.24730  0.77700  0.09470  Biso   1.000  H
  H124     1.0000 0.75270  0.22300  0.59470  Biso   1.000  H
  H125     1.0000 0.74730  0.72300  0.59470  Biso   1.000  H
  H126     1.0000 0.25270  0.27700  0.09470  Biso   1.000  H
  H127     1.0000 0.74730  0.27700  0.09470  Biso   1.000  H
  H128     1.0000 0.25270  0.72300  0.59470  Biso   1.000  H
  N33      1.0000 0.65580  0.65270  0.44400  Biso   1.000  N
  N34      1.0000 0.34420  0.34730  0.94400  Biso   1.000  N
  N35      1.0000 0.65580  0.34730  0.94400  Biso   1.000  N
  N36      1.0000 0.34420  0.65270  0.44400  Biso   1.000  N
  N37      1.0000 0.15580  0.15270  0.44400  Biso   1.000  N
  N38      1.0000 0.84420  0.84730  0.94400  Biso   1.000  N
  N39      1.0000 0.15580  0.84730  0.94400  Biso   1.000  N
  N40      1.0000 0.84420  0.15270  0.44400  Biso   1.000  N
  C161     1.0000 0.62540  0.66400  0.49900  Biso   1.000  C
  C162     1.0000 0.37460  0.33600  0.99900  Biso   1.000  C
  C163     1.0000 0.62540  0.33600  0.99900  Biso   1.000  C
  C164     1.0000 0.37460  0.66400  0.49900  Biso   1.000  C
  C165     1.0000 0.12540  0.16400  0.49900  Biso   1.000  C
  C166     1.0000 0.87460  0.83600  0.99900  Biso   1.000  C
  C167     1.0000 0.12540  0.83600  0.99900  Biso   1.000  C
  C168     1.0000 0.87460  0.16400  0.49900  Biso   1.000  C
  H129     1.0000 0.64830  0.66740  0.54400  Biso   1.000  H
  H130     1.0000 0.35170  0.33260  0.04400  Biso   1.000  H
  H131     1.0000 0.64830  0.33260  0.04400  Biso   1.000  H
  H132     1.0000 0.35170  0.66740  0.54400  Biso   1.000  H
  H133     1.0000 0.14830  0.16740  0.54400  Biso   1.000  H
  H134     1.0000 0.85170  0.83260  0.04400  Biso   1.000  H
  H135     1.0000 0.14830  0.83260  0.04400  Biso   1.000  H
  H136     1.0000 0.85170  0.16740  0.54400  Biso   1.000  H
  C169     1.0000 0.56210  0.67470  0.51980  Biso   1.000  C
  C170     1.0000 0.43790  0.32530  0.01980  Biso   1.000  C
  C171     1.0000 0.56210  0.32530  0.01980  Biso   1.000  C
  C172     1.0000 0.43790  0.67470  0.51980  Biso   1.000  C
  C173     1.0000 0.06210  0.17470  0.51980  Biso   1.000  C
  C174     1.0000 0.93790  0.82530  0.01980  Biso   1.000  C
  C175     1.0000 0.06210  0.82530  0.01980  Biso   1.000  C
  C176     1.0000 0.93790  0.17470  0.51980  Biso   1.000  C
  H137     1.0000 0.54580  0.68650  0.56740  Biso   1.000  H
  H138     1.0000 0.45420  0.31350  0.06740  Biso   1.000  H
  H139     1.0000 0.54580  0.31350  0.06740  Biso   1.000  H
  H140     1.0000 0.45420  0.68650  0.56740  Biso   1.000  H
  H141     1.0000 0.04580  0.18650  0.56740  Biso   1.000  H
  H142     1.0000 0.95420  0.81350  0.06740  Biso   1.000  H
  H143     1.0000 0.04580  0.81350  0.06740  Biso   1.000  H
  H144     1.0000 0.95420  0.18650  0.56740  Biso   1.000  H
  C177     1.0000 0.53120  0.66100  0.44100  Biso   1.000  C
  C178     1.0000 0.46880  0.33900  0.94100  Biso   1.000  C
  C179     1.0000 0.53120  0.33900  0.94100  Biso   1.000  C
  C180     1.0000 0.46880  0.66100  0.44100  Biso   1.000  C
  C181     1.0000 0.03120  0.16100  0.44100  Biso   1.000  C
  C182     1.0000 0.96880  0.83900  0.94100  Biso   1.000  C
  C183     1.0000 0.03120  0.83900  0.94100  Biso   1.000  C
  C184     1.0000 0.96880  0.16100  0.44100  Biso   1.000  C
  C185     1.0000 0.56650  0.65530  0.38350  Biso   1.000  C
  C186     1.0000 0.43350  0.34470  0.88350  Biso   1.000  C
  C187     1.0000 0.56650  0.34470  0.88350  Biso   1.000  C
  C188     1.0000 0.43350  0.65530  0.38350  Biso   1.000  C
  C189     1.0000 0.06650  0.15530  0.38350  Biso   1.000  C
  C190     1.0000 0.93350  0.84470  0.88350  Biso   1.000  C
  C191     1.0000 0.06650  0.84470  0.88350  Biso   1.000  C
  C192     1.0000 0.93350  0.15530  0.38350  Biso   1.000  C
  H145     1.0000 0.54700  0.65360  0.33570  Biso   1.000  H
  H146     1.0000 0.45300  0.34640  0.83570  Biso   1.000  H
  H147     1.0000 0.54700  0.34640  0.83570  Biso   1.000  H
  H148     1.0000 0.45300  0.65360  0.33570  Biso   1.000  H
  H149     1.0000 0.04700  0.15360  0.33570  Biso   1.000  H
  H150     1.0000 0.95300  0.84640  0.83570  Biso   1.000  H
  H151     1.0000 0.04700  0.84640  0.83570  Biso   1.000  H
  H152     1.0000 0.95300  0.15360  0.33570  Biso   1.000  H
  C193     1.0000 0.62620  0.65100  0.37500  Biso   1.000  C
  C194     1.0000 0.37380  0.34900  0.87500  Biso   1.000  C
  C195     1.0000 0.62620  0.34900  0.87500  Biso   1.000  C
  C196     1.0000 0.37380  0.65100  0.37500  Biso   1.000  C
  C197     1.0000 0.12620  0.15100  0.37500  Biso   1.000  C
  C198     1.0000 0.87380  0.84900  0.87500  Biso   1.000  C
  C199     1.0000 0.12620  0.84900  0.87500  Biso   1.000  C
  C200     1.0000 0.87380  0.15100  0.37500  Biso   1.000  C
  H153     1.0000 0.64470  0.64710  0.32660  Biso   1.000  H
  H154     1.0000 0.35530  0.35290  0.82660  Biso   1.000  H
  H155     1.0000 0.64470  0.35290  0.82660  Biso   1.000  H
  H156     1.0000 0.35530  0.64710  0.32660  Biso   1.000  H
  H157     1.0000 0.14470  0.14710  0.32660  Biso   1.000  H
  H158     1.0000 0.85530  0.85290  0.82660  Biso   1.000  H
  H159     1.0000 0.14470  0.85290  0.82660  Biso   1.000  H
  H160     1.0000 0.85530  0.14710  0.32660  Biso   1.000  H
  C201     1.0000 0.53320  0.83300  0.47070  Biso   1.000  C
  C202     1.0000 0.46680  0.16700  0.97070  Biso   1.000  C
  C203     1.0000 0.53320  0.16700  0.97070  Biso   1.000  C
  C204     1.0000 0.46680  0.83300  0.47070  Biso   1.000  C
  C205     1.0000 0.03320  0.33300  0.47070  Biso   1.000  C
  C206     1.0000 0.96680  0.66700  0.97070  Biso   1.000  C
  C207     1.0000 0.03320  0.66700  0.97070  Biso   1.000  C
  C208     1.0000 0.96680  0.33300  0.47070  Biso   1.000  C
  C209     1.0000 0.56230  0.83600  0.54500  Biso   1.000  C
  C210     1.0000 0.43770  0.16400  0.04500  Biso   1.000  C
  C211     1.0000 0.56230  0.16400  0.04500  Biso   1.000  C
  C212     1.0000 0.43770  0.83600  0.54500  Biso   1.000  C
  C213     1.0000 0.06230  0.33600  0.54500  Biso   1.000  C
  C214     1.0000 0.93770  0.66400  0.04500  Biso   1.000  C
  C215     1.0000 0.06230  0.66400  0.04500  Biso   1.000  C
  C216     1.0000 0.93770  0.33600  0.54500  Biso   1.000  C
  H161     1.0000 0.54420  0.83150  0.59340  Biso   1.000  H
  H162     1.0000 0.45580  0.16850  0.09340  Biso   1.000  H
  H163     1.0000 0.54420  0.16850  0.09340  Biso   1.000  H
  H164     1.0000 0.45580  0.83150  0.59340  Biso   1.000  H
  H165     1.0000 0.04420  0.33150  0.59340  Biso   1.000  H
  H166     1.0000 0.95580  0.66850  0.09340  Biso   1.000  H
  H167     1.0000 0.04420  0.66850  0.09340  Biso   1.000  H
  H168     1.0000 0.95580  0.33150  0.59340  Biso   1.000  H
  C217     1.0000 0.62640  0.84690  0.53200  Biso   1.000  C
  C218     1.0000 0.37360  0.15310  0.03200  Biso   1.000  C
  C219     1.0000 0.62640  0.15310  0.03200  Biso   1.000  C
  C220     1.0000 0.37360  0.84690  0.53200  Biso   1.000  C
  C221     1.0000 0.12640  0.34690  0.53200  Biso   1.000  C
  C222     1.0000 0.87360  0.65310  0.03200  Biso   1.000  C
  C223     1.0000 0.12640  0.65310  0.03200  Biso   1.000  C
  C224     1.0000 0.87360  0.34690  0.53200  Biso   1.000  C
  H169     1.0000 0.64760  0.86150  0.57500  Biso   1.000  H
  H170     1.0000 0.35240  0.13850  0.07500  Biso   1.000  H
  H171     1.0000 0.64760  0.13850  0.07500  Biso   1.000  H
  H172     1.0000 0.35240  0.86150  0.57500  Biso   1.000  H
  H173     1.0000 0.14760  0.36150  0.57500  Biso   1.000  H
  H174     1.0000 0.85240  0.63850  0.07500  Biso   1.000  H
  H175     1.0000 0.14760  0.63850  0.07500  Biso   1.000  H
  H176     1.0000 0.85240  0.36150  0.57500  Biso   1.000  H
  N41      1.0000 0.65370  0.83860  0.47100  Biso   1.000  N
  N42      1.0000 0.34630  0.16140  0.97100  Biso   1.000  N
  N43      1.0000 0.65370  0.16140  0.97100  Biso   1.000  N
  N44      1.0000 0.34630  0.83860  0.47100  Biso   1.000  N
  N45      1.0000 0.15370  0.33860  0.47100  Biso   1.000  N
  N46      1.0000 0.84630  0.66140  0.97100  Biso   1.000  N
  N47      1.0000 0.15370  0.66140  0.97100  Biso   1.000  N
  N48      1.0000 0.84630  0.33860  0.47100  Biso   1.000  N
  C225     1.0000 0.62480  0.82820  0.40590  Biso   1.000  C
  C226     1.0000 0.37520  0.17180  0.90590  Biso   1.000  C
  C227     1.0000 0.62480  0.17180  0.90590  Biso   1.000  C
  C228     1.0000 0.37520  0.82820  0.40590  Biso   1.000  C
  C229     1.0000 0.12480  0.32820  0.40590  Biso   1.000  C
  C230     1.0000 0.87520  0.67180  0.90590  Biso   1.000  C
  C231     1.0000 0.12480  0.67180  0.90590  Biso   1.000  C
  C232     1.0000 0.87520  0.32820  0.40590  Biso   1.000  C
  H177     1.0000 0.64350  0.81970  0.35860  Biso   1.000  H
  H178     1.0000 0.35650  0.18030  0.85860  Biso   1.000  H
  H179     1.0000 0.64350  0.18030  0.85860  Biso   1.000  H
  H180     1.0000 0.35650  0.81970  0.35860  Biso   1.000  H
  H181     1.0000 0.14350  0.31970  0.35860  Biso   1.000  H
  H182     1.0000 0.85650  0.68030  0.85860  Biso   1.000  H
  H183     1.0000 0.14350  0.68030  0.85860  Biso   1.000  H
  H184     1.0000 0.85650  0.31970  0.35860  Biso   1.000  H
  C233     1.0000 0.56680  0.83070  0.41270  Biso   1.000  C
  C234     1.0000 0.43320  0.16930  0.91270  Biso   1.000  C
  C235     1.0000 0.56680  0.16930  0.91270  Biso   1.000  C
  C236     1.0000 0.43320  0.83070  0.41270  Biso   1.000  C
  C237     1.0000 0.06680  0.33070  0.41270  Biso   1.000  C
  C238     1.0000 0.93320  0.66930  0.91270  Biso   1.000  C
  C239     1.0000 0.06680  0.66930  0.91270  Biso   1.000  C
  C240     1.0000 0.93320  0.33070  0.41270  Biso   1.000  C
  H185     1.0000 0.54720  0.83090  0.36490  Biso   1.000  H
  H186     1.0000 0.45280  0.16910  0.86490  Biso   1.000  H
  H187     1.0000 0.54720  0.16910  0.86490  Biso   1.000  H
  H188     1.0000 0.45280  0.83090  0.36490  Biso   1.000  H
  H189     1.0000 0.04720  0.33090  0.36490  Biso   1.000  H
  H190     1.0000 0.95280  0.66910  0.86490  Biso   1.000  H
  H191     1.0000 0.04720  0.66910  0.86490  Biso   1.000  H
  H192     1.0000 0.95280  0.33090  0.36490  Biso   1.000  H
