data_image0
_cell_length_a       14.643
_cell_length_b       17.39
_cell_length_c       33.613
_cell_angle_alpha    90
_cell_angle_beta     90
_cell_angle_gamma    90

_symmetry_space_group_name_H-M    "P 1"
_symmetry_int_tables_number       1

loop_
  _symmetry_equiv_pos_as_xyz
  'x, y, z'

loop_
  _atom_site_label
  _atom_site_occupancy
  _atom_site_fract_x
  _atom_site_fract_y
  _atom_site_fract_z
  _atom_site_thermal_displace_type
  _atom_site_B_iso_or_equiv
  _atom_site_type_symbol
  W1       1.0000 0.59019  0.93157  0.59275  Biso   1.000  W
  W2       1.0000 0.90981  0.06843  0.09275  Biso   1.000  W
  W3       1.0000 0.40981  0.43157  0.90725  Biso   1.000  W
  W4       1.0000 0.09019  0.56843  0.40725  Biso   1.000  W
  W5       1.0000 0.40981  0.06843  0.40725  Biso   1.000  W
  W6       1.0000 0.09019  0.93157  0.90725  Biso   1.000  W
  W7       1.0000 0.59019  0.56843  0.09275  Biso   1.000  W
  W8       1.0000 0.90981  0.43157  0.59275  Biso   1.000  W
  Cu1      1.0000 0.42940  0.86323  0.59342  Biso   1.000  Cu
  Cu2      1.0000 0.07060  0.13677  0.09342  Biso   1.000  Cu
  Cu3      1.0000 0.57060  0.36323  0.90658  Biso   1.000  Cu
  Cu4      1.0000 0.92940  0.63677  0.40658  Biso   1.000  Cu
  Cu5      1.0000 0.57060  0.13677  0.40658  Biso   1.000  Cu
  Cu6      1.0000 0.92940  0.86323  0.90658  Biso   1.000  Cu
  Cu7      1.0000 0.42940  0.63677  0.09342  Biso   1.000  Cu
  Cu8      1.0000 0.07060  0.36323  0.59342  Biso   1.000  Cu
  Cu9      1.0000 0.54581  0.86817  0.66258  Biso   1.000  Cu
  Cu10     1.0000 0.95419  0.13183  0.16258  Biso   1.000  Cu
  Cu11     1.0000 0.45419  0.36817  0.83742  Biso   1.000  Cu
  Cu12     1.0000 0.04581  0.63183  0.33742  Biso   1.000  Cu
  Cu13     1.0000 0.45419  0.13183  0.33742  Biso   1.000  Cu
  Cu14     1.0000 0.04581  0.86817  0.83742  Biso   1.000  Cu
  Cu15     1.0000 0.54581  0.63183  0.16258  Biso   1.000  Cu
  Cu16     1.0000 0.95419  0.36817  0.66258  Biso   1.000  Cu
  Cu17     1.0000 0.46106  0.00470  0.63377  Biso   1.000  Cu
  Cu18     1.0000 0.03894  0.99530  0.13377  Biso   1.000  Cu
  Cu19     1.0000 0.53894  0.50470  0.86623  Biso   1.000  Cu
  Cu20     1.0000 0.96106  0.49530  0.36623  Biso   1.000  Cu
  Cu21     1.0000 0.53894  0.99530  0.36623  Biso   1.000  Cu
  Cu22     1.0000 0.96106  0.00470  0.86623  Biso   1.000  Cu
  Cu23     1.0000 0.46106  0.49530  0.13377  Biso   1.000  Cu
  Cu24     1.0000 0.03894  0.50470  0.63377  Biso   1.000  Cu
  S1       1.0000 0.60640  0.98500  0.65434  Biso   1.000  S
  S2       1.0000 0.89360  0.01500  0.15434  Biso   1.000  S
  S3       1.0000 0.39360  0.48500  0.84566  Biso   1.000  S
  S4       1.0000 0.10640  0.51500  0.34566  Biso   1.000  S
  S5       1.0000 0.39360  0.01500  0.34566  Biso   1.000  S
  S6       1.0000 0.10640  0.98500  0.84566  Biso   1.000  S
  S7       1.0000 0.60640  0.51500  0.15434  Biso   1.000  S
  S8       1.0000 0.89360  0.48500  0.65434  Biso   1.000  S
  S9       1.0000 0.45550  0.97920  0.56851  Biso   1.000  S
  S10      1.0000 0.04450  0.02080  0.06851  Biso   1.000  S
  S11      1.0000 0.54450  0.47920  0.93149  Biso   1.000  S
  S12      1.0000 0.95550  0.52080  0.43149  Biso   1.000  S
  S13      1.0000 0.54450  0.02080  0.43149  Biso   1.000  S
  S14      1.0000 0.95550  0.97920  0.93149  Biso   1.000  S
  S15      1.0000 0.45550  0.52080  0.06851  Biso   1.000  S
  S16      1.0000 0.04450  0.47920  0.56851  Biso   1.000  S
  S17      1.0000 0.56120  0.80340  0.60558  Biso   1.000  S
  S18      1.0000 0.93880  0.19660  0.10558  Biso   1.000  S
  S19      1.0000 0.43880  0.30340  0.89442  Biso   1.000  S
  S20      1.0000 0.06120  0.69660  0.39442  Biso   1.000  S
  S21      1.0000 0.43880  0.19660  0.39442  Biso   1.000  S
  S22      1.0000 0.06120  0.80340  0.89442  Biso   1.000  S
  S23      1.0000 0.56120  0.69660  0.10558  Biso   1.000  S
  S24      1.0000 0.93880  0.30340  0.60558  Biso   1.000  S
  N1       1.0000 0.80020  0.92220  0.56680  Biso   1.000  N
  N2       1.0000 0.69980  0.07780  0.06680  Biso   1.000  N
  N3       1.0000 0.19980  0.42220  0.93320  Biso   1.000  N
  N4       1.0000 0.30020  0.57780  0.43320  Biso   1.000  N
  N5       1.0000 0.19980  0.07780  0.43320  Biso   1.000  N
  N6       1.0000 0.30020  0.92220  0.93320  Biso   1.000  N
  N7       1.0000 0.80020  0.57780  0.06680  Biso   1.000  N
  N8       1.0000 0.69980  0.42220  0.56680  Biso   1.000  N
  N9       1.0000 0.74220  0.90060  0.59680  Biso   1.000  N
  N10      1.0000 0.75780  0.09940  0.09680  Biso   1.000  N
  N11      1.0000 0.25780  0.40060  0.90320  Biso   1.000  N
  N12      1.0000 0.24220  0.59940  0.40320  Biso   1.000  N
  N13      1.0000 0.25780  0.09940  0.40320  Biso   1.000  N
  N14      1.0000 0.24220  0.90060  0.90320  Biso   1.000  N
  N15      1.0000 0.74220  0.59940  0.09680  Biso   1.000  N
  N16      1.0000 0.75780  0.40060  0.59680  Biso   1.000  N
  N17      1.0000 0.61840  0.89350  0.52960  Biso   1.000  N
  N18      1.0000 0.88160  0.10650  0.02960  Biso   1.000  N
  N19      1.0000 0.38160  0.39350  0.97040  Biso   1.000  N
  N20      1.0000 0.11840  0.60650  0.47040  Biso   1.000  N
  N21      1.0000 0.38160  0.10650  0.47040  Biso   1.000  N
  N22      1.0000 0.11840  0.89350  0.97040  Biso   1.000  N
  N23      1.0000 0.61840  0.60650  0.02960  Biso   1.000  N
  N24      1.0000 0.88160  0.39350  0.52960  Biso   1.000  N
  C1       1.0000 0.75390  0.11470  0.53490  Biso   1.000  C
  C2       1.0000 0.74610  0.88530  0.03490  Biso   1.000  C
  C3       1.0000 0.24610  0.61470  0.96510  Biso   1.000  C
  C4       1.0000 0.25390  0.38530  0.46510  Biso   1.000  C
  C5       1.0000 0.24610  0.88530  0.46510  Biso   1.000  C
  C6       1.0000 0.25390  0.11470  0.96510  Biso   1.000  C
  C7       1.0000 0.75390  0.38530  0.03490  Biso   1.000  C
  C8       1.0000 0.74610  0.61470  0.53490  Biso   1.000  C
  N25      1.0000 0.69540  0.91520  0.50950  Biso   1.000  N
  N26      1.0000 0.80460  0.08480  0.00950  Biso   1.000  N
  N27      1.0000 0.30460  0.41520  0.99050  Biso   1.000  N
  N28      1.0000 0.19540  0.58480  0.49050  Biso   1.000  N
  N29      1.0000 0.30460  0.08480  0.49050  Biso   1.000  N
  N30      1.0000 0.19540  0.91520  0.99050  Biso   1.000  N
  N31      1.0000 0.69540  0.58480  0.00950  Biso   1.000  N
  N32      1.0000 0.80460  0.41520  0.50950  Biso   1.000  N
  N33      1.0000 0.72670  0.04150  0.54390  Biso   1.000  N
  N34      1.0000 0.77330  0.95850  0.04390  Biso   1.000  N
  N35      1.0000 0.27330  0.54150  0.95610  Biso   1.000  N
  N36      1.0000 0.22670  0.45850  0.45610  Biso   1.000  N
  N37      1.0000 0.27330  0.95850  0.45610  Biso   1.000  N
  N38      1.0000 0.22670  0.04150  0.95610  Biso   1.000  N
  N39      1.0000 0.72670  0.45850  0.04390  Biso   1.000  N
  N40      1.0000 0.77330  0.54150  0.54390  Biso   1.000  N
  C9       1.0000 0.75770  0.82930  0.66280  Biso   1.000  C
  C10      1.0000 0.74230  0.17070  0.16280  Biso   1.000  C
  C11      1.0000 0.24230  0.32930  0.83720  Biso   1.000  C
  C12      1.0000 0.25770  0.67070  0.33720  Biso   1.000  C
  C13      1.0000 0.24230  0.17070  0.33720  Biso   1.000  C
  C14      1.0000 0.25770  0.82930  0.83720  Biso   1.000  C
  C15      1.0000 0.75770  0.67070  0.16280  Biso   1.000  C
  C16      1.0000 0.74230  0.32930  0.66280  Biso   1.000  C
  H1       1.0000 0.73730  0.86980  0.68000  Biso   1.000  H
  H2       1.0000 0.76270  0.13020  0.18000  Biso   1.000  H
  H3       1.0000 0.26270  0.36980  0.82000  Biso   1.000  H
  H4       1.0000 0.23730  0.63020  0.32000  Biso   1.000  H
  H5       1.0000 0.26270  0.13020  0.32000  Biso   1.000  H
  H6       1.0000 0.23730  0.86980  0.82000  Biso   1.000  H
  H7       1.0000 0.73730  0.63020  0.18000  Biso   1.000  H
  H8       1.0000 0.76270  0.36980  0.68000  Biso   1.000  H
  H9       1.0000 0.80610  0.80130  0.67550  Biso   1.000  H
  H10      1.0000 0.69390  0.19870  0.17550  Biso   1.000  H
  H11      1.0000 0.19390  0.30130  0.82450  Biso   1.000  H
  H12      1.0000 0.30610  0.69870  0.32450  Biso   1.000  H
  H13      1.0000 0.19390  0.19870  0.32450  Biso   1.000  H
  H14      1.0000 0.30610  0.80130  0.82450  Biso   1.000  H
  H15      1.0000 0.80610  0.69870  0.17550  Biso   1.000  H
  H16      1.0000 0.69390  0.30130  0.67550  Biso   1.000  H
  H17      1.0000 0.70780  0.79510  0.65730  Biso   1.000  H
  H18      1.0000 0.79220  0.20490  0.15730  Biso   1.000  H
  H19      1.0000 0.29220  0.29510  0.84270  Biso   1.000  H
  H20      1.0000 0.20780  0.70490  0.34270  Biso   1.000  H
  H21      1.0000 0.29220  0.20490  0.34270  Biso   1.000  H
  H22      1.0000 0.20780  0.79510  0.84270  Biso   1.000  H
  H23      1.0000 0.70780  0.70490  0.15730  Biso   1.000  H
  H24      1.0000 0.79220  0.29510  0.65730  Biso   1.000  H
  C17      1.0000 0.57600  0.84690  0.50360  Biso   1.000  C
  C18      1.0000 0.92400  0.15310  0.00360  Biso   1.000  C
  C19      1.0000 0.42400  0.34690  0.99640  Biso   1.000  C
  C20      1.0000 0.07600  0.65310  0.49640  Biso   1.000  C
  C21      1.0000 0.42400  0.15310  0.49640  Biso   1.000  C
  C22      1.0000 0.07600  0.84690  0.99640  Biso   1.000  C
  C23      1.0000 0.57600  0.65310  0.00360  Biso   1.000  C
  C24      1.0000 0.92400  0.34690  0.50360  Biso   1.000  C
  N41      1.0000 0.38730  0.90150  0.66690  Biso   1.000  N
  N42      1.0000 0.11270  0.09850  0.16690  Biso   1.000  N
  N43      1.0000 0.61270  0.40150  0.83310  Biso   1.000  N
  N44      1.0000 0.88730  0.59850  0.33310  Biso   1.000  N
  N45      1.0000 0.61270  0.09850  0.33310  Biso   1.000  N
  N46      1.0000 0.88730  0.90150  0.83310  Biso   1.000  N
  N47      1.0000 0.38730  0.59850  0.16690  Biso   1.000  N
  N48      1.0000 0.11270  0.40150  0.66690  Biso   1.000  N
  C25      1.0000 0.88110  0.86100  0.61260  Biso   1.000  C
  C26      1.0000 0.61890  0.13900  0.11260  Biso   1.000  C
  C27      1.0000 0.11890  0.36100  0.88740  Biso   1.000  C
  C28      1.0000 0.38110  0.63900  0.38740  Biso   1.000  C
  C29      1.0000 0.11890  0.13900  0.38740  Biso   1.000  C
  C30      1.0000 0.38110  0.86100  0.88740  Biso   1.000  C
  C31      1.0000 0.88110  0.63900  0.11260  Biso   1.000  C
  C32      1.0000 0.61890  0.36100  0.61260  Biso   1.000  C
  H25      1.0000 0.92930  0.83910  0.62660  Biso   1.000  H
  H26      1.0000 0.57070  0.16090  0.12660  Biso   1.000  H
  H27      1.0000 0.07070  0.33910  0.87340  Biso   1.000  H
  H28      1.0000 0.42930  0.66090  0.37340  Biso   1.000  H
  H29      1.0000 0.07070  0.16090  0.37340  Biso   1.000  H
  H30      1.0000 0.42930  0.83910  0.87340  Biso   1.000  H
  H31      1.0000 0.92930  0.66090  0.12660  Biso   1.000  H
  H32      1.0000 0.57070  0.33910  0.62660  Biso   1.000  H
  N49      1.0000 0.31480  0.81950  0.58830  Biso   1.000  N
  N50      1.0000 0.18520  0.18050  0.08830  Biso   1.000  N
  N51      1.0000 0.68520  0.31950  0.91170  Biso   1.000  N
  N52      1.0000 0.81480  0.68050  0.41170  Biso   1.000  N
  N53      1.0000 0.68520  0.18050  0.41170  Biso   1.000  N
  N54      1.0000 0.81480  0.81950  0.91170  Biso   1.000  N
  N55      1.0000 0.31480  0.68050  0.08830  Biso   1.000  N
  N56      1.0000 0.18520  0.31950  0.58830  Biso   1.000  N
  C33      1.0000 0.96680  0.91130  0.54880  Biso   1.000  C
  C34      1.0000 0.53320  0.08870  0.04880  Biso   1.000  C
  C35      1.0000 0.03320  0.41130  0.95120  Biso   1.000  C
  C36      1.0000 0.46680  0.58870  0.45120  Biso   1.000  C
  C37      1.0000 0.03320  0.08870  0.45120  Biso   1.000  C
  C38      1.0000 0.46680  0.91130  0.95120  Biso   1.000  C
  C39      1.0000 0.96680  0.58870  0.04880  Biso   1.000  C
  C40      1.0000 0.53320  0.41130  0.54880  Biso   1.000  C
  H33      1.0000 0.98730  0.96350  0.55170  Biso   1.000  H
  H34      1.0000 0.51270  0.03650  0.05170  Biso   1.000  H
  H35      1.0000 0.01270  0.46350  0.94830  Biso   1.000  H
  H36      1.0000 0.48730  0.53650  0.44830  Biso   1.000  H
  H37      1.0000 0.01270  0.03650  0.44830  Biso   1.000  H
  H38      1.0000 0.48730  0.96350  0.94830  Biso   1.000  H
  H39      1.0000 0.98730  0.53650  0.05170  Biso   1.000  H
  H40      1.0000 0.51270  0.46350  0.55170  Biso   1.000  H
  H41      1.0000 0.94820  0.90270  0.52180  Biso   1.000  H
  H42      1.0000 0.55180  0.09730  0.02180  Biso   1.000  H
  H43      1.0000 0.05180  0.40270  0.97820  Biso   1.000  H
  H44      1.0000 0.44820  0.59730  0.47820  Biso   1.000  H
  H45      1.0000 0.05180  0.09730  0.47820  Biso   1.000  H
  H46      1.0000 0.44820  0.90270  0.97820  Biso   1.000  H
  H47      1.0000 0.94820  0.59730  0.02180  Biso   1.000  H
  H48      1.0000 0.55180  0.40270  0.52180  Biso   1.000  H
  H49      1.0000 0.01560  0.87680  0.55550  Biso   1.000  H
  H50      1.0000 0.48440  0.12320  0.05550  Biso   1.000  H
  H51      1.0000 0.98440  0.37680  0.94450  Biso   1.000  H
  H52      1.0000 0.51560  0.62320  0.44450  Biso   1.000  H
  H53      1.0000 0.98440  0.12320  0.44450  Biso   1.000  H
  H54      1.0000 0.51560  0.87680  0.94450  Biso   1.000  H
  H55      1.0000 0.01560  0.62320  0.05550  Biso   1.000  H
  H56      1.0000 0.48440  0.37680  0.55550  Biso   1.000  H
  N57      1.0000 0.65490  0.04330  0.57050  Biso   1.000  N
  N58      1.0000 0.84510  0.95670  0.07050  Biso   1.000  N
  N59      1.0000 0.34510  0.54330  0.92950  Biso   1.000  N
  N60      1.0000 0.15490  0.45670  0.42950  Biso   1.000  N
  N61      1.0000 0.34510  0.95670  0.42950  Biso   1.000  N
  N62      1.0000 0.15490  0.04330  0.92950  Biso   1.000  N
  N63      1.0000 0.65490  0.45670  0.07050  Biso   1.000  N
  N64      1.0000 0.84510  0.54330  0.57050  Biso   1.000  N
  C41      1.0000 0.53190  0.80570  0.74560  Biso   1.000  C
  C42      1.0000 0.96810  0.19430  0.24560  Biso   1.000  C
  C43      1.0000 0.46810  0.30570  0.75440  Biso   1.000  C
  C44      1.0000 0.03190  0.69430  0.25440  Biso   1.000  C
  C45      1.0000 0.46810  0.19430  0.25440  Biso   1.000  C
  C46      1.0000 0.03190  0.80570  0.75440  Biso   1.000  C
  C47      1.0000 0.53190  0.69430  0.24560  Biso   1.000  C
  C48      1.0000 0.96810  0.30570  0.74560  Biso   1.000  C
  C49      1.0000 0.57150  0.14890  0.60630  Biso   1.000  C
  C50      1.0000 0.92850  0.85110  0.10630  Biso   1.000  C
  C51      1.0000 0.42850  0.64890  0.89370  Biso   1.000  C
  C52      1.0000 0.07150  0.35110  0.39370  Biso   1.000  C
  C53      1.0000 0.42850  0.85110  0.39370  Biso   1.000  C
  C54      1.0000 0.07150  0.14890  0.89370  Biso   1.000  C
  C55      1.0000 0.57150  0.35110  0.10630  Biso   1.000  C
  C56      1.0000 0.92850  0.64890  0.60630  Biso   1.000  C
  H57      1.0000 0.51170  0.13050  0.59950  Biso   1.000  H
  H58      1.0000 0.98830  0.86950  0.09950  Biso   1.000  H
  H59      1.0000 0.48830  0.63050  0.90050  Biso   1.000  H
  H60      1.0000 0.01170  0.36950  0.40050  Biso   1.000  H
  H61      1.0000 0.48830  0.86950  0.40050  Biso   1.000  H
  H62      1.0000 0.01170  0.13050  0.90050  Biso   1.000  H
  H63      1.0000 0.51170  0.36950  0.09950  Biso   1.000  H
  H64      1.0000 0.98830  0.63050  0.59950  Biso   1.000  H
  H65      1.0000 0.57220  0.20410  0.60520  Biso   1.000  H
  H66      1.0000 0.92780  0.79590  0.10520  Biso   1.000  H
  H67      1.0000 0.42780  0.70410  0.89480  Biso   1.000  H
  H68      1.0000 0.07220  0.29590  0.39480  Biso   1.000  H
  H69      1.0000 0.42780  0.79590  0.39480  Biso   1.000  H
  H70      1.0000 0.07220  0.20410  0.89480  Biso   1.000  H
  H71      1.0000 0.57220  0.29590  0.10520  Biso   1.000  H
  H72      1.0000 0.92780  0.70410  0.60520  Biso   1.000  H
  H73      1.0000 0.58680  0.13230  0.63270  Biso   1.000  H
  H74      1.0000 0.91320  0.86770  0.13270  Biso   1.000  H
  H75      1.0000 0.41320  0.63230  0.86730  Biso   1.000  H
  H76      1.0000 0.08680  0.36770  0.36730  Biso   1.000  H
  H77      1.0000 0.41320  0.86770  0.36730  Biso   1.000  H
  H78      1.0000 0.08680  0.13230  0.86730  Biso   1.000  H
  H79      1.0000 0.58680  0.36770  0.13270  Biso   1.000  H
  H80      1.0000 0.91320  0.63230  0.63270  Biso   1.000  H
  C57      1.0000 0.70240  0.16250  0.55690  Biso   1.000  C
  C58      1.0000 0.79760  0.83750  0.05690  Biso   1.000  C
  C59      1.0000 0.29760  0.66250  0.94310  Biso   1.000  C
  C60      1.0000 0.20240  0.33750  0.44310  Biso   1.000  C
  C61      1.0000 0.29760  0.83750  0.44310  Biso   1.000  C
  C62      1.0000 0.20240  0.16250  0.94310  Biso   1.000  C
  C63      1.0000 0.70240  0.33750  0.05690  Biso   1.000  C
  C64      1.0000 0.79760  0.66250  0.55690  Biso   1.000  C
  H81      1.0000 0.70820  0.21570  0.55780  Biso   1.000  H
  H82      1.0000 0.79180  0.78430  0.05780  Biso   1.000  H
  H83      1.0000 0.29180  0.71570  0.94220  Biso   1.000  H
  H84      1.0000 0.20820  0.28430  0.44220  Biso   1.000  H
  H85      1.0000 0.29180  0.78430  0.44220  Biso   1.000  H
  H86      1.0000 0.20820  0.21570  0.94220  Biso   1.000  H
  H87      1.0000 0.70820  0.28430  0.05780  Biso   1.000  H
  H88      1.0000 0.79180  0.71570  0.55780  Biso   1.000  H
  C65      1.0000 0.79230  0.86340  0.62420  Biso   1.000  C
  C66      1.0000 0.70770  0.13660  0.12420  Biso   1.000  C
  C67      1.0000 0.20770  0.36340  0.87580  Biso   1.000  C
  C68      1.0000 0.29230  0.63660  0.37580  Biso   1.000  C
  C69      1.0000 0.20770  0.13660  0.37580  Biso   1.000  C
  C70      1.0000 0.29230  0.86340  0.87580  Biso   1.000  C
  C71      1.0000 0.79230  0.63660  0.12420  Biso   1.000  C
  C72      1.0000 0.70770  0.36340  0.62420  Biso   1.000  C
  N65      1.0000 0.54170  0.82260  0.71420  Biso   1.000  N
  N66      1.0000 0.95830  0.17740  0.21420  Biso   1.000  N
  N67      1.0000 0.45830  0.32260  0.78580  Biso   1.000  N
  N68      1.0000 0.04170  0.67740  0.28580  Biso   1.000  N
  N69      1.0000 0.45830  0.17740  0.28580  Biso   1.000  N
  N70      1.0000 0.04170  0.82260  0.78580  Biso   1.000  N
  N71      1.0000 0.54170  0.67740  0.21420  Biso   1.000  N
  N72      1.0000 0.95830  0.32260  0.71420  Biso   1.000  N
  C73      1.0000 0.63770  0.11840  0.57840  Biso   1.000  C
  C74      1.0000 0.86230  0.88160  0.07840  Biso   1.000  C
  C75      1.0000 0.36230  0.61840  0.92160  Biso   1.000  C
  C76      1.0000 0.13770  0.38160  0.42160  Biso   1.000  C
  C77      1.0000 0.36230  0.88160  0.42160  Biso   1.000  C
  C78      1.0000 0.13770  0.11840  0.92160  Biso   1.000  C
  C79      1.0000 0.63770  0.38160  0.07840  Biso   1.000  C
  C80      1.0000 0.86230  0.61840  0.57840  Biso   1.000  C
  C81      1.0000 0.88590  0.89710  0.57670  Biso   1.000  C
  C82      1.0000 0.61410  0.10290  0.07670  Biso   1.000  C
  C83      1.0000 0.11410  0.39710  0.92330  Biso   1.000  C
  C84      1.0000 0.38590  0.60290  0.42330  Biso   1.000  C
  C85      1.0000 0.11410  0.10290  0.42330  Biso   1.000  C
  C86      1.0000 0.38590  0.89710  0.92330  Biso   1.000  C
  C87      1.0000 0.88590  0.60290  0.07670  Biso   1.000  C
  C88      1.0000 0.61410  0.39710  0.57670  Biso   1.000  C
  C89      1.0000 0.77700  0.89450  0.44490  Biso   1.000  C
  C90      1.0000 0.72300  0.10550  0.94490  Biso   1.000  C
  C91      1.0000 0.22300  0.39450  0.05510  Biso   1.000  C
  C92      1.0000 0.27700  0.60550  0.55510  Biso   1.000  C
  C93      1.0000 0.22300  0.10550  0.55510  Biso   1.000  C
  C94      1.0000 0.27700  0.89450  0.05510  Biso   1.000  C
  C95      1.0000 0.77700  0.60550  0.94490  Biso   1.000  C
  C96      1.0000 0.72300  0.39450  0.44490  Biso   1.000  C
  H89      1.0000 0.77430  0.94620  0.43500  Biso   1.000  H
  H90      1.0000 0.72570  0.05380  0.93500  Biso   1.000  H
  H91      1.0000 0.22570  0.44620  0.06500  Biso   1.000  H
  H92      1.0000 0.27430  0.55380  0.56500  Biso   1.000  H
  H93      1.0000 0.22570  0.05380  0.56500  Biso   1.000  H
  H94      1.0000 0.27430  0.94620  0.06500  Biso   1.000  H
  H95      1.0000 0.77430  0.55380  0.93500  Biso   1.000  H
  H96      1.0000 0.72570  0.44620  0.43500  Biso   1.000  H
  H97      1.0000 0.77230  0.85900  0.42310  Biso   1.000  H
  H98      1.0000 0.72770  0.14100  0.92310  Biso   1.000  H
  H99      1.0000 0.22770  0.35900  0.07690  Biso   1.000  H
  H100     1.0000 0.27230  0.64100  0.57690  Biso   1.000  H
  H101     1.0000 0.22770  0.14100  0.57690  Biso   1.000  H
  H102     1.0000 0.27230  0.85900  0.07690  Biso   1.000  H
  H103     1.0000 0.77230  0.64100  0.92310  Biso   1.000  H
  H104     1.0000 0.72770  0.35900  0.42310  Biso   1.000  H
  H105     1.0000 0.83390  0.88660  0.45850  Biso   1.000  H
  H106     1.0000 0.66610  0.11340  0.95850  Biso   1.000  H
  H107     1.0000 0.16610  0.38660  0.04150  Biso   1.000  H
  H108     1.0000 0.33390  0.61340  0.54150  Biso   1.000  H
  H109     1.0000 0.16610  0.11340  0.54150  Biso   1.000  H
  H110     1.0000 0.33390  0.88660  0.04150  Biso   1.000  H
  H111     1.0000 0.83390  0.61340  0.95850  Biso   1.000  H
  H112     1.0000 0.66610  0.38660  0.45850  Biso   1.000  H
  C97      1.0000 0.69850  0.88120  0.47360  Biso   1.000  C
  C98      1.0000 0.80150  0.11880  0.97360  Biso   1.000  C
  C99      1.0000 0.30150  0.38120  0.02640  Biso   1.000  C
  C100     1.0000 0.19850  0.61880  0.52640  Biso   1.000  C
  C101     1.0000 0.30150  0.11880  0.52640  Biso   1.000  C
  C102     1.0000 0.19850  0.88120  0.02640  Biso   1.000  C
  C103     1.0000 0.69850  0.61880  0.97360  Biso   1.000  C
  C104     1.0000 0.80150  0.38120  0.47360  Biso   1.000  C
  B1       1.0000 0.76870  0.96710  0.53020  Biso   1.000  B
  B2       1.0000 0.73130  0.03290  0.03020  Biso   1.000  B
  B3       1.0000 0.23130  0.46710  0.96980  Biso   1.000  B
  B4       1.0000 0.26870  0.53290  0.46980  Biso   1.000  B
  B5       1.0000 0.23130  0.03290  0.46980  Biso   1.000  B
  B6       1.0000 0.26870  0.96710  0.96980  Biso   1.000  B
  B7       1.0000 0.76870  0.53290  0.03020  Biso   1.000  B
  B8       1.0000 0.73130  0.46710  0.53020  Biso   1.000  B
  S25      1.0000 0.24100  0.88290  0.71808  Biso   1.000  S
  S26      1.0000 0.25900  0.11710  0.21808  Biso   1.000  S
  S27      1.0000 0.75900  0.38290  0.78192  Biso   1.000  S
  S28      1.0000 0.74100  0.61710  0.28192  Biso   1.000  S
  S29      1.0000 0.75900  0.11710  0.28192  Biso   1.000  S
  S30      1.0000 0.74100  0.88290  0.78192  Biso   1.000  S
  S31      1.0000 0.24100  0.61710  0.21808  Biso   1.000  S
  S32      1.0000 0.25900  0.38290  0.71808  Biso   1.000  S
  S33      1.0000 0.51020  0.77760  0.79145  Biso   1.000  S
  S34      1.0000 0.98980  0.22240  0.29145  Biso   1.000  S
  S35      1.0000 0.48980  0.27760  0.70855  Biso   1.000  S
  S36      1.0000 0.01020  0.72240  0.20855  Biso   1.000  S
  S37      1.0000 0.48980  0.22240  0.20855  Biso   1.000  S
  S38      1.0000 0.01020  0.77760  0.70855  Biso   1.000  S
  S39      1.0000 0.51020  0.72240  0.29145  Biso   1.000  S
  S40      1.0000 0.98980  0.27760  0.79145  Biso   1.000  S
  S41      1.0000 0.13200  0.80530  0.61440  Biso   1.000  S
  S42      1.0000 0.36800  0.19470  0.11440  Biso   1.000  S
  S43      1.0000 0.86800  0.30530  0.88560  Biso   1.000  S
  S44      1.0000 0.63200  0.69470  0.38560  Biso   1.000  S
  S45      1.0000 0.86800  0.19470  0.38560  Biso   1.000  S
  S46      1.0000 0.63200  0.80530  0.88560  Biso   1.000  S
  S47      1.0000 0.13200  0.69470  0.11440  Biso   1.000  S
  S48      1.0000 0.36800  0.30530  0.61440  Biso   1.000  S
  C105     1.0000 0.62170  0.84020  0.46880  Biso   1.000  C
  C106     1.0000 0.87830  0.15980  0.96880  Biso   1.000  C
  C107     1.0000 0.37830  0.34020  0.03120  Biso   1.000  C
  C108     1.0000 0.12170  0.65980  0.53120  Biso   1.000  C
  C109     1.0000 0.37830  0.15980  0.53120  Biso   1.000  C
  C110     1.0000 0.12170  0.84020  0.03120  Biso   1.000  C
  C111     1.0000 0.62170  0.65980  0.96880  Biso   1.000  C
  C112     1.0000 0.87830  0.34020  0.46880  Biso   1.000  C
  H113     1.0000 0.60370  0.81300  0.44640  Biso   1.000  H
  H114     1.0000 0.89630  0.18700  0.94640  Biso   1.000  H
  H115     1.0000 0.39630  0.31300  0.05360  Biso   1.000  H
  H116     1.0000 0.10370  0.68700  0.55360  Biso   1.000  H
  H117     1.0000 0.39630  0.18700  0.55360  Biso   1.000  H
  H118     1.0000 0.10370  0.81300  0.05360  Biso   1.000  H
  H119     1.0000 0.60370  0.68700  0.94640  Biso   1.000  H
  H120     1.0000 0.89630  0.31300  0.44640  Biso   1.000  H
  C113     1.0000 0.32560  0.89010  0.68680  Biso   1.000  C
  C114     1.0000 0.17440  0.10990  0.18680  Biso   1.000  C
  C115     1.0000 0.67440  0.39010  0.81320  Biso   1.000  C
  C116     1.0000 0.82560  0.60990  0.31320  Biso   1.000  C
  C117     1.0000 0.67440  0.10990  0.31320  Biso   1.000  C
  C118     1.0000 0.82560  0.89010  0.81320  Biso   1.000  C
  C119     1.0000 0.32560  0.60990  0.18680  Biso   1.000  C
  C120     1.0000 0.17440  0.39010  0.68680  Biso   1.000  C
  C121     1.0000 0.23830  0.81400  0.60040  Biso   1.000  C
  C122     1.0000 0.26170  0.18600  0.10040  Biso   1.000  C
  C123     1.0000 0.76170  0.31400  0.89960  Biso   1.000  C
  C124     1.0000 0.73830  0.68600  0.39960  Biso   1.000  C
  C125     1.0000 0.76170  0.18600  0.39960  Biso   1.000  C
  C126     1.0000 0.73830  0.81400  0.89960  Biso   1.000  C
  C127     1.0000 0.23830  0.68600  0.10040  Biso   1.000  C
  C128     1.0000 0.26170  0.31400  0.60040  Biso   1.000  C
  C129     1.0000 0.83040  0.13040  0.50640  Biso   1.000  C
  C130     1.0000 0.66960  0.86960  0.00640  Biso   1.000  C
  C131     1.0000 0.16960  0.63040  0.99360  Biso   1.000  C
  C132     1.0000 0.33040  0.36960  0.49360  Biso   1.000  C
  C133     1.0000 0.16960  0.86960  0.49360  Biso   1.000  C
  C134     1.0000 0.33040  0.13040  0.99360  Biso   1.000  C
  C135     1.0000 0.83040  0.36960  0.00640  Biso   1.000  C
  C136     1.0000 0.66960  0.63040  0.50640  Biso   1.000  C
  H121     1.0000 0.88730  0.13060  0.52060  Biso   1.000  H
  H122     1.0000 0.61270  0.86940  0.02060  Biso   1.000  H
  H123     1.0000 0.11270  0.63060  0.97940  Biso   1.000  H
  H124     1.0000 0.38730  0.36940  0.47940  Biso   1.000  H
  H125     1.0000 0.11270  0.86940  0.47940  Biso   1.000  H
  H126     1.0000 0.38730  0.13060  0.97940  Biso   1.000  H
  H127     1.0000 0.88730  0.36940  0.02060  Biso   1.000  H
  H128     1.0000 0.61270  0.63060  0.52060  Biso   1.000  H
  H129     1.0000 0.82110  0.17950  0.49410  Biso   1.000  H
  H130     1.0000 0.67890  0.82050  0.99410  Biso   1.000  H
  H131     1.0000 0.17890  0.67950  0.00590  Biso   1.000  H
  H132     1.0000 0.32110  0.32050  0.50590  Biso   1.000  H
  H133     1.0000 0.17890  0.82050  0.50590  Biso   1.000  H
  H134     1.0000 0.32110  0.17950  0.00590  Biso   1.000  H
  H135     1.0000 0.82110  0.32050  0.99410  Biso   1.000  H
  H136     1.0000 0.67890  0.67950  0.49410  Biso   1.000  H
  H137     1.0000 0.83170  0.09110  0.48640  Biso   1.000  H
  H138     1.0000 0.66830  0.90890  0.98640  Biso   1.000  H
  H139     1.0000 0.16830  0.59110  0.01360  Biso   1.000  H
  H140     1.0000 0.33170  0.40890  0.51360  Biso   1.000  H
  H141     1.0000 0.16830  0.90890  0.51360  Biso   1.000  H
  H142     1.0000 0.33170  0.09110  0.01360  Biso   1.000  H
  H143     1.0000 0.83170  0.40890  0.98640  Biso   1.000  H
  H144     1.0000 0.66830  0.59110  0.48640  Biso   1.000  H
  C137     1.0000 0.48430  0.80930  0.51180  Biso   1.000  C
  C138     1.0000 0.01570  0.19070  0.01180  Biso   1.000  C
  C139     1.0000 0.51570  0.30930  0.98820  Biso   1.000  C
  C140     1.0000 0.98430  0.69070  0.48820  Biso   1.000  C
  C141     1.0000 0.51570  0.19070  0.48820  Biso   1.000  C
  C142     1.0000 0.98430  0.80930  0.98820  Biso   1.000  C
  C143     1.0000 0.48430  0.69070  0.01180  Biso   1.000  C
  C144     1.0000 0.01570  0.30930  0.51180  Biso   1.000  C
  H145     1.0000 0.49040  0.77370  0.53340  Biso   1.000  H
  H146     1.0000 0.00960  0.22630  0.03340  Biso   1.000  H
  H147     1.0000 0.50960  0.27370  0.96660  Biso   1.000  H
  H148     1.0000 0.99040  0.72630  0.46660  Biso   1.000  H
  H149     1.0000 0.50960  0.22630  0.46660  Biso   1.000  H
  H150     1.0000 0.99040  0.77370  0.96660  Biso   1.000  H
  H151     1.0000 0.49040  0.72630  0.03340  Biso   1.000  H
  H152     1.0000 0.00960  0.27370  0.53340  Biso   1.000  H
  H153     1.0000 0.46430  0.78230  0.48840  Biso   1.000  H
  H154     1.0000 0.03570  0.21770  0.98840  Biso   1.000  H
  H155     1.0000 0.53570  0.28230  0.01160  Biso   1.000  H
  H156     1.0000 0.96430  0.71770  0.51160  Biso   1.000  H
  H157     1.0000 0.53570  0.21770  0.51160  Biso   1.000  H
  H158     1.0000 0.96430  0.78230  0.01160  Biso   1.000  H
  H159     1.0000 0.46430  0.71770  0.98840  Biso   1.000  H
  H160     1.0000 0.03570  0.28230  0.48840  Biso   1.000  H
  H161     1.0000 0.44040  0.84810  0.51860  Biso   1.000  H
  H162     1.0000 0.05960  0.15190  0.01860  Biso   1.000  H
  H163     1.0000 0.55960  0.34810  0.98140  Biso   1.000  H
  H164     1.0000 0.94040  0.65190  0.48140  Biso   1.000  H
  H165     1.0000 0.55960  0.15190  0.48140  Biso   1.000  H
  H166     1.0000 0.94040  0.84810  0.98140  Biso   1.000  H
  H167     1.0000 0.44040  0.65190  0.01860  Biso   1.000  H
  H168     1.0000 0.05960  0.34810  0.51860  Biso   1.000  H
  N73      1.0000 0.38220  0.07770  0.65660  Biso   1.000  N
  N74      1.0000 0.11780  0.92230  0.15660  Biso   1.000  N
  N75      1.0000 0.61780  0.57770  0.84340  Biso   1.000  N
  N76      1.0000 0.88220  0.42230  0.34340  Biso   1.000  N
  N77      1.0000 0.61780  0.92230  0.34340  Biso   1.000  N
  N78      1.0000 0.88220  0.07770  0.84340  Biso   1.000  N
  N79      1.0000 0.38220  0.42230  0.15660  Biso   1.000  N
  N80      1.0000 0.11780  0.57770  0.65660  Biso   1.000  N
  C145     1.0000 0.33040  0.11850  0.66770  Biso   1.000  C
  C146     1.0000 0.16960  0.88150  0.16770  Biso   1.000  C
  C147     1.0000 0.66960  0.61850  0.83230  Biso   1.000  C
  C148     1.0000 0.83040  0.38150  0.33230  Biso   1.000  C
  C149     1.0000 0.66960  0.88150  0.33230  Biso   1.000  C
  C150     1.0000 0.83040  0.11850  0.83230  Biso   1.000  C
  C151     1.0000 0.33040  0.38150  0.16770  Biso   1.000  C
  C152     1.0000 0.16960  0.61850  0.66770  Biso   1.000  C
  Cu25     1.0000 0.15720  0.79170  0.68352  Biso   1.000  Cu
  Cu26     1.0000 0.34280  0.20830  0.18352  Biso   1.000  Cu
  Cu27     1.0000 0.84280  0.29170  0.81648  Biso   1.000  Cu
  Cu28     1.0000 0.65720  0.70830  0.31648  Biso   1.000  Cu
  Cu29     1.0000 0.84280  0.20830  0.31648  Biso   1.000  Cu
  Cu30     1.0000 0.65720  0.79170  0.81648  Biso   1.000  Cu
  Cu31     1.0000 0.15720  0.70830  0.18352  Biso   1.000  Cu
  Cu32     1.0000 0.34280  0.29170  0.68352  Biso   1.000  Cu
  S49      1.0000 0.25630  0.17860  0.68880  Biso   1.000  S
  S50      1.0000 0.24370  0.82140  0.18880  Biso   1.000  S
  S51      1.0000 0.74370  0.67860  0.81120  Biso   1.000  S
  S52      1.0000 0.75630  0.32140  0.31120  Biso   1.000  S
  S53      1.0000 0.74370  0.82140  0.31120  Biso   1.000  S
  S54      1.0000 0.75630  0.17860  0.81120  Biso   1.000  S
  S55      1.0000 0.25630  0.32140  0.18880  Biso   1.000  S
  S56      1.0000 0.24370  0.67860  0.68880  Biso   1.000  S
  N81      1.0000 0.96690  0.06290  0.68700  Biso   1.000  N
  N82      1.0000 0.53310  0.93710  0.18700  Biso   1.000  N
  N83      1.0000 0.03310  0.56290  0.81300  Biso   1.000  N
  N84      1.0000 0.46690  0.43710  0.31300  Biso   1.000  N
  N85      1.0000 0.03310  0.93710  0.31300  Biso   1.000  N
  N86      1.0000 0.46690  0.06290  0.81300  Biso   1.000  N
  N87      1.0000 0.96690  0.43710  0.18700  Biso   1.000  N
  N88      1.0000 0.53310  0.56290  0.68700  Biso   1.000  N
  C153     1.0000 0.01400  0.10500  0.72120  Biso   1.000  C
  C154     1.0000 0.48600  0.89500  0.22120  Biso   1.000  C
  C155     1.0000 0.98600  0.60500  0.77880  Biso   1.000  C
  C156     1.0000 0.51400  0.39500  0.27880  Biso   1.000  C
  C157     1.0000 0.98600  0.89500  0.27880  Biso   1.000  C
  C158     1.0000 0.51400  0.10500  0.77880  Biso   1.000  C
  C159     1.0000 0.01400  0.39500  0.22120  Biso   1.000  C
  C160     1.0000 0.48600  0.60500  0.72120  Biso   1.000  C
  H169     1.0000 0.05970  0.13860  0.71000  Biso   1.000  H
  H170     1.0000 0.44030  0.86140  0.21000  Biso   1.000  H
  H171     1.0000 0.94030  0.63860  0.79000  Biso   1.000  H
  H172     1.0000 0.55970  0.36140  0.29000  Biso   1.000  H
  H173     1.0000 0.94030  0.86140  0.29000  Biso   1.000  H
  H174     1.0000 0.55970  0.13860  0.79000  Biso   1.000  H
  H175     1.0000 0.05970  0.36140  0.21000  Biso   1.000  H
  H176     1.0000 0.44030  0.63860  0.71000  Biso   1.000  H
  H177     1.0000 0.96850  0.13730  0.73400  Biso   1.000  H
  H178     1.0000 0.53150  0.86270  0.23400  Biso   1.000  H
  H179     1.0000 0.03150  0.63730  0.76600  Biso   1.000  H
  H180     1.0000 0.46850  0.36270  0.26600  Biso   1.000  H
  H181     1.0000 0.03150  0.86270  0.26600  Biso   1.000  H
  H182     1.0000 0.46850  0.13730  0.76600  Biso   1.000  H
  H183     1.0000 0.96850  0.36270  0.23400  Biso   1.000  H
  H184     1.0000 0.53150  0.63730  0.73400  Biso   1.000  H
  C161     1.0000 0.02100  0.99750  0.66890  Biso   1.000  C
  C162     1.0000 0.47900  0.00250  0.16890  Biso   1.000  C
  C163     1.0000 0.97900  0.49750  0.83110  Biso   1.000  C
  C164     1.0000 0.52100  0.50250  0.33110  Biso   1.000  C
  C165     1.0000 0.97900  0.00250  0.33110  Biso   1.000  C
  C166     1.0000 0.52100  0.99750  0.83110  Biso   1.000  C
  C167     1.0000 0.02100  0.50250  0.16890  Biso   1.000  C
  C168     1.0000 0.47900  0.49750  0.66890  Biso   1.000  C
  H185     1.0000 0.98390  0.96950  0.64980  Biso   1.000  H
  H186     1.0000 0.51610  0.03050  0.14980  Biso   1.000  H
  H187     1.0000 0.01610  0.46950  0.85020  Biso   1.000  H
  H188     1.0000 0.48390  0.53050  0.35020  Biso   1.000  H
  H189     1.0000 0.01610  0.03050  0.35020  Biso   1.000  H
  H190     1.0000 0.48390  0.96950  0.85020  Biso   1.000  H
  H191     1.0000 0.98390  0.53050  0.14980  Biso   1.000  H
  H192     1.0000 0.51610  0.46950  0.64980  Biso   1.000  H
  H193     1.0000 0.04100  0.96210  0.68940  Biso   1.000  H
  H194     1.0000 0.45900  0.03790  0.18940  Biso   1.000  H
  H195     1.0000 0.95900  0.46210  0.81060  Biso   1.000  H
  H196     1.0000 0.54100  0.53790  0.31060  Biso   1.000  H
  H197     1.0000 0.95900  0.03790  0.31060  Biso   1.000  H
  H198     1.0000 0.54100  0.96210  0.81060  Biso   1.000  H
  H199     1.0000 0.04100  0.53790  0.18940  Biso   1.000  H
  H200     1.0000 0.45900  0.46210  0.68940  Biso   1.000  H
  C169     1.0000 0.94100  0.12020  0.65780  Biso   1.000  C
  C170     1.0000 0.55900  0.87980  0.15780  Biso   1.000  C
  C171     1.0000 0.05900  0.62020  0.84220  Biso   1.000  C
  C172     1.0000 0.44100  0.37980  0.34220  Biso   1.000  C
  C173     1.0000 0.05900  0.87980  0.34220  Biso   1.000  C
  C174     1.0000 0.44100  0.12020  0.84220  Biso   1.000  C
  C175     1.0000 0.94100  0.37980  0.15780  Biso   1.000  C
  C176     1.0000 0.55900  0.62020  0.65780  Biso   1.000  C
  H201     1.0000 0.99570  0.13950  0.64480  Biso   1.000  H
  H202     1.0000 0.50430  0.86050  0.14480  Biso   1.000  H
  H203     1.0000 0.00430  0.63950  0.85520  Biso   1.000  H
  H204     1.0000 0.49570  0.36050  0.35520  Biso   1.000  H
  H205     1.0000 0.00430  0.86050  0.35520  Biso   1.000  H
  H206     1.0000 0.49570  0.13950  0.85520  Biso   1.000  H
  H207     1.0000 0.99570  0.36050  0.14480  Biso   1.000  H
  H208     1.0000 0.50430  0.63950  0.64480  Biso   1.000  H
  H209     1.0000 0.91210  0.16310  0.67120  Biso   1.000  H
  H210     1.0000 0.58790  0.83690  0.17120  Biso   1.000  H
  H211     1.0000 0.08790  0.66310  0.82880  Biso   1.000  H
  H212     1.0000 0.41210  0.33690  0.32880  Biso   1.000  H
  H213     1.0000 0.08790  0.83690  0.32880  Biso   1.000  H
  H214     1.0000 0.41210  0.16310  0.82880  Biso   1.000  H
  H215     1.0000 0.91210  0.33690  0.17120  Biso   1.000  H
  H216     1.0000 0.58790  0.66310  0.67120  Biso   1.000  H
  C177     1.0000 0.05700  0.05900  0.75140  Biso   1.000  C
  C178     1.0000 0.44300  0.94100  0.25140  Biso   1.000  C
  C179     1.0000 0.94300  0.55900  0.74860  Biso   1.000  C
  C180     1.0000 0.55700  0.44100  0.24860  Biso   1.000  C
  C181     1.0000 0.94300  0.94100  0.24860  Biso   1.000  C
  C182     1.0000 0.55700  0.05900  0.74860  Biso   1.000  C
  C183     1.0000 0.05700  0.44100  0.25140  Biso   1.000  C
  C184     1.0000 0.44300  0.55900  0.75140  Biso   1.000  C
  H217     1.0000 0.01060  0.03490  0.76750  Biso   1.000  H
  H218     1.0000 0.48940  0.96510  0.26750  Biso   1.000  H
  H219     1.0000 0.98940  0.53490  0.73250  Biso   1.000  H
  H220     1.0000 0.51060  0.46510  0.23250  Biso   1.000  H
  H221     1.0000 0.98940  0.96510  0.23250  Biso   1.000  H
  H222     1.0000 0.51060  0.03490  0.73250  Biso   1.000  H
  H223     1.0000 0.01060  0.46510  0.26750  Biso   1.000  H
  H224     1.0000 0.48940  0.53490  0.76750  Biso   1.000  H
  H225     1.0000 0.09430  0.09110  0.76780  Biso   1.000  H
  H226     1.0000 0.40570  0.90890  0.26780  Biso   1.000  H
  H227     1.0000 0.90570  0.59110  0.73220  Biso   1.000  H
  H228     1.0000 0.59430  0.40890  0.23220  Biso   1.000  H
  H229     1.0000 0.90570  0.90890  0.23220  Biso   1.000  H
  H230     1.0000 0.59430  0.09110  0.73220  Biso   1.000  H
  H231     1.0000 0.09430  0.40890  0.26780  Biso   1.000  H
  H232     1.0000 0.40570  0.59110  0.76780  Biso   1.000  H
  H233     1.0000 0.09360  0.02010  0.73910  Biso   1.000  H
  H234     1.0000 0.40640  0.97990  0.23910  Biso   1.000  H
  H235     1.0000 0.90640  0.52010  0.76090  Biso   1.000  H
  H236     1.0000 0.59360  0.47990  0.26090  Biso   1.000  H
  H237     1.0000 0.90640  0.97990  0.26090  Biso   1.000  H
  H238     1.0000 0.59360  0.02010  0.76090  Biso   1.000  H
  H239     1.0000 0.09360  0.47990  0.23910  Biso   1.000  H
  H240     1.0000 0.40640  0.52010  0.73910  Biso   1.000  H
  C185     1.0000 0.10500  0.03600  0.64770  Biso   1.000  C
  C186     1.0000 0.39500  0.96400  0.14770  Biso   1.000  C
  C187     1.0000 0.89500  0.53600  0.85230  Biso   1.000  C
  C188     1.0000 0.60500  0.46400  0.35230  Biso   1.000  C
  C189     1.0000 0.89500  0.96400  0.35230  Biso   1.000  C
  C190     1.0000 0.60500  0.03600  0.85230  Biso   1.000  C
  C191     1.0000 0.10500  0.46400  0.14770  Biso   1.000  C
  C192     1.0000 0.39500  0.53600  0.64770  Biso   1.000  C
  H241     1.0000 0.14260  0.99750  0.63560  Biso   1.000  H
  H242     1.0000 0.35740  0.00250  0.13560  Biso   1.000  H
  H243     1.0000 0.85740  0.49750  0.86440  Biso   1.000  H
  H244     1.0000 0.64260  0.50250  0.36440  Biso   1.000  H
  H245     1.0000 0.85740  0.00250  0.36440  Biso   1.000  H
  H246     1.0000 0.64260  0.99750  0.86440  Biso   1.000  H
  H247     1.0000 0.14260  0.50250  0.13560  Biso   1.000  H
  H248     1.0000 0.35740  0.49750  0.63560  Biso   1.000  H
  H249     1.0000 0.14090  0.06410  0.66700  Biso   1.000  H
  H250     1.0000 0.35910  0.93590  0.16700  Biso   1.000  H
  H251     1.0000 0.85910  0.56410  0.83300  Biso   1.000  H
  H252     1.0000 0.64090  0.43590  0.33300  Biso   1.000  H
  H253     1.0000 0.85910  0.93590  0.33300  Biso   1.000  H
  H254     1.0000 0.64090  0.06410  0.83300  Biso   1.000  H
  H255     1.0000 0.14090  0.43590  0.16700  Biso   1.000  H
  H256     1.0000 0.35910  0.56410  0.66700  Biso   1.000  H
  H257     1.0000 0.08410  0.07150  0.62760  Biso   1.000  H
  H258     1.0000 0.41590  0.92850  0.12760  Biso   1.000  H
  H259     1.0000 0.91590  0.57150  0.87240  Biso   1.000  H
  H260     1.0000 0.58410  0.42850  0.37240  Biso   1.000  H
  H261     1.0000 0.91590  0.92850  0.37240  Biso   1.000  H
  H262     1.0000 0.58410  0.07150  0.87240  Biso   1.000  H
  H263     1.0000 0.08410  0.42850  0.12760  Biso   1.000  H
  H264     1.0000 0.41590  0.57150  0.62760  Biso   1.000  H
  C193     1.0000 0.89200  0.01090  0.70600  Biso   1.000  C
  C194     1.0000 0.60800  0.98910  0.20600  Biso   1.000  C
  C195     1.0000 0.10800  0.51090  0.79400  Biso   1.000  C
  C196     1.0000 0.39200  0.48910  0.29400  Biso   1.000  C
  C197     1.0000 0.10800  0.98910  0.29400  Biso   1.000  C
  C198     1.0000 0.39200  0.01090  0.79400  Biso   1.000  C
  C199     1.0000 0.89200  0.48910  0.20600  Biso   1.000  C
  C200     1.0000 0.60800  0.51090  0.70600  Biso   1.000  C
  H265     1.0000 0.86510  0.97730  0.68630  Biso   1.000  H
  H266     1.0000 0.63490  0.02270  0.18630  Biso   1.000  H
  H267     1.0000 0.13490  0.47730  0.81370  Biso   1.000  H
  H268     1.0000 0.36510  0.52270  0.31370  Biso   1.000  H
  H269     1.0000 0.13490  0.02270  0.31370  Biso   1.000  H
  H270     1.0000 0.36510  0.97730  0.81370  Biso   1.000  H
  H271     1.0000 0.86510  0.52270  0.18630  Biso   1.000  H
  H272     1.0000 0.63490  0.47730  0.68630  Biso   1.000  H
  H273     1.0000 0.91760  0.97980  0.72730  Biso   1.000  H
  H274     1.0000 0.58240  0.02020  0.22730  Biso   1.000  H
  H275     1.0000 0.08240  0.47980  0.77270  Biso   1.000  H
  H276     1.0000 0.41760  0.52020  0.27270  Biso   1.000  H
  H277     1.0000 0.08240  0.02020  0.27270  Biso   1.000  H
  H278     1.0000 0.41760  0.97980  0.77270  Biso   1.000  H
  H279     1.0000 0.91760  0.52020  0.22730  Biso   1.000  H
  H280     1.0000 0.58240  0.47980  0.72730  Biso   1.000  H
  C201     1.0000 0.82000  0.06940  0.72260  Biso   1.000  C
  C202     1.0000 0.68000  0.93060  0.22260  Biso   1.000  C
  C203     1.0000 0.18000  0.56940  0.77740  Biso   1.000  C
  C204     1.0000 0.32000  0.43060  0.27740  Biso   1.000  C
  C205     1.0000 0.18000  0.93060  0.27740  Biso   1.000  C
  C206     1.0000 0.32000  0.06940  0.77740  Biso   1.000  C
  C207     1.0000 0.82000  0.43060  0.22260  Biso   1.000  C
  C208     1.0000 0.68000  0.56940  0.72260  Biso   1.000  C
  H281     1.0000 0.83630  0.08360  0.74930  Biso   1.000  H
  H282     1.0000 0.66370  0.91640  0.24930  Biso   1.000  H
  H283     1.0000 0.16370  0.58360  0.75070  Biso   1.000  H
  H284     1.0000 0.33630  0.41640  0.25070  Biso   1.000  H
  H285     1.0000 0.16370  0.91640  0.25070  Biso   1.000  H
  H286     1.0000 0.33630  0.08360  0.75070  Biso   1.000  H
  H287     1.0000 0.83630  0.41640  0.24930  Biso   1.000  H
  H288     1.0000 0.66370  0.58360  0.74930  Biso   1.000  H
  H289     1.0000 0.76080  0.04590  0.72260  Biso   1.000  H
  H290     1.0000 0.73920  0.95410  0.22260  Biso   1.000  H
  H291     1.0000 0.23920  0.54590  0.77740  Biso   1.000  H
  H292     1.0000 0.26080  0.45410  0.27740  Biso   1.000  H
  H293     1.0000 0.23920  0.95410  0.27740  Biso   1.000  H
  H294     1.0000 0.26080  0.04590  0.77740  Biso   1.000  H
  H295     1.0000 0.76080  0.45410  0.22260  Biso   1.000  H
  H296     1.0000 0.73920  0.54590  0.72260  Biso   1.000  H
  H297     1.0000 0.81910  0.11440  0.70610  Biso   1.000  H
  H298     1.0000 0.68090  0.88560  0.20610  Biso   1.000  H
  H299     1.0000 0.18090  0.61440  0.79390  Biso   1.000  H
  H300     1.0000 0.31910  0.38560  0.29390  Biso   1.000  H
  H301     1.0000 0.18090  0.88560  0.29390  Biso   1.000  H
  H302     1.0000 0.31910  0.11440  0.79390  Biso   1.000  H
  H303     1.0000 0.81910  0.38560  0.20610  Biso   1.000  H
  H304     1.0000 0.68090  0.61440  0.70610  Biso   1.000  H
  C209     1.0000 0.87700  0.08900  0.62650  Biso   1.000  C
  C210     1.0000 0.62300  0.91100  0.12650  Biso   1.000  C
  C211     1.0000 0.12300  0.58900  0.87350  Biso   1.000  C
  C212     1.0000 0.37700  0.41100  0.37350  Biso   1.000  C
  C213     1.0000 0.12300  0.91100  0.37350  Biso   1.000  C
  C214     1.0000 0.37700  0.08900  0.87350  Biso   1.000  C
  C215     1.0000 0.87700  0.41100  0.12650  Biso   1.000  C
  C216     1.0000 0.62300  0.58900  0.62650  Biso   1.000  C
  H305     1.0000 0.86160  0.03680  0.63270  Biso   1.000  H
  H306     1.0000 0.63840  0.96320  0.13270  Biso   1.000  H
  H307     1.0000 0.13840  0.53680  0.86730  Biso   1.000  H
  H308     1.0000 0.36160  0.46320  0.36730  Biso   1.000  H
  H309     1.0000 0.13840  0.96320  0.36730  Biso   1.000  H
  H310     1.0000 0.36160  0.03680  0.86730  Biso   1.000  H
  H311     1.0000 0.86160  0.46320  0.13270  Biso   1.000  H
  H312     1.0000 0.63840  0.53680  0.63270  Biso   1.000  H
  H313     1.0000 0.90550  0.09150  0.60090  Biso   1.000  H
  H314     1.0000 0.59450  0.90850  0.10090  Biso   1.000  H
  H315     1.0000 0.09450  0.59150  0.89910  Biso   1.000  H
  H316     1.0000 0.40550  0.40850  0.39910  Biso   1.000  H
  H317     1.0000 0.09450  0.90850  0.39910  Biso   1.000  H
  H318     1.0000 0.40550  0.09150  0.89910  Biso   1.000  H
  H319     1.0000 0.90550  0.40850  0.10090  Biso   1.000  H
  H320     1.0000 0.59450  0.59150  0.60090  Biso   1.000  H
  H321     1.0000 0.82190  0.11960  0.62620  Biso   1.000  H
  H322     1.0000 0.67810  0.88040  0.12620  Biso   1.000  H
  H323     1.0000 0.17810  0.61960  0.87380  Biso   1.000  H
  H324     1.0000 0.32190  0.38040  0.37380  Biso   1.000  H
  H325     1.0000 0.17810  0.88040  0.37380  Biso   1.000  H
  H326     1.0000 0.32190  0.11960  0.87380  Biso   1.000  H
  H327     1.0000 0.82190  0.38040  0.12620  Biso   1.000  H
  H328     1.0000 0.67810  0.61960  0.62620  Biso   1.000  H
