data_image0
_cell_length_a       14.2783
_cell_length_b       14.2783
_cell_length_c       49.8573
_cell_angle_alpha    90
_cell_angle_beta     90
_cell_angle_gamma    120

_symmetry_space_group_name_H-M    "P 1"
_symmetry_int_tables_number       1

loop_
  _symmetry_equiv_pos_as_xyz
  'x, y, z'

loop_
  _atom_site_label
  _atom_site_occupancy
  _atom_site_fract_x
  _atom_site_fract_y
  _atom_site_fract_z
  _atom_site_thermal_displace_type
  _atom_site_B_iso_or_equiv
  _atom_site_type_symbol
  I1       1.0000 0.00000  0.00000  0.50000  Biso   1.000  I
  I2       1.0000 0.00000  0.00000  0.00000  Biso   1.000  I
  I3       1.0000 0.66667  0.33333  0.83333  Biso   1.000  I
  I4       1.0000 0.66667  0.33333  0.33333  Biso   1.000  I
  I5       1.0000 0.33333  0.66667  0.16667  Biso   1.000  I
  I6       1.0000 0.33333  0.66667  0.66667  Biso   1.000  I
  I7       1.0000 0.15525  0.20707  0.42797  Biso   1.000  I
  I8       1.0000 0.79293  0.94818  0.42797  Biso   1.000  I
  I9       1.0000 0.05182  0.84475  0.42797  Biso   1.000  I
  I10      1.0000 0.94818  0.79293  0.07203  Biso   1.000  I
  I11      1.0000 0.84475  0.05182  0.07203  Biso   1.000  I
  I12      1.0000 0.20707  0.15525  0.07203  Biso   1.000  I
  I13      1.0000 0.82192  0.54040  0.76130  Biso   1.000  I
  I14      1.0000 0.45960  0.28151  0.76130  Biso   1.000  I
  I15      1.0000 0.71849  0.17808  0.76130  Biso   1.000  I
  I16      1.0000 0.61485  0.12626  0.40537  Biso   1.000  I
  I17      1.0000 0.51142  0.38515  0.40537  Biso   1.000  I
  I18      1.0000 0.87374  0.48858  0.40537  Biso   1.000  I
  I19      1.0000 0.48858  0.87374  0.09463  Biso   1.000  I
  I20      1.0000 0.12626  0.61485  0.09463  Biso   1.000  I
  I21      1.0000 0.38515  0.51142  0.09463  Biso   1.000  I
  I22      1.0000 0.28151  0.45960  0.73870  Biso   1.000  I
  I23      1.0000 0.17808  0.71849  0.73870  Biso   1.000  I
  I24      1.0000 0.54040  0.82192  0.73870  Biso   1.000  I
  I25      1.0000 0.84475  0.79293  0.57203  Biso   1.000  I
  I26      1.0000 0.20707  0.05182  0.57203  Biso   1.000  I
  I27      1.0000 0.94818  0.15525  0.57203  Biso   1.000  I
  I28      1.0000 0.05182  0.20707  0.92797  Biso   1.000  I
  I29      1.0000 0.15525  0.94818  0.92797  Biso   1.000  I
  I30      1.0000 0.79293  0.84475  0.92797  Biso   1.000  I
  I31      1.0000 0.51142  0.12626  0.90537  Biso   1.000  I
  I32      1.0000 0.87374  0.38515  0.90537  Biso   1.000  I
  I33      1.0000 0.61485  0.48858  0.90537  Biso   1.000  I
  I34      1.0000 0.71849  0.54040  0.26130  Biso   1.000  I
  I35      1.0000 0.82192  0.28151  0.26130  Biso   1.000  I
  I36      1.0000 0.45960  0.17808  0.26130  Biso   1.000  I
  I37      1.0000 0.17808  0.45960  0.23870  Biso   1.000  I
  I38      1.0000 0.54040  0.71849  0.23870  Biso   1.000  I
  I39      1.0000 0.28151  0.82192  0.23870  Biso   1.000  I
  I40      1.0000 0.38515  0.87374  0.59463  Biso   1.000  I
  I41      1.0000 0.48858  0.61485  0.59463  Biso   1.000  I
  I42      1.0000 0.12626  0.51142  0.59463  Biso   1.000  I
  Cu1      1.0000 0.12122  0.03017  0.45162  Biso   1.000  Cu
  Cu2      1.0000 0.96983  0.09105  0.45162  Biso   1.000  Cu
  Cu3      1.0000 0.90895  0.87878  0.45162  Biso   1.000  Cu
  Cu4      1.0000 0.09105  0.96983  0.04838  Biso   1.000  Cu
  Cu5      1.0000 0.87878  0.90895  0.04838  Biso   1.000  Cu
  Cu6      1.0000 0.03017  0.12122  0.04838  Biso   1.000  Cu
  Cu7      1.0000 0.78789  0.36350  0.78496  Biso   1.000  Cu
  Cu8      1.0000 0.63650  0.42438  0.78496  Biso   1.000  Cu
  Cu9      1.0000 0.57562  0.21211  0.78496  Biso   1.000  Cu
  Cu10     1.0000 0.75772  0.30316  0.38171  Biso   1.000  Cu
  Cu11     1.0000 0.54545  0.24228  0.38171  Biso   1.000  Cu
  Cu12     1.0000 0.69684  0.45455  0.38171  Biso   1.000  Cu
  Cu13     1.0000 0.45455  0.69684  0.11829  Biso   1.000  Cu
  Cu14     1.0000 0.30316  0.75772  0.11829  Biso   1.000  Cu
  Cu15     1.0000 0.24228  0.54545  0.11829  Biso   1.000  Cu
  Cu16     1.0000 0.42438  0.63650  0.71504  Biso   1.000  Cu
  Cu17     1.0000 0.21211  0.57562  0.71504  Biso   1.000  Cu
  Cu18     1.0000 0.36350  0.78789  0.71504  Biso   1.000  Cu
  Cu19     1.0000 0.87878  0.96983  0.54838  Biso   1.000  Cu
  Cu20     1.0000 0.03017  0.90895  0.54838  Biso   1.000  Cu
  Cu21     1.0000 0.09105  0.12122  0.54838  Biso   1.000  Cu
  Cu22     1.0000 0.90895  0.03017  0.95162  Biso   1.000  Cu
  Cu23     1.0000 0.12122  0.09105  0.95162  Biso   1.000  Cu
  Cu24     1.0000 0.96983  0.87878  0.95162  Biso   1.000  Cu
  Cu25     1.0000 0.54545  0.30316  0.88171  Biso   1.000  Cu
  Cu26     1.0000 0.69684  0.24228  0.88171  Biso   1.000  Cu
  Cu27     1.0000 0.75772  0.45455  0.88171  Biso   1.000  Cu
  Cu28     1.0000 0.57562  0.36350  0.28496  Biso   1.000  Cu
  Cu29     1.0000 0.78789  0.42438  0.28496  Biso   1.000  Cu
  Cu30     1.0000 0.63650  0.21211  0.28496  Biso   1.000  Cu
  Cu31     1.0000 0.21211  0.63650  0.21504  Biso   1.000  Cu
  Cu32     1.0000 0.36350  0.57562  0.21504  Biso   1.000  Cu
  Cu33     1.0000 0.42438  0.78789  0.21504  Biso   1.000  Cu
  Cu34     1.0000 0.24228  0.69684  0.61829  Biso   1.000  Cu
  Cu35     1.0000 0.45455  0.75772  0.61829  Biso   1.000  Cu
  Cu36     1.0000 0.30316  0.54545  0.61829  Biso   1.000  Cu
  P1       1.0000 0.66670  0.33330  0.48080  Biso   1.000  P
  P2       1.0000 0.33340  0.66670  0.01920  Biso   1.000  P
  P3       1.0000 0.33337  0.66663  0.81413  Biso   1.000  P
  P4       1.0000 0.00007  0.00003  0.35253  Biso   1.000  P
  P5       1.0000 0.00003  0.99997  0.14747  Biso   1.000  P
  P6       1.0000 0.66673  0.33337  0.68587  Biso   1.000  P
  P7       1.0000 0.33330  0.66670  0.51920  Biso   1.000  P
  P8       1.0000 0.66660  0.33330  0.98080  Biso   1.000  P
  P9       1.0000 0.99997  0.00003  0.85253  Biso   1.000  P
  P10      1.0000 0.33327  0.66663  0.31413  Biso   1.000  P
  P11      1.0000 0.66663  0.33337  0.18587  Biso   1.000  P
  P12      1.0000 0.99993  0.99997  0.64747  Biso   1.000  P
  N1       1.0000 0.54520  0.27600  0.46718  Biso   1.000  N
  N2       1.0000 0.72400  0.26920  0.46718  Biso   1.000  N
  N3       1.0000 0.73080  0.45480  0.46718  Biso   1.000  N
  N4       1.0000 0.26920  0.72400  0.03282  Biso   1.000  N
  N5       1.0000 0.45480  0.73080  0.03282  Biso   1.000  N
  N6       1.0000 0.27600  0.54520  0.03282  Biso   1.000  N
  N7       1.0000 0.21187  0.60933  0.80051  Biso   1.000  N
  N8       1.0000 0.39067  0.60253  0.80051  Biso   1.000  N
  N9       1.0000 0.39747  0.78813  0.80051  Biso   1.000  N
  N10      1.0000 0.93587  0.05733  0.36615  Biso   1.000  N
  N11      1.0000 0.12147  0.06413  0.36615  Biso   1.000  N
  N12      1.0000 0.94267  0.87853  0.36615  Biso   1.000  N
  N13      1.0000 0.87853  0.94267  0.13385  Biso   1.000  N
  N14      1.0000 0.05733  0.93587  0.13385  Biso   1.000  N
  N15      1.0000 0.06413  0.12147  0.13385  Biso   1.000  N
  N16      1.0000 0.60253  0.39067  0.69949  Biso   1.000  N
  N17      1.0000 0.78813  0.39747  0.69949  Biso   1.000  N
  N18      1.0000 0.60933  0.21187  0.69949  Biso   1.000  N
  N19      1.0000 0.45480  0.72400  0.53282  Biso   1.000  N
  N20      1.0000 0.27600  0.73080  0.53282  Biso   1.000  N
  N21      1.0000 0.26920  0.54520  0.53282  Biso   1.000  N
  N22      1.0000 0.73080  0.27600  0.96718  Biso   1.000  N
  N23      1.0000 0.54520  0.26920  0.96718  Biso   1.000  N
  N24      1.0000 0.72400  0.45480  0.96718  Biso   1.000  N
  N25      1.0000 0.12147  0.05733  0.86615  Biso   1.000  N
  N26      1.0000 0.94267  0.06413  0.86615  Biso   1.000  N
  N27      1.0000 0.93587  0.87853  0.86615  Biso   1.000  N
  N28      1.0000 0.39747  0.60933  0.30051  Biso   1.000  N
  N29      1.0000 0.21187  0.60253  0.30051  Biso   1.000  N
  N30      1.0000 0.39067  0.78813  0.30051  Biso   1.000  N
  N31      1.0000 0.78813  0.39067  0.19949  Biso   1.000  N
  N32      1.0000 0.60933  0.39747  0.19949  Biso   1.000  N
  N33      1.0000 0.60253  0.21187  0.19949  Biso   1.000  N
  N34      1.0000 0.06413  0.94267  0.63385  Biso   1.000  N
  N35      1.0000 0.87853  0.93587  0.63385  Biso   1.000  N
  N36      1.0000 0.05733  0.12147  0.63385  Biso   1.000  N
  H1       1.0000 0.53630  0.31000  0.45360  Biso   1.000  H
  H2       1.0000 0.69000  0.22630  0.45360  Biso   1.000  H
  H3       1.0000 0.77370  0.46370  0.45360  Biso   1.000  H
  H4       1.0000 0.22630  0.69000  0.04640  Biso   1.000  H
  H5       1.0000 0.46370  0.77370  0.04640  Biso   1.000  H
  H6       1.0000 0.31000  0.53630  0.04640  Biso   1.000  H
  H7       1.0000 0.20297  0.64333  0.78693  Biso   1.000  H
  H8       1.0000 0.35667  0.55963  0.78693  Biso   1.000  H
  H9       1.0000 0.44037  0.79703  0.78693  Biso   1.000  H
  H10      1.0000 0.89297  0.02333  0.37973  Biso   1.000  H
  H11      1.0000 0.13037  0.10703  0.37973  Biso   1.000  H
  H12      1.0000 0.97667  0.86963  0.37973  Biso   1.000  H
  H13      1.0000 0.86963  0.97667  0.12027  Biso   1.000  H
  H14      1.0000 0.02333  0.89297  0.12027  Biso   1.000  H
  H15      1.0000 0.10703  0.13037  0.12027  Biso   1.000  H
  H16      1.0000 0.55963  0.35667  0.71307  Biso   1.000  H
  H17      1.0000 0.79703  0.44037  0.71307  Biso   1.000  H
  H18      1.0000 0.64333  0.20297  0.71307  Biso   1.000  H
  H19      1.0000 0.46370  0.69000  0.54640  Biso   1.000  H
  H20      1.0000 0.31000  0.77370  0.54640  Biso   1.000  H
  H21      1.0000 0.22630  0.53630  0.54640  Biso   1.000  H
  H22      1.0000 0.77370  0.31000  0.95360  Biso   1.000  H
  H23      1.0000 0.53630  0.22630  0.95360  Biso   1.000  H
  H24      1.0000 0.69000  0.46370  0.95360  Biso   1.000  H
  H25      1.0000 0.13037  0.02333  0.87973  Biso   1.000  H
  H26      1.0000 0.97667  0.10703  0.87973  Biso   1.000  H
  H27      1.0000 0.89297  0.86963  0.87973  Biso   1.000  H
  H28      1.0000 0.44037  0.64333  0.28693  Biso   1.000  H
  H29      1.0000 0.20297  0.55963  0.28693  Biso   1.000  H
  H30      1.0000 0.35667  0.79703  0.28693  Biso   1.000  H
  H31      1.0000 0.79703  0.35667  0.21307  Biso   1.000  H
  H32      1.0000 0.64333  0.44037  0.21307  Biso   1.000  H
  H33      1.0000 0.55963  0.20297  0.21307  Biso   1.000  H
  H34      1.0000 0.10703  0.97667  0.62027  Biso   1.000  H
  H35      1.0000 0.86963  0.89297  0.62027  Biso   1.000  H
  H36      1.0000 0.02333  0.13037  0.62027  Biso   1.000  H
  N37      1.0000 0.26350  0.05920  0.46893  Biso   1.000  N
  N38      1.0000 0.94080  0.20430  0.46893  Biso   1.000  N
  N39      1.0000 0.79570  0.73650  0.46893  Biso   1.000  N
  N40      1.0000 0.20430  0.94080  0.03107  Biso   1.000  N
  N41      1.0000 0.73650  0.79570  0.03107  Biso   1.000  N
  N42      1.0000 0.05920  0.26350  0.03107  Biso   1.000  N
  N43      1.0000 0.93017  0.39253  0.80226  Biso   1.000  N
  N44      1.0000 0.60747  0.53763  0.80226  Biso   1.000  N
  N45      1.0000 0.46237  0.06983  0.80226  Biso   1.000  N
  N46      1.0000 0.87097  0.27413  0.36440  Biso   1.000  N
  N47      1.0000 0.40317  0.12903  0.36440  Biso   1.000  N
  N48      1.0000 0.72587  0.59683  0.36440  Biso   1.000  N
  N49      1.0000 0.59683  0.72587  0.13560  Biso   1.000  N
  N50      1.0000 0.27413  0.87097  0.13560  Biso   1.000  N
  N51      1.0000 0.12903  0.40317  0.13560  Biso   1.000  N
  N52      1.0000 0.53763  0.60747  0.69774  Biso   1.000  N
  N53      1.0000 0.06983  0.46237  0.69774  Biso   1.000  N
  N54      1.0000 0.39253  0.93017  0.69774  Biso   1.000  N
  N55      1.0000 0.73650  0.94080  0.53107  Biso   1.000  N
  N56      1.0000 0.05920  0.79570  0.53107  Biso   1.000  N
  N57      1.0000 0.20430  0.26350  0.53107  Biso   1.000  N
  N58      1.0000 0.79570  0.05920  0.96893  Biso   1.000  N
  N59      1.0000 0.26350  0.20430  0.96893  Biso   1.000  N
  N60      1.0000 0.94080  0.73650  0.96893  Biso   1.000  N
  N61      1.0000 0.40317  0.27413  0.86440  Biso   1.000  N
  N62      1.0000 0.72587  0.12903  0.86440  Biso   1.000  N
  N63      1.0000 0.87097  0.59683  0.86440  Biso   1.000  N
  N64      1.0000 0.46237  0.39253  0.30226  Biso   1.000  N
  N65      1.0000 0.93017  0.53763  0.30226  Biso   1.000  N
  N66      1.0000 0.60747  0.06983  0.30226  Biso   1.000  N
  N67      1.0000 0.06983  0.60747  0.19774  Biso   1.000  N
  N68      1.0000 0.39253  0.46237  0.19774  Biso   1.000  N
  N69      1.0000 0.53763  0.93017  0.19774  Biso   1.000  N
  N70      1.0000 0.12903  0.72587  0.63560  Biso   1.000  N
  N71      1.0000 0.59683  0.87097  0.63560  Biso   1.000  N
  N72      1.0000 0.27413  0.40317  0.63560  Biso   1.000  N
  C1       1.0000 0.45430  0.17810  0.47515  Biso   1.000  C
  C2       1.0000 0.82190  0.27620  0.47515  Biso   1.000  C
  C3       1.0000 0.72380  0.54570  0.47515  Biso   1.000  C
  C4       1.0000 0.27620  0.82190  0.02485  Biso   1.000  C
  C5       1.0000 0.54570  0.72380  0.02485  Biso   1.000  C
  C6       1.0000 0.17810  0.45430  0.02485  Biso   1.000  C
  C7       1.0000 0.12097  0.51143  0.80848  Biso   1.000  C
  C8       1.0000 0.48857  0.60953  0.80848  Biso   1.000  C
  C9       1.0000 0.39047  0.87903  0.80848  Biso   1.000  C
  C10      1.0000 0.94287  0.15523  0.35818  Biso   1.000  C
  C11      1.0000 0.21237  0.05713  0.35818  Biso   1.000  C
  C12      1.0000 0.84477  0.78763  0.35818  Biso   1.000  C
  C13      1.0000 0.78763  0.84477  0.14182  Biso   1.000  C
  C14      1.0000 0.15523  0.94287  0.14182  Biso   1.000  C
  C15      1.0000 0.05713  0.21237  0.14182  Biso   1.000  C
  C16      1.0000 0.60953  0.48857  0.69152  Biso   1.000  C
  C17      1.0000 0.87903  0.39047  0.69152  Biso   1.000  C
  C18      1.0000 0.51143  0.12097  0.69152  Biso   1.000  C
  C19      1.0000 0.54570  0.82190  0.52485  Biso   1.000  C
  C20      1.0000 0.17810  0.72380  0.52485  Biso   1.000  C
  C21      1.0000 0.27620  0.45430  0.52485  Biso   1.000  C
  C22      1.0000 0.72380  0.17810  0.97515  Biso   1.000  C
  C23      1.0000 0.45430  0.27620  0.97515  Biso   1.000  C
  C24      1.0000 0.82190  0.54570  0.97515  Biso   1.000  C
  C25      1.0000 0.21237  0.15523  0.85818  Biso   1.000  C
  C26      1.0000 0.84477  0.05713  0.85818  Biso   1.000  C
  C27      1.0000 0.94287  0.78763  0.85818  Biso   1.000  C
  C28      1.0000 0.39047  0.51143  0.30848  Biso   1.000  C
  C29      1.0000 0.12097  0.60953  0.30848  Biso   1.000  C
  C30      1.0000 0.48857  0.87903  0.30848  Biso   1.000  C
  C31      1.0000 0.87903  0.48857  0.19152  Biso   1.000  C
  C32      1.0000 0.51143  0.39047  0.19152  Biso   1.000  C
  C33      1.0000 0.60953  0.12097  0.19152  Biso   1.000  C
  C34      1.0000 0.05713  0.84477  0.64182  Biso   1.000  C
  C35      1.0000 0.78763  0.94287  0.64182  Biso   1.000  C
  C36      1.0000 0.15523  0.21237  0.64182  Biso   1.000  C
  C37      1.0000 0.35650  0.14900  0.46247  Biso   1.000  C
  C38      1.0000 0.85100  0.20750  0.46247  Biso   1.000  C
  C39      1.0000 0.79250  0.64350  0.46247  Biso   1.000  C
  C40      1.0000 0.20750  0.85100  0.03753  Biso   1.000  C
  C41      1.0000 0.64350  0.79250  0.03753  Biso   1.000  C
  C42      1.0000 0.14900  0.35650  0.03753  Biso   1.000  C
  C43      1.0000 0.02317  0.48233  0.79580  Biso   1.000  C
  C44      1.0000 0.51767  0.54083  0.79580  Biso   1.000  C
  C45      1.0000 0.45917  0.97683  0.79580  Biso   1.000  C
  C46      1.0000 0.87417  0.18433  0.37086  Biso   1.000  C
  C47      1.0000 0.31017  0.12583  0.37086  Biso   1.000  C
  C48      1.0000 0.81567  0.68983  0.37086  Biso   1.000  C
  C49      1.0000 0.68983  0.81567  0.12914  Biso   1.000  C
  C50      1.0000 0.18433  0.87417  0.12914  Biso   1.000  C
  C51      1.0000 0.12583  0.31017  0.12914  Biso   1.000  C
  C52      1.0000 0.54083  0.51767  0.70420  Biso   1.000  C
  C53      1.0000 0.97683  0.45917  0.70420  Biso   1.000  C
  C54      1.0000 0.48233  0.02317  0.70420  Biso   1.000  C
  C55      1.0000 0.64350  0.85100  0.53753  Biso   1.000  C
  C56      1.0000 0.14900  0.79250  0.53753  Biso   1.000  C
  C57      1.0000 0.20750  0.35650  0.53753  Biso   1.000  C
  C58      1.0000 0.79250  0.14900  0.96247  Biso   1.000  C
  C59      1.0000 0.35650  0.20750  0.96247  Biso   1.000  C
  C60      1.0000 0.85100  0.64350  0.96247  Biso   1.000  C
  C61      1.0000 0.31017  0.18433  0.87086  Biso   1.000  C
  C62      1.0000 0.81567  0.12583  0.87086  Biso   1.000  C
  C63      1.0000 0.87417  0.68983  0.87086  Biso   1.000  C
  C64      1.0000 0.45917  0.48233  0.29580  Biso   1.000  C
  C65      1.0000 0.02317  0.54083  0.29580  Biso   1.000  C
  C66      1.0000 0.51767  0.97683  0.29580  Biso   1.000  C
  C67      1.0000 0.97683  0.51767  0.20420  Biso   1.000  C
  C68      1.0000 0.48233  0.45917  0.20420  Biso   1.000  C
  C69      1.0000 0.54083  0.02317  0.20420  Biso   1.000  C
  C70      1.0000 0.12583  0.81567  0.62914  Biso   1.000  C
  C71      1.0000 0.68983  0.87417  0.62914  Biso   1.000  C
  C72      1.0000 0.18433  0.31017  0.62914  Biso   1.000  C
  H37      1.0000 0.35550  0.19440  0.44870  Biso   1.000  H
  H38      1.0000 0.80560  0.16110  0.44870  Biso   1.000  H
  H39      1.0000 0.83890  0.64450  0.44870  Biso   1.000  H
  H40      1.0000 0.16110  0.80560  0.05130  Biso   1.000  H
  H41      1.0000 0.64450  0.83890  0.05130  Biso   1.000  H
  H42      1.0000 0.19440  0.35550  0.05130  Biso   1.000  H
  H43      1.0000 0.02217  0.52773  0.78203  Biso   1.000  H
  H44      1.0000 0.47227  0.49443  0.78203  Biso   1.000  H
  H45      1.0000 0.50557  0.97783  0.78203  Biso   1.000  H
  H46      1.0000 0.82777  0.13893  0.38463  Biso   1.000  H
  H47      1.0000 0.31117  0.17223  0.38463  Biso   1.000  H
  H48      1.0000 0.86107  0.68883  0.38463  Biso   1.000  H
  H49      1.0000 0.68883  0.86107  0.11537  Biso   1.000  H
  H50      1.0000 0.13893  0.82777  0.11537  Biso   1.000  H
  H51      1.0000 0.17223  0.31117  0.11537  Biso   1.000  H
  H52      1.0000 0.49443  0.47227  0.71797  Biso   1.000  H
  H53      1.0000 0.97783  0.50557  0.71797  Biso   1.000  H
  H54      1.0000 0.52773  0.02217  0.71797  Biso   1.000  H
  H55      1.0000 0.64450  0.80560  0.55130  Biso   1.000  H
  H56      1.0000 0.19440  0.83890  0.55130  Biso   1.000  H
  H57      1.0000 0.16110  0.35550  0.55130  Biso   1.000  H
  H58      1.0000 0.83890  0.19440  0.94870  Biso   1.000  H
  H59      1.0000 0.35550  0.16110  0.94870  Biso   1.000  H
  H60      1.0000 0.80560  0.64450  0.94870  Biso   1.000  H
  H61      1.0000 0.31117  0.13893  0.88463  Biso   1.000  H
  H62      1.0000 0.86107  0.17223  0.88463  Biso   1.000  H
  H63      1.0000 0.82777  0.68883  0.88463  Biso   1.000  H
  H64      1.0000 0.50557  0.52773  0.28203  Biso   1.000  H
  H65      1.0000 0.02217  0.49443  0.28203  Biso   1.000  H
  H66      1.0000 0.47227  0.97783  0.28203  Biso   1.000  H
  H67      1.0000 0.97783  0.47227  0.21797  Biso   1.000  H
  H68      1.0000 0.52773  0.50557  0.21797  Biso   1.000  H
  H69      1.0000 0.49443  0.02217  0.21797  Biso   1.000  H
  H70      1.0000 0.17223  0.86107  0.61537  Biso   1.000  H
  H71      1.0000 0.68883  0.82777  0.61537  Biso   1.000  H
  H72      1.0000 0.13893  0.31117  0.61537  Biso   1.000  H
  C73      1.0000 0.26580  0.99560  0.48833  Biso   1.000  C
  C74      1.0000 0.00440  0.27020  0.48833  Biso   1.000  C
  C75      1.0000 0.72980  0.73420  0.48833  Biso   1.000  C
  C76      1.0000 0.27020  0.00440  0.01167  Biso   1.000  C
  C77      1.0000 0.73420  0.72980  0.01167  Biso   1.000  C
  C78      1.0000 0.99560  0.26580  0.01167  Biso   1.000  C
  C79      1.0000 0.93247  0.32893  0.82166  Biso   1.000  C
  C80      1.0000 0.67107  0.60353  0.82166  Biso   1.000  C
  C81      1.0000 0.39647  0.06753  0.82166  Biso   1.000  C
  C82      1.0000 0.93687  0.33773  0.34500  Biso   1.000  C
  C83      1.0000 0.40087  0.06313  0.34500  Biso   1.000  C
  C84      1.0000 0.66227  0.59913  0.34500  Biso   1.000  C
  C85      1.0000 0.59913  0.66227  0.15500  Biso   1.000  C
  C86      1.0000 0.33773  0.93687  0.15500  Biso   1.000  C
  C87      1.0000 0.06313  0.40087  0.15500  Biso   1.000  C
  C88      1.0000 0.60353  0.67107  0.67834  Biso   1.000  C
  C89      1.0000 0.06753  0.39647  0.67834  Biso   1.000  C
  C90      1.0000 0.32893  0.93247  0.67834  Biso   1.000  C
  C91      1.0000 0.73420  0.00440  0.51167  Biso   1.000  C
  C92      1.0000 0.99560  0.72980  0.51167  Biso   1.000  C
  C93      1.0000 0.27020  0.26580  0.51167  Biso   1.000  C
  C94      1.0000 0.72980  0.99560  0.98833  Biso   1.000  C
  C95      1.0000 0.26580  0.27020  0.98833  Biso   1.000  C
  C96      1.0000 0.00440  0.73420  0.98833  Biso   1.000  C
  C97      1.0000 0.40087  0.33773  0.84500  Biso   1.000  C
  C98      1.0000 0.66227  0.06313  0.84500  Biso   1.000  C
  C99      1.0000 0.93687  0.59913  0.84500  Biso   1.000  C
  C100     1.0000 0.39647  0.32893  0.32166  Biso   1.000  C
  C101     1.0000 0.93247  0.60353  0.32166  Biso   1.000  C
  C102     1.0000 0.67107  0.06753  0.32166  Biso   1.000  C
  C103     1.0000 0.06753  0.67107  0.17834  Biso   1.000  C
  C104     1.0000 0.32893  0.39647  0.17834  Biso   1.000  C
  C105     1.0000 0.60353  0.93247  0.17834  Biso   1.000  C
  C106     1.0000 0.06313  0.66227  0.65500  Biso   1.000  C
  C107     1.0000 0.59913  0.93687  0.65500  Biso   1.000  C
  C108     1.0000 0.33773  0.40087  0.65500  Biso   1.000  C
  H73      1.0000 0.20050  0.93210  0.49310  Biso   1.000  H
  H74      1.0000 0.06790  0.26840  0.49310  Biso   1.000  H
  H75      1.0000 0.73160  0.79950  0.49310  Biso   1.000  H
  H76      1.0000 0.26840  0.06790  0.00690  Biso   1.000  H
  H77      1.0000 0.79950  0.73160  0.00690  Biso   1.000  H
  H78      1.0000 0.93210  0.20050  0.00690  Biso   1.000  H
  H79      1.0000 0.86717  0.26543  0.82643  Biso   1.000  H
  H80      1.0000 0.73457  0.60173  0.82643  Biso   1.000  H
  H81      1.0000 0.39827  0.13283  0.82643  Biso   1.000  H
  H82      1.0000 0.93507  0.40123  0.34023  Biso   1.000  H
  H83      1.0000 0.46617  0.06493  0.34023  Biso   1.000  H
  H84      1.0000 0.59877  0.53383  0.34023  Biso   1.000  H
  H85      1.0000 0.53383  0.59877  0.15977  Biso   1.000  H
  H86      1.0000 0.40123  0.93507  0.15977  Biso   1.000  H
  H87      1.0000 0.06493  0.46617  0.15977  Biso   1.000  H
  H88      1.0000 0.60173  0.73457  0.67357  Biso   1.000  H
  H89      1.0000 0.13283  0.39827  0.67357  Biso   1.000  H
  H90      1.0000 0.26543  0.86717  0.67357  Biso   1.000  H
  H91      1.0000 0.79950  0.06790  0.50690  Biso   1.000  H
  H92      1.0000 0.93210  0.73160  0.50690  Biso   1.000  H
  H93      1.0000 0.26840  0.20050  0.50690  Biso   1.000  H
  H94      1.0000 0.73160  0.93210  0.99310  Biso   1.000  H
  H95      1.0000 0.20050  0.26840  0.99310  Biso   1.000  H
  H96      1.0000 0.06790  0.79950  0.99310  Biso   1.000  H
  H97      1.0000 0.46617  0.40123  0.84023  Biso   1.000  H
  H98      1.0000 0.59877  0.06493  0.84023  Biso   1.000  H
  H99      1.0000 0.93507  0.53383  0.84023  Biso   1.000  H
  H100     1.0000 0.39827  0.26543  0.32643  Biso   1.000  H
  H101     1.0000 0.86717  0.60173  0.32643  Biso   1.000  H
  H102     1.0000 0.73457  0.13283  0.32643  Biso   1.000  H
  H103     1.0000 0.13283  0.73457  0.17357  Biso   1.000  H
  H104     1.0000 0.26543  0.39827  0.17357  Biso   1.000  H
  H105     1.0000 0.60173  0.86717  0.17357  Biso   1.000  H
  H106     1.0000 0.06493  0.59877  0.65977  Biso   1.000  H
  H107     1.0000 0.53383  0.93507  0.65977  Biso   1.000  H
  H108     1.0000 0.40123  0.46617  0.65977  Biso   1.000  H
  C109     1.0000 0.45620  0.11290  0.49529  Biso   1.000  C
  C110     1.0000 0.88710  0.34330  0.49529  Biso   1.000  C
  C111     1.0000 0.65670  0.54380  0.49529  Biso   1.000  C
  C112     1.0000 0.34330  0.88710  0.00471  Biso   1.000  C
  C113     1.0000 0.54380  0.65670  0.00471  Biso   1.000  C
  C114     1.0000 0.11290  0.45620  0.00471  Biso   1.000  C
  C115     1.0000 0.12287  0.44623  0.82862  Biso   1.000  C
  C116     1.0000 0.55377  0.67663  0.82862  Biso   1.000  C
  C117     1.0000 0.32337  0.87713  0.82862  Biso   1.000  C
  C118     1.0000 0.00997  0.22043  0.33804  Biso   1.000  C
  C119     1.0000 0.21047  0.99003  0.33804  Biso   1.000  C
  C120     1.0000 0.77957  0.78953  0.33804  Biso   1.000  C
  C121     1.0000 0.78953  0.77957  0.16196  Biso   1.000  C
  C122     1.0000 0.22043  0.00997  0.16196  Biso   1.000  C
  C123     1.0000 0.99003  0.21047  0.16196  Biso   1.000  C
  C124     1.0000 0.67663  0.55377  0.67138  Biso   1.000  C
  C125     1.0000 0.87713  0.32337  0.67138  Biso   1.000  C
  C126     1.0000 0.44623  0.12287  0.67138  Biso   1.000  C
  C127     1.0000 0.54380  0.88710  0.50471  Biso   1.000  C
  C128     1.0000 0.11290  0.65670  0.50471  Biso   1.000  C
  C129     1.0000 0.34330  0.45620  0.50471  Biso   1.000  C
  C130     1.0000 0.65670  0.11290  0.99529  Biso   1.000  C
  C131     1.0000 0.45620  0.34330  0.99529  Biso   1.000  C
  C132     1.0000 0.88710  0.54380  0.99529  Biso   1.000  C
  C133     1.0000 0.21047  0.22043  0.83804  Biso   1.000  C
  C134     1.0000 0.77957  0.99003  0.83804  Biso   1.000  C
  C135     1.0000 0.00997  0.78953  0.83804  Biso   1.000  C
  C136     1.0000 0.32337  0.44623  0.32862  Biso   1.000  C
  C137     1.0000 0.12287  0.67663  0.32862  Biso   1.000  C
  C138     1.0000 0.55377  0.87713  0.32862  Biso   1.000  C
  C139     1.0000 0.87713  0.55377  0.17138  Biso   1.000  C
  C140     1.0000 0.44623  0.32337  0.17138  Biso   1.000  C
  C141     1.0000 0.67663  0.12287  0.17138  Biso   1.000  C
  C142     1.0000 0.99003  0.77957  0.66196  Biso   1.000  C
  C143     1.0000 0.78953  0.00997  0.66196  Biso   1.000  C
  C144     1.0000 0.22043  0.21047  0.66196  Biso   1.000  C
  H109     1.0000 0.52110  0.13120  0.50460  Biso   1.000  H
  H110     1.0000 0.86880  0.38990  0.50460  Biso   1.000  H
  H111     1.0000 0.61010  0.47890  0.50460  Biso   1.000  H
  H112     1.0000 0.38990  0.86880  0.99540  Biso   1.000  H
  H113     1.0000 0.47890  0.61010  0.99540  Biso   1.000  H
  H114     1.0000 0.13120  0.52110  0.99540  Biso   1.000  H
  H115     1.0000 0.18777  0.46453  0.83793  Biso   1.000  H
  H116     1.0000 0.53547  0.72323  0.83793  Biso   1.000  H
  H117     1.0000 0.27677  0.81223  0.83793  Biso   1.000  H
  H118     1.0000 0.05657  0.20213  0.32873  Biso   1.000  H
  H119     1.0000 0.14557  0.94343  0.32873  Biso   1.000  H
  H120     1.0000 0.79787  0.85443  0.32873  Biso   1.000  H
  H121     1.0000 0.85443  0.79787  0.17127  Biso   1.000  H
  H122     1.0000 0.20213  0.05657  0.17127  Biso   1.000  H
  H123     1.0000 0.94343  0.14557  0.17127  Biso   1.000  H
  H124     1.0000 0.72323  0.53547  0.66207  Biso   1.000  H
  H125     1.0000 0.81223  0.27677  0.66207  Biso   1.000  H
  H126     1.0000 0.46453  0.18777  0.66207  Biso   1.000  H
  H127     1.0000 0.47890  0.86880  0.49540  Biso   1.000  H
  H128     1.0000 0.13120  0.61010  0.49540  Biso   1.000  H
  H129     1.0000 0.38990  0.52110  0.49540  Biso   1.000  H
  H130     1.0000 0.61010  0.13120  0.00460  Biso   1.000  H
  H131     1.0000 0.52110  0.38990  0.00460  Biso   1.000  H
  H132     1.0000 0.86880  0.47890  0.00460  Biso   1.000  H
  H133     1.0000 0.14557  0.20213  0.82873  Biso   1.000  H
  H134     1.0000 0.79787  0.94343  0.82873  Biso   1.000  H
  H135     1.0000 0.05657  0.85443  0.82873  Biso   1.000  H
  H136     1.0000 0.27677  0.46453  0.33793  Biso   1.000  H
  H137     1.0000 0.18777  0.72323  0.33793  Biso   1.000  H
  H138     1.0000 0.53547  0.81223  0.33793  Biso   1.000  H
  H139     1.0000 0.81223  0.53547  0.16207  Biso   1.000  H
  H140     1.0000 0.46453  0.27677  0.16207  Biso   1.000  H
  H141     1.0000 0.72323  0.18777  0.16207  Biso   1.000  H
  H142     1.0000 0.94343  0.79787  0.67127  Biso   1.000  H
  H143     1.0000 0.85443  0.05657  0.67127  Biso   1.000  H
  H144     1.0000 0.20213  0.14557  0.67127  Biso   1.000  H
  C145     1.0000 0.35900  0.01880  0.50150  Biso   1.000  C
  C146     1.0000 0.98120  0.34020  0.50150  Biso   1.000  C
  C147     1.0000 0.65980  0.64100  0.50150  Biso   1.000  C
  C148     1.0000 0.34020  0.98120  0.99850  Biso   1.000  C
  C149     1.0000 0.64100  0.65980  0.99850  Biso   1.000  C
  C150     1.0000 0.01880  0.35900  0.99850  Biso   1.000  C
  C151     1.0000 0.02567  0.35213  0.83483  Biso   1.000  C
  C152     1.0000 0.64787  0.67353  0.83483  Biso   1.000  C
  C153     1.0000 0.32647  0.97433  0.83483  Biso   1.000  C
  C154     1.0000 0.00687  0.31453  0.33183  Biso   1.000  C
  C155     1.0000 0.30767  0.99313  0.33183  Biso   1.000  C
  C156     1.0000 0.68547  0.69233  0.33183  Biso   1.000  C
  C157     1.0000 0.69233  0.68547  0.16817  Biso   1.000  C
  C158     1.0000 0.31453  0.00687  0.16817  Biso   1.000  C
  C159     1.0000 0.99313  0.30767  0.16817  Biso   1.000  C
  C160     1.0000 0.67353  0.64787  0.66517  Biso   1.000  C
  C161     1.0000 0.97433  0.32647  0.66517  Biso   1.000  C
  C162     1.0000 0.35213  0.02567  0.66517  Biso   1.000  C
  C163     1.0000 0.64100  0.98120  0.49850  Biso   1.000  C
  C164     1.0000 0.01880  0.65980  0.49850  Biso   1.000  C
  C165     1.0000 0.34020  0.35900  0.49850  Biso   1.000  C
  C166     1.0000 0.65980  0.01880  0.00150  Biso   1.000  C
  C167     1.0000 0.35900  0.34020  0.00150  Biso   1.000  C
  C168     1.0000 0.98120  0.64100  0.00150  Biso   1.000  C
  C169     1.0000 0.30767  0.31453  0.83183  Biso   1.000  C
  C170     1.0000 0.68547  0.99313  0.83183  Biso   1.000  C
  C171     1.0000 0.00687  0.69233  0.83183  Biso   1.000  C
  C172     1.0000 0.32647  0.35213  0.33483  Biso   1.000  C
  C173     1.0000 0.02567  0.67353  0.33483  Biso   1.000  C
  C174     1.0000 0.64787  0.97433  0.33483  Biso   1.000  C
  C175     1.0000 0.97433  0.64787  0.16517  Biso   1.000  C
  C176     1.0000 0.35213  0.32647  0.16517  Biso   1.000  C
  C177     1.0000 0.67353  0.02567  0.16517  Biso   1.000  C
  C178     1.0000 0.99313  0.68547  0.66817  Biso   1.000  C
  C179     1.0000 0.69233  0.00687  0.66817  Biso   1.000  C
  C180     1.0000 0.31453  0.30767  0.66817  Biso   1.000  C
  H145     1.0000 0.35780  0.97090  0.51490  Biso   1.000  H
  H146     1.0000 0.02910  0.38690  0.51490  Biso   1.000  H
  H147     1.0000 0.61310  0.64220  0.51490  Biso   1.000  H
  H148     1.0000 0.38690  0.02910  0.98510  Biso   1.000  H
  H149     1.0000 0.64220  0.61310  0.98510  Biso   1.000  H
  H150     1.0000 0.97090  0.35780  0.98510  Biso   1.000  H
  H151     1.0000 0.02447  0.30423  0.84823  Biso   1.000  H
  H152     1.0000 0.69577  0.72023  0.84823  Biso   1.000  H
  H153     1.0000 0.27977  0.97553  0.84823  Biso   1.000  H
  H154     1.0000 0.05357  0.36243  0.31843  Biso   1.000  H
  H155     1.0000 0.30887  0.94643  0.31843  Biso   1.000  H
  H156     1.0000 0.63757  0.69113  0.31843  Biso   1.000  H
  H157     1.0000 0.69113  0.63757  0.18157  Biso   1.000  H
  H158     1.0000 0.36243  0.05357  0.18157  Biso   1.000  H
  H159     1.0000 0.94643  0.30887  0.18157  Biso   1.000  H
  H160     1.0000 0.72023  0.69577  0.65177  Biso   1.000  H
  H161     1.0000 0.97553  0.27977  0.65177  Biso   1.000  H
  H162     1.0000 0.30423  0.02447  0.65177  Biso   1.000  H
  H163     1.0000 0.64220  0.02910  0.48510  Biso   1.000  H
  H164     1.0000 0.97090  0.61310  0.48510  Biso   1.000  H
  H165     1.0000 0.38690  0.35780  0.48510  Biso   1.000  H
  H166     1.0000 0.61310  0.97090  0.01490  Biso   1.000  H
  H167     1.0000 0.35780  0.38690  0.01490  Biso   1.000  H
  H168     1.0000 0.02910  0.64220  0.01490  Biso   1.000  H
  H169     1.0000 0.30887  0.36243  0.81843  Biso   1.000  H
  H170     1.0000 0.63757  0.94643  0.81843  Biso   1.000  H
  H171     1.0000 0.05357  0.69113  0.81843  Biso   1.000  H
  H172     1.0000 0.27977  0.30423  0.34823  Biso   1.000  H
  H173     1.0000 0.02447  0.72023  0.34823  Biso   1.000  H
  H174     1.0000 0.69577  0.97553  0.34823  Biso   1.000  H
  H175     1.0000 0.97553  0.69577  0.15177  Biso   1.000  H
  H176     1.0000 0.30423  0.27977  0.15177  Biso   1.000  H
  H177     1.0000 0.72023  0.02447  0.15177  Biso   1.000  H
  H178     1.0000 0.94643  0.63757  0.68157  Biso   1.000  H
  H179     1.0000 0.69113  0.05357  0.68157  Biso   1.000  H
  H180     1.0000 0.36243  0.30887  0.68157  Biso   1.000  H
  O1       1.0000 0.66670  0.33330  0.51027  Biso   1.000  O
  O2       1.0000 0.33340  0.66670  0.98973  Biso   1.000  O
  O3       1.0000 0.33337  0.66663  0.84360  Biso   1.000  O
  O4       1.0000 0.00007  0.00003  0.32306  Biso   1.000  O
  O5       1.0000 0.00003  0.99997  0.17694  Biso   1.000  O
  O6       1.0000 0.66673  0.33337  0.65640  Biso   1.000  O
  O7       1.0000 0.33330  0.66670  0.48973  Biso   1.000  O
  O8       1.0000 0.66660  0.33330  0.01027  Biso   1.000  O
  O9       1.0000 0.99997  0.00003  0.82306  Biso   1.000  O
  O10      1.0000 0.33327  0.66663  0.34360  Biso   1.000  O
  O11      1.0000 0.66663  0.33337  0.15640  Biso   1.000  O
  O12      1.0000 0.99993  0.99997  0.67694  Biso   1.000  O
  N73      1.0000 0.72950  0.39620  0.58330  Biso   1.000  N
  N74      1.0000 0.60380  0.33330  0.58330  Biso   1.000  N
  N75      1.0000 0.66670  0.27050  0.58330  Biso   1.000  N
  N76      1.0000 0.33330  0.60380  0.91670  Biso   1.000  N
  N77      1.0000 0.27050  0.66670  0.91670  Biso   1.000  N
  N78      1.0000 0.39620  0.72950  0.91670  Biso   1.000  N
  N79      1.0000 0.99997  0.93713  0.25003  Biso   1.000  N
  N80      1.0000 0.93717  0.00003  0.25003  Biso   1.000  N
  N81      1.0000 0.06287  0.06283  0.25003  Biso   1.000  N
  N82      1.0000 0.27050  0.60380  0.41670  Biso   1.000  N
  N83      1.0000 0.39620  0.66670  0.41670  Biso   1.000  N
  N84      1.0000 0.33330  0.72950  0.41670  Biso   1.000  N
  N85      1.0000 0.66670  0.39620  0.08330  Biso   1.000  N
  N86      1.0000 0.72950  0.33330  0.08330  Biso   1.000  N
  N87      1.0000 0.60380  0.27050  0.08330  Biso   1.000  N
  N88      1.0000 0.93717  0.93713  0.75003  Biso   1.000  N
  N89      1.0000 0.06287  0.00003  0.75003  Biso   1.000  N
  N90      1.0000 0.99997  0.06283  0.75003  Biso   1.000  N
  C181     1.0000 0.80600  0.44200  0.60510  Biso   1.000  C
  C182     1.0000 0.55800  0.36400  0.60510  Biso   1.000  C
  C183     1.0000 0.63600  0.19400  0.60510  Biso   1.000  C
  C184     1.0000 0.36400  0.55800  0.89490  Biso   1.000  C
  C185     1.0000 0.19400  0.63600  0.89490  Biso   1.000  C
  C186     1.0000 0.44200  0.80600  0.89490  Biso   1.000  C
  C187     1.0000 0.47267  0.77533  0.93843  Biso   1.000  C
  C188     1.0000 0.22467  0.69733  0.93843  Biso   1.000  C
  C189     1.0000 0.30267  0.52733  0.93843  Biso   1.000  C
  C190     1.0000 0.03067  0.89133  0.22823  Biso   1.000  C
  C191     1.0000 0.86067  0.96933  0.22823  Biso   1.000  C
  C192     1.0000 0.10867  0.13933  0.22823  Biso   1.000  C
  C193     1.0000 0.13933  0.10867  0.27177  Biso   1.000  C
  C194     1.0000 0.89133  0.03067  0.27177  Biso   1.000  C
  C195     1.0000 0.96933  0.86067  0.27177  Biso   1.000  C
  C196     1.0000 0.69733  0.22467  0.56157  Biso   1.000  C
  C197     1.0000 0.52733  0.30267  0.56157  Biso   1.000  C
  C198     1.0000 0.77533  0.47267  0.56157  Biso   1.000  C
  C199     1.0000 0.19400  0.55800  0.39490  Biso   1.000  C
  C200     1.0000 0.44200  0.63600  0.39490  Biso   1.000  C
  C201     1.0000 0.36400  0.80600  0.39490  Biso   1.000  C
  C202     1.0000 0.63600  0.44200  0.10510  Biso   1.000  C
  C203     1.0000 0.80600  0.36400  0.10510  Biso   1.000  C
  C204     1.0000 0.55800  0.19400  0.10510  Biso   1.000  C
  C205     1.0000 0.86067  0.89133  0.72823  Biso   1.000  C
  C206     1.0000 0.10867  0.96933  0.72823  Biso   1.000  C
  C207     1.0000 0.03067  0.13933  0.72823  Biso   1.000  C
  C208     1.0000 0.30267  0.77533  0.43843  Biso   1.000  C
  C209     1.0000 0.47267  0.69733  0.43843  Biso   1.000  C
  C210     1.0000 0.22467  0.52733  0.43843  Biso   1.000  C
  C211     1.0000 0.52733  0.22467  0.06157  Biso   1.000  C
  C212     1.0000 0.77533  0.30267  0.06157  Biso   1.000  C
  C213     1.0000 0.69733  0.47267  0.06157  Biso   1.000  C
  C214     1.0000 0.96933  0.10867  0.77177  Biso   1.000  C
  C215     1.0000 0.13933  0.03067  0.77177  Biso   1.000  C
  C216     1.0000 0.89133  0.86067  0.77177  Biso   1.000  C
  C217     1.0000 0.71900  0.29100  0.57460  Biso   1.000  C
  C218     1.0000 0.70900  0.42800  0.57460  Biso   1.000  C
  C219     1.0000 0.57200  0.28100  0.57460  Biso   1.000  C
  C220     1.0000 0.42800  0.70900  0.92540  Biso   1.000  C
  C221     1.0000 0.28100  0.57200  0.92540  Biso   1.000  C
  C222     1.0000 0.29100  0.71900  0.92540  Biso   1.000  C
  C223     1.0000 0.38567  0.62433  0.90793  Biso   1.000  C
  C224     1.0000 0.37567  0.76133  0.90793  Biso   1.000  C
  C225     1.0000 0.23867  0.61433  0.90793  Biso   1.000  C
  C226     1.0000 0.09467  0.04233  0.25873  Biso   1.000  C
  C227     1.0000 0.94767  0.90533  0.25873  Biso   1.000  C
  C228     1.0000 0.95767  0.05233  0.25873  Biso   1.000  C
  C229     1.0000 0.05233  0.95767  0.24127  Biso   1.000  C
  C230     1.0000 0.04233  0.09467  0.24127  Biso   1.000  C
  C231     1.0000 0.90533  0.94767  0.24127  Biso   1.000  C
  C232     1.0000 0.76133  0.37567  0.59207  Biso   1.000  C
  C233     1.0000 0.61433  0.23867  0.59207  Biso   1.000  C
  C234     1.0000 0.62433  0.38567  0.59207  Biso   1.000  C
  C235     1.0000 0.28100  0.70900  0.42540  Biso   1.000  C
  C236     1.0000 0.29100  0.57200  0.42540  Biso   1.000  C
  C237     1.0000 0.42800  0.71900  0.42540  Biso   1.000  C
  C238     1.0000 0.57200  0.29100  0.07460  Biso   1.000  C
  C239     1.0000 0.71900  0.42800  0.07460  Biso   1.000  C
  C240     1.0000 0.70900  0.28100  0.07460  Biso   1.000  C
  C241     1.0000 0.94767  0.04233  0.75873  Biso   1.000  C
  C242     1.0000 0.95767  0.90533  0.75873  Biso   1.000  C
  C243     1.0000 0.09467  0.05233  0.75873  Biso   1.000  C
  C244     1.0000 0.23867  0.62433  0.40793  Biso   1.000  C
  C245     1.0000 0.38567  0.76133  0.40793  Biso   1.000  C
  C246     1.0000 0.37567  0.61433  0.40793  Biso   1.000  C
  C247     1.0000 0.61433  0.37567  0.09207  Biso   1.000  C
  C248     1.0000 0.62433  0.23867  0.09207  Biso   1.000  C
  C249     1.0000 0.76133  0.38567  0.09207  Biso   1.000  C
  C250     1.0000 0.90533  0.95767  0.74127  Biso   1.000  C
  C251     1.0000 0.05233  0.09467  0.74127  Biso   1.000  C
  C252     1.0000 0.04233  0.94767  0.74127  Biso   1.000  C
  C253     1.0000 0.84400  0.54500  0.61520  Biso   1.000  C
  C254     1.0000 0.45500  0.29900  0.61520  Biso   1.000  C
  C255     1.0000 0.70100  0.15600  0.61520  Biso   1.000  C
  C256     1.0000 0.29900  0.45500  0.88480  Biso   1.000  C
  C257     1.0000 0.15600  0.70100  0.88480  Biso   1.000  C
  C258     1.0000 0.54500  0.84400  0.88480  Biso   1.000  C
  C259     1.0000 0.51067  0.87833  0.94853  Biso   1.000  C
  C260     1.0000 0.12167  0.63233  0.94853  Biso   1.000  C
  C261     1.0000 0.36767  0.48933  0.94853  Biso   1.000  C
  C262     1.0000 0.96567  0.78833  0.21813  Biso   1.000  C
  C263     1.0000 0.82267  0.03433  0.21813  Biso   1.000  C
  C264     1.0000 0.21167  0.17733  0.21813  Biso   1.000  C
  C265     1.0000 0.17733  0.21167  0.28187  Biso   1.000  C
  C266     1.0000 0.78833  0.96567  0.28187  Biso   1.000  C
  C267     1.0000 0.03433  0.82267  0.28187  Biso   1.000  C
  C268     1.0000 0.63233  0.12167  0.55147  Biso   1.000  C
  C269     1.0000 0.48933  0.36767  0.55147  Biso   1.000  C
  C270     1.0000 0.87833  0.51067  0.55147  Biso   1.000  C
  C271     1.0000 0.15600  0.45500  0.38480  Biso   1.000  C
  C272     1.0000 0.54500  0.70100  0.38480  Biso   1.000  C
  C273     1.0000 0.29900  0.84400  0.38480  Biso   1.000  C
  C274     1.0000 0.70100  0.54500  0.11520  Biso   1.000  C
  C275     1.0000 0.84400  0.29900  0.11520  Biso   1.000  C
  C276     1.0000 0.45500  0.15600  0.11520  Biso   1.000  C
  C277     1.0000 0.82267  0.78833  0.71813  Biso   1.000  C
  C278     1.0000 0.21167  0.03433  0.71813  Biso   1.000  C
  C279     1.0000 0.96567  0.17733  0.71813  Biso   1.000  C
  C280     1.0000 0.36767  0.87833  0.44853  Biso   1.000  C
  C281     1.0000 0.51067  0.63233  0.44853  Biso   1.000  C
  C282     1.0000 0.12167  0.48933  0.44853  Biso   1.000  C
  C283     1.0000 0.48933  0.12167  0.05147  Biso   1.000  C
  C284     1.0000 0.87833  0.36767  0.05147  Biso   1.000  C
  C285     1.0000 0.63233  0.51067  0.05147  Biso   1.000  C
  C286     1.0000 0.03433  0.21167  0.78187  Biso   1.000  C
  C287     1.0000 0.17733  0.96567  0.78187  Biso   1.000  C
  C288     1.0000 0.78833  0.82267  0.78187  Biso   1.000  C
  C289     1.0000 0.66670  0.19300  0.58330  Biso   1.000  C
  C290     1.0000 0.80700  0.47370  0.58330  Biso   1.000  C
  C291     1.0000 0.52630  0.33330  0.58330  Biso   1.000  C
  C292     1.0000 0.47370  0.80700  0.91670  Biso   1.000  C
  C293     1.0000 0.33330  0.52630  0.91670  Biso   1.000  C
  C294     1.0000 0.19300  0.66670  0.91670  Biso   1.000  C
  C295     1.0000 0.14037  0.14033  0.25003  Biso   1.000  C
  C296     1.0000 0.99997  0.85963  0.25003  Biso   1.000  C
  C297     1.0000 0.85967  0.00003  0.25003  Biso   1.000  C
  C298     1.0000 0.33330  0.80700  0.41670  Biso   1.000  C
  C299     1.0000 0.19300  0.52630  0.41670  Biso   1.000  C
  C300     1.0000 0.47370  0.66670  0.41670  Biso   1.000  C
  C301     1.0000 0.52630  0.19300  0.08330  Biso   1.000  C
  C302     1.0000 0.66670  0.47370  0.08330  Biso   1.000  C
  C303     1.0000 0.80700  0.33330  0.08330  Biso   1.000  C
  C304     1.0000 0.99997  0.14033  0.75003  Biso   1.000  C
  C305     1.0000 0.85967  0.85963  0.75003  Biso   1.000  C
  C306     1.0000 0.14037  0.00003  0.75003  Biso   1.000  C
