data_image0
_cell_length_a       51.552
_cell_length_b       14.1894
_cell_length_c       34.4299
_cell_angle_alpha    90
_cell_angle_beta     130.98
_cell_angle_gamma    90

_symmetry_space_group_name_H-M    "P 1"
_symmetry_int_tables_number       1

loop_
  _symmetry_equiv_pos_as_xyz
  'x, y, z'

loop_
  _atom_site_label
  _atom_site_occupancy
  _atom_site_fract_x
  _atom_site_fract_y
  _atom_site_fract_z
  _atom_site_thermal_displace_type
  _atom_site_B_iso_or_equiv
  _atom_site_type_symbol
  W1       1.0000 0.09818  0.56191  0.75741  Biso   1.000  W
  W2       1.0000 0.59818  0.06191  0.75741  Biso   1.000  W
  W3       1.0000 0.09818  0.43809  0.25741  Biso   1.000  W
  W4       1.0000 0.59818  0.93809  0.25741  Biso   1.000  W
  W5       1.0000 0.90182  0.43809  0.24259  Biso   1.000  W
  W6       1.0000 0.40182  0.93809  0.24259  Biso   1.000  W
  W7       1.0000 0.90182  0.56191  0.74259  Biso   1.000  W
  W8       1.0000 0.40182  0.06191  0.74259  Biso   1.000  W
  Cu1      1.0000 0.86290  0.08683  0.11473  Biso   1.000  Cu
  Cu2      1.0000 0.36290  0.58683  0.11473  Biso   1.000  Cu
  Cu3      1.0000 0.86290  0.91317  0.61473  Biso   1.000  Cu
  Cu4      1.0000 0.36290  0.41317  0.61473  Biso   1.000  Cu
  Cu5      1.0000 0.13710  0.91317  0.88527  Biso   1.000  Cu
  Cu6      1.0000 0.63710  0.41317  0.88527  Biso   1.000  Cu
  Cu7      1.0000 0.13710  0.08683  0.38527  Biso   1.000  Cu
  Cu8      1.0000 0.63710  0.58683  0.38527  Biso   1.000  Cu
  P1       1.0000 0.15869  0.42040  0.76470  Biso   1.000  P
  P2       1.0000 0.65869  0.92040  0.76470  Biso   1.000  P
  P3       1.0000 0.15869  0.57960  0.26470  Biso   1.000  P
  P4       1.0000 0.65869  0.07960  0.26470  Biso   1.000  P
  P5       1.0000 0.84131  0.57960  0.23530  Biso   1.000  P
  P6       1.0000 0.34131  0.07960  0.23530  Biso   1.000  P
  P7       1.0000 0.84131  0.42040  0.73530  Biso   1.000  P
  P8       1.0000 0.34131  0.92040  0.73530  Biso   1.000  P
  O1       1.0000 0.06700  0.60850  0.75480  Biso   1.000  O
  O2       1.0000 0.56700  0.10850  0.75480  Biso   1.000  O
  O3       1.0000 0.06700  0.39150  0.25480  Biso   1.000  O
  O4       1.0000 0.56700  0.89150  0.25480  Biso   1.000  O
  O5       1.0000 0.93300  0.39150  0.24520  Biso   1.000  O
  O6       1.0000 0.43300  0.89150  0.24520  Biso   1.000  O
  O7       1.0000 0.93300  0.60850  0.74520  Biso   1.000  O
  O8       1.0000 0.43300  0.10850  0.74520  Biso   1.000  O
  N1       1.0000 0.84910  0.08350  0.15580  Biso   1.000  N
  N2       1.0000 0.34910  0.58350  0.15580  Biso   1.000  N
  N3       1.0000 0.84910  0.91650  0.65580  Biso   1.000  N
  N4       1.0000 0.34910  0.41650  0.65580  Biso   1.000  N
  N5       1.0000 0.15090  0.91650  0.84420  Biso   1.000  N
  N6       1.0000 0.65090  0.41650  0.84420  Biso   1.000  N
  N7       1.0000 0.15090  0.08350  0.34420  Biso   1.000  N
  N8       1.0000 0.65090  0.58350  0.34420  Biso   1.000  N
  C1       1.0000 0.84320  0.07630  0.18200  Biso   1.000  C
  C2       1.0000 0.34320  0.57630  0.18200  Biso   1.000  C
  C3       1.0000 0.84320  0.92370  0.68200  Biso   1.000  C
  C4       1.0000 0.34320  0.42370  0.68200  Biso   1.000  C
  C5       1.0000 0.15680  0.92370  0.81800  Biso   1.000  C
  C6       1.0000 0.65680  0.42370  0.81800  Biso   1.000  C
  C7       1.0000 0.15680  0.07630  0.31800  Biso   1.000  C
  C8       1.0000 0.65680  0.57630  0.31800  Biso   1.000  C
  W9       1.0000 0.17937  0.64687  0.82233  Biso   1.000  W
  W10      1.0000 0.67937  0.14687  0.82233  Biso   1.000  W
  W11      1.0000 0.17937  0.35313  0.32233  Biso   1.000  W
  W12      1.0000 0.67937  0.85313  0.32233  Biso   1.000  W
  W13      1.0000 0.82063  0.35313  0.17767  Biso   1.000  W
  W14      1.0000 0.32063  0.85313  0.17767  Biso   1.000  W
  W15      1.0000 0.82063  0.64687  0.67767  Biso   1.000  W
  W16      1.0000 0.32063  0.14687  0.67767  Biso   1.000  W
  Cu9      1.0000 0.92347  0.75449  0.01738  Biso   1.000  Cu
  Cu10     1.0000 0.42347  0.25449  0.01738  Biso   1.000  Cu
  Cu11     1.0000 0.92347  0.24551  0.51738  Biso   1.000  Cu
  Cu12     1.0000 0.42347  0.74551  0.51738  Biso   1.000  Cu
  Cu13     1.0000 0.07653  0.24551  0.98262  Biso   1.000  Cu
  Cu14     1.0000 0.57653  0.74551  0.98262  Biso   1.000  Cu
  Cu15     1.0000 0.07653  0.75449  0.48262  Biso   1.000  Cu
  Cu16     1.0000 0.57653  0.25449  0.48262  Biso   1.000  Cu
  O9       1.0000 0.09270  0.63100  0.70420  Biso   1.000  O
  O10      1.0000 0.59270  0.13100  0.70420  Biso   1.000  O
  O11      1.0000 0.09270  0.36900  0.20420  Biso   1.000  O
  O12      1.0000 0.59270  0.86900  0.20420  Biso   1.000  O
  O13      1.0000 0.90730  0.36900  0.29580  Biso   1.000  O
  O14      1.0000 0.40730  0.86900  0.29580  Biso   1.000  O
  O15      1.0000 0.90730  0.63100  0.79580  Biso   1.000  O
  O16      1.0000 0.40730  0.13100  0.79580  Biso   1.000  O
  N9       1.0000 0.87030  0.20800  0.09530  Biso   1.000  N
  N10      1.0000 0.37030  0.70800  0.09530  Biso   1.000  N
  N11      1.0000 0.87030  0.79200  0.59530  Biso   1.000  N
  N12      1.0000 0.37030  0.29200  0.59530  Biso   1.000  N
  N13      1.0000 0.12970  0.79200  0.90470  Biso   1.000  N
  N14      1.0000 0.62970  0.29200  0.90470  Biso   1.000  N
  N15      1.0000 0.12970  0.20800  0.40470  Biso   1.000  N
  N16      1.0000 0.62970  0.70800  0.40470  Biso   1.000  N
  C9       1.0000 0.83640  0.06810  0.21680  Biso   1.000  C
  C10      1.0000 0.33640  0.56810  0.21680  Biso   1.000  C
  C11      1.0000 0.83640  0.93190  0.71680  Biso   1.000  C
  C12      1.0000 0.33640  0.43190  0.71680  Biso   1.000  C
  C13      1.0000 0.16360  0.93190  0.78320  Biso   1.000  C
  C14      1.0000 0.66360  0.43190  0.78320  Biso   1.000  C
  C15      1.0000 0.16360  0.06810  0.28320  Biso   1.000  C
  C16      1.0000 0.66360  0.56810  0.28320  Biso   1.000  C
  H1       1.0000 0.84640  0.00940  0.23650  Biso   1.000  H
  H2       1.0000 0.34640  0.50940  0.23650  Biso   1.000  H
  H3       1.0000 0.84640  0.99060  0.73650  Biso   1.000  H
  H4       1.0000 0.34640  0.49060  0.73650  Biso   1.000  H
  H5       1.0000 0.15360  0.99060  0.76350  Biso   1.000  H
  H6       1.0000 0.65360  0.49060  0.76350  Biso   1.000  H
  H7       1.0000 0.15360  0.00940  0.26350  Biso   1.000  H
  H8       1.0000 0.65360  0.50940  0.26350  Biso   1.000  H
  H9       1.0000 0.81160  0.06760  0.19690  Biso   1.000  H
  H10      1.0000 0.31160  0.56760  0.19690  Biso   1.000  H
  H11      1.0000 0.81160  0.93240  0.69690  Biso   1.000  H
  H12      1.0000 0.31160  0.43240  0.69690  Biso   1.000  H
  H13      1.0000 0.18840  0.93240  0.80310  Biso   1.000  H
  H14      1.0000 0.68840  0.43240  0.80310  Biso   1.000  H
  H15      1.0000 0.18840  0.06760  0.30310  Biso   1.000  H
  H16      1.0000 0.68840  0.56760  0.30310  Biso   1.000  H
  H17      1.0000 0.84670  0.12180  0.24050  Biso   1.000  H
  H18      1.0000 0.34670  0.62180  0.24050  Biso   1.000  H
  H19      1.0000 0.84670  0.87820  0.74050  Biso   1.000  H
  H20      1.0000 0.34670  0.37820  0.74050  Biso   1.000  H
  H21      1.0000 0.15330  0.87820  0.75950  Biso   1.000  H
  H22      1.0000 0.65330  0.37820  0.75950  Biso   1.000  H
  H23      1.0000 0.15330  0.12180  0.25950  Biso   1.000  H
  H24      1.0000 0.65330  0.62180  0.25950  Biso   1.000  H
  W17      1.0000 0.13290  0.34004  0.83261  Biso   1.000  W
  W18      1.0000 0.63290  0.84004  0.83261  Biso   1.000  W
  W19      1.0000 0.13290  0.65996  0.33261  Biso   1.000  W
  W20      1.0000 0.63290  0.15996  0.33261  Biso   1.000  W
  W21      1.0000 0.86710  0.65996  0.16739  Biso   1.000  W
  W22      1.0000 0.36710  0.15996  0.16739  Biso   1.000  W
  W23      1.0000 0.86710  0.34004  0.66739  Biso   1.000  W
  W24      1.0000 0.36710  0.84004  0.66739  Biso   1.000  W
  Cu17     1.0000 0.71295  0.92950  0.60412  Biso   1.000  Cu
  Cu18     1.0000 0.21295  0.42950  0.60412  Biso   1.000  Cu
  Cu19     1.0000 0.71295  0.07050  0.10412  Biso   1.000  Cu
  Cu20     1.0000 0.21295  0.57050  0.10412  Biso   1.000  Cu
  Cu21     1.0000 0.28705  0.07050  0.39588  Biso   1.000  Cu
  Cu22     1.0000 0.78705  0.57050  0.39588  Biso   1.000  Cu
  Cu23     1.0000 0.28705  0.92950  0.89588  Biso   1.000  Cu
  Cu24     1.0000 0.78705  0.42950  0.89588  Biso   1.000  Cu
  O17      1.0000 0.07540  0.45800  0.70820  Biso   1.000  O
  O18      1.0000 0.57540  0.95800  0.70820  Biso   1.000  O
  O19      1.0000 0.07540  0.54200  0.20820  Biso   1.000  O
  O20      1.0000 0.57540  0.04200  0.20820  Biso   1.000  O
  O21      1.0000 0.92460  0.54200  0.29180  Biso   1.000  O
  O22      1.0000 0.42460  0.04200  0.29180  Biso   1.000  O
  O23      1.0000 0.92460  0.45800  0.79180  Biso   1.000  O
  O24      1.0000 0.42460  0.95800  0.79180  Biso   1.000  O
  N17      1.0000 0.83450  0.98990  0.05770  Biso   1.000  N
  N18      1.0000 0.33450  0.48990  0.05770  Biso   1.000  N
  N19      1.0000 0.83450  0.01010  0.55770  Biso   1.000  N
  N20      1.0000 0.33450  0.51010  0.55770  Biso   1.000  N
  N21      1.0000 0.16550  0.01010  0.94230  Biso   1.000  N
  N22      1.0000 0.66550  0.51010  0.94230  Biso   1.000  N
  N23      1.0000 0.16550  0.98990  0.44230  Biso   1.000  N
  N24      1.0000 0.66550  0.48990  0.44230  Biso   1.000  N
  C17      1.0000 0.85850  0.29110  0.09840  Biso   1.000  C
  C18      1.0000 0.35850  0.79110  0.09840  Biso   1.000  C
  C19      1.0000 0.85850  0.70890  0.59840  Biso   1.000  C
  C20      1.0000 0.35850  0.20890  0.59840  Biso   1.000  C
  C21      1.0000 0.14150  0.70890  0.90160  Biso   1.000  C
  C22      1.0000 0.64150  0.20890  0.90160  Biso   1.000  C
  C23      1.0000 0.14150  0.29110  0.40160  Biso   1.000  C
  C24      1.0000 0.64150  0.79110  0.40160  Biso   1.000  C
  H25      1.0000 0.84570  0.29050  0.10930  Biso   1.000  H
  H26      1.0000 0.34570  0.79050  0.10930  Biso   1.000  H
  H27      1.0000 0.84570  0.70950  0.60930  Biso   1.000  H
  H28      1.0000 0.34570  0.20950  0.60930  Biso   1.000  H
  H29      1.0000 0.15430  0.70950  0.89070  Biso   1.000  H
  H30      1.0000 0.65430  0.20950  0.89070  Biso   1.000  H
  H31      1.0000 0.15430  0.29050  0.39070  Biso   1.000  H
  H32      1.0000 0.65430  0.79050  0.39070  Biso   1.000  H
  W25      1.0000 0.07369  0.33154  0.69072  Biso   1.000  W
  W26      1.0000 0.57369  0.83154  0.69072  Biso   1.000  W
  W27      1.0000 0.07369  0.66846  0.19072  Biso   1.000  W
  W28      1.0000 0.57369  0.16846  0.19072  Biso   1.000  W
  W29      1.0000 0.92631  0.66846  0.30928  Biso   1.000  W
  W30      1.0000 0.42631  0.16846  0.30928  Biso   1.000  W
  W31      1.0000 0.92631  0.33154  0.80928  Biso   1.000  W
  W32      1.0000 0.42631  0.83154  0.80928  Biso   1.000  W
  O25      1.0000 0.11690  0.46680  0.80830  Biso   1.000  O
  O26      1.0000 0.61690  0.96680  0.80830  Biso   1.000  O
  O27      1.0000 0.11690  0.53320  0.30830  Biso   1.000  O
  O28      1.0000 0.61690  0.03320  0.30830  Biso   1.000  O
  O29      1.0000 0.88310  0.53320  0.19170  Biso   1.000  O
  O30      1.0000 0.38310  0.03320  0.19170  Biso   1.000  O
  O31      1.0000 0.88310  0.46680  0.69170  Biso   1.000  O
  O32      1.0000 0.38310  0.96680  0.69170  Biso   1.000  O
  N25      1.0000 0.58810  0.52030  0.32910  Biso   1.000  N
  N26      1.0000 0.08810  0.02030  0.32910  Biso   1.000  N
  N27      1.0000 0.58810  0.47970  0.82910  Biso   1.000  N
  N28      1.0000 0.08810  0.97970  0.82910  Biso   1.000  N
  N29      1.0000 0.41190  0.47970  0.67090  Biso   1.000  N
  N30      1.0000 0.91190  0.97970  0.67090  Biso   1.000  N
  N31      1.0000 0.41190  0.52030  0.17090  Biso   1.000  N
  N32      1.0000 0.91190  0.02030  0.17090  Biso   1.000  N
  C25      1.0000 0.86480  0.37800  0.08590  Biso   1.000  C
  C26      1.0000 0.36480  0.87800  0.08590  Biso   1.000  C
  C27      1.0000 0.86480  0.62200  0.58590  Biso   1.000  C
  C28      1.0000 0.36480  0.12200  0.58590  Biso   1.000  C
  C29      1.0000 0.13520  0.62200  0.91410  Biso   1.000  C
  C30      1.0000 0.63520  0.12200  0.91410  Biso   1.000  C
  C31      1.0000 0.13520  0.37800  0.41410  Biso   1.000  C
  C32      1.0000 0.63520  0.87800  0.41410  Biso   1.000  C
  H33      1.0000 0.85760  0.43530  0.09050  Biso   1.000  H
  H34      1.0000 0.35760  0.93530  0.09050  Biso   1.000  H
  H35      1.0000 0.85760  0.56470  0.59050  Biso   1.000  H
  H36      1.0000 0.35760  0.06470  0.59050  Biso   1.000  H
  H37      1.0000 0.14240  0.56470  0.90950  Biso   1.000  H
  H38      1.0000 0.64240  0.06470  0.90950  Biso   1.000  H
  H39      1.0000 0.14240  0.43530  0.40950  Biso   1.000  H
  H40      1.0000 0.64240  0.93530  0.40950  Biso   1.000  H
  W33      1.0000 0.12308  0.63291  0.69098  Biso   1.000  W
  W34      1.0000 0.62308  0.13291  0.69098  Biso   1.000  W
  W35      1.0000 0.12308  0.36709  0.19098  Biso   1.000  W
  W36      1.0000 0.62308  0.86709  0.19098  Biso   1.000  W
  W37      1.0000 0.87692  0.36709  0.30902  Biso   1.000  W
  W38      1.0000 0.37692  0.86709  0.30902  Biso   1.000  W
  W39      1.0000 0.87692  0.63291  0.80902  Biso   1.000  W
  W40      1.0000 0.37692  0.13291  0.80902  Biso   1.000  W
  O33      1.0000 0.13560  0.64240  0.80580  Biso   1.000  O
  O34      1.0000 0.63560  0.14240  0.80580  Biso   1.000  O
  O35      1.0000 0.13560  0.35760  0.30580  Biso   1.000  O
  O36      1.0000 0.63560  0.85760  0.30580  Biso   1.000  O
  O37      1.0000 0.86440  0.35760  0.19420  Biso   1.000  O
  O38      1.0000 0.36440  0.85760  0.19420  Biso   1.000  O
  O39      1.0000 0.86440  0.64240  0.69420  Biso   1.000  O
  O40      1.0000 0.36440  0.14240  0.69420  Biso   1.000  O
  N33      1.0000 0.54400  0.17610  0.48570  Biso   1.000  N
  N34      1.0000 0.04400  0.67610  0.48570  Biso   1.000  N
  N35      1.0000 0.54400  0.82390  0.98570  Biso   1.000  N
  N36      1.0000 0.04400  0.32390  0.98570  Biso   1.000  N
  N37      1.0000 0.45600  0.82390  0.51430  Biso   1.000  N
  N38      1.0000 0.95600  0.32390  0.51430  Biso   1.000  N
  N39      1.0000 0.45600  0.17610  0.01430  Biso   1.000  N
  N40      1.0000 0.95600  0.67610  0.01430  Biso   1.000  N
  C33      1.0000 0.88180  0.37900  0.06680  Biso   1.000  C
  C34      1.0000 0.38180  0.87900  0.06680  Biso   1.000  C
  C35      1.0000 0.88180  0.62100  0.56680  Biso   1.000  C
  C36      1.0000 0.38180  0.12100  0.56680  Biso   1.000  C
  C37      1.0000 0.11820  0.62100  0.93320  Biso   1.000  C
  C38      1.0000 0.61820  0.12100  0.93320  Biso   1.000  C
  C39      1.0000 0.11820  0.37900  0.43320  Biso   1.000  C
  C40      1.0000 0.61820  0.87900  0.43320  Biso   1.000  C
  W41      1.0000 0.21412  0.43044  0.90118  Biso   1.000  W
  W42      1.0000 0.71412  0.93044  0.90118  Biso   1.000  W
  W43      1.0000 0.21412  0.56956  0.40118  Biso   1.000  W
  W44      1.0000 0.71412  0.06956  0.40118  Biso   1.000  W
  W45      1.0000 0.78588  0.56956  0.09882  Biso   1.000  W
  W46      1.0000 0.28588  0.06956  0.09882  Biso   1.000  W
  W47      1.0000 0.78588  0.43044  0.59882  Biso   1.000  W
  W48      1.0000 0.28588  0.93044  0.59882  Biso   1.000  W
  O41      1.0000 0.14570  0.52090  0.76090  Biso   1.000  O
  O42      1.0000 0.64570  0.02090  0.76090  Biso   1.000  O
  O43      1.0000 0.14570  0.47910  0.26090  Biso   1.000  O
  O44      1.0000 0.64570  0.97910  0.26090  Biso   1.000  O
  O45      1.0000 0.85430  0.47910  0.23910  Biso   1.000  O
  O46      1.0000 0.35430  0.97910  0.23910  Biso   1.000  O
  O47      1.0000 0.85430  0.52090  0.73910  Biso   1.000  O
  O48      1.0000 0.35430  0.02090  0.73910  Biso   1.000  O
  N41      1.0000 0.90330  0.63670  0.02830  Biso   1.000  N
  N42      1.0000 0.40330  0.13670  0.02830  Biso   1.000  N
  N43      1.0000 0.90330  0.36330  0.52830  Biso   1.000  N
  N44      1.0000 0.40330  0.86330  0.52830  Biso   1.000  N
  N45      1.0000 0.09670  0.36330  0.97170  Biso   1.000  N
  N46      1.0000 0.59670  0.86330  0.97170  Biso   1.000  N
  N47      1.0000 0.09670  0.63670  0.47170  Biso   1.000  N
  N48      1.0000 0.59670  0.13670  0.47170  Biso   1.000  N
  C41      1.0000 0.89120  0.29380  0.06120  Biso   1.000  C
  C42      1.0000 0.39120  0.79380  0.06120  Biso   1.000  C
  C43      1.0000 0.89120  0.70620  0.56120  Biso   1.000  C
  C44      1.0000 0.39120  0.20620  0.56120  Biso   1.000  C
  C45      1.0000 0.10880  0.70620  0.93880  Biso   1.000  C
  C46      1.0000 0.60880  0.20620  0.93880  Biso   1.000  C
  C47      1.0000 0.10880  0.29380  0.43880  Biso   1.000  C
  C48      1.0000 0.60880  0.79380  0.43880  Biso   1.000  C
  H41      1.0000 0.90210  0.29120  0.04730  Biso   1.000  H
  H42      1.0000 0.40210  0.79120  0.04730  Biso   1.000  H
  H43      1.0000 0.90210  0.70880  0.54730  Biso   1.000  H
  H44      1.0000 0.40210  0.20880  0.54730  Biso   1.000  H
  H45      1.0000 0.09790  0.70880  0.95270  Biso   1.000  H
  H46      1.0000 0.59790  0.20880  0.95270  Biso   1.000  H
  H47      1.0000 0.09790  0.29120  0.45270  Biso   1.000  H
  H48      1.0000 0.59790  0.79120  0.45270  Biso   1.000  H
  W49      1.0000 0.10133  0.40009  0.62767  Biso   1.000  W
  W50      1.0000 0.60133  0.90009  0.62767  Biso   1.000  W
  W51      1.0000 0.10133  0.59991  0.12767  Biso   1.000  W
  W52      1.0000 0.60133  0.09991  0.12767  Biso   1.000  W
  W53      1.0000 0.89867  0.59991  0.37233  Biso   1.000  W
  W54      1.0000 0.39867  0.09991  0.37233  Biso   1.000  W
  W55      1.0000 0.89867  0.40009  0.87233  Biso   1.000  W
  W56      1.0000 0.39867  0.90009  0.87233  Biso   1.000  W
  O49      1.0000 0.19660  0.74310  0.85960  Biso   1.000  O
  O50      1.0000 0.69660  0.24310  0.85960  Biso   1.000  O
  O51      1.0000 0.19660  0.25690  0.35960  Biso   1.000  O
  O52      1.0000 0.69660  0.75690  0.35960  Biso   1.000  O
  O53      1.0000 0.80340  0.25690  0.14040  Biso   1.000  O
  O54      1.0000 0.30340  0.75690  0.14040  Biso   1.000  O
  O55      1.0000 0.80340  0.74310  0.64040  Biso   1.000  O
  O56      1.0000 0.30340  0.24310  0.64040  Biso   1.000  O
  N49      1.0000 0.88460  0.80040  0.94530  Biso   1.000  N
  N50      1.0000 0.38460  0.30040  0.94530  Biso   1.000  N
  N51      1.0000 0.88460  0.19960  0.44530  Biso   1.000  N
  N52      1.0000 0.38460  0.69960  0.44530  Biso   1.000  N
  N53      1.0000 0.11540  0.19960  0.05470  Biso   1.000  N
  N54      1.0000 0.61540  0.69960  0.05470  Biso   1.000  N
  N55      1.0000 0.11540  0.80040  0.55470  Biso   1.000  N
  N56      1.0000 0.61540  0.30040  0.55470  Biso   1.000  N
  C49      1.0000 0.88530  0.21240  0.07510  Biso   1.000  C
  C50      1.0000 0.38530  0.71240  0.07510  Biso   1.000  C
  C51      1.0000 0.88530  0.78760  0.57510  Biso   1.000  C
  C52      1.0000 0.38530  0.28760  0.57510  Biso   1.000  C
  C53      1.0000 0.11470  0.78760  0.92490  Biso   1.000  C
  C54      1.0000 0.61470  0.28760  0.92490  Biso   1.000  C
  C55      1.0000 0.11470  0.21240  0.42490  Biso   1.000  C
  C56      1.0000 0.61470  0.71240  0.42490  Biso   1.000  C
  H49      1.0000 0.89230  0.15500  0.07020  Biso   1.000  H
  H50      1.0000 0.39230  0.65500  0.07020  Biso   1.000  H
  H51      1.0000 0.89230  0.84500  0.57020  Biso   1.000  H
  H52      1.0000 0.39230  0.34500  0.57020  Biso   1.000  H
  H53      1.0000 0.10770  0.84500  0.92980  Biso   1.000  H
  H54      1.0000 0.60770  0.34500  0.92980  Biso   1.000  H
  H55      1.0000 0.10770  0.15500  0.42980  Biso   1.000  H
  H56      1.0000 0.60770  0.65500  0.42980  Biso   1.000  H
  W57      1.0000 0.24408  0.50507  0.83326  Biso   1.000  W
  W58      1.0000 0.74408  0.00507  0.83326  Biso   1.000  W
  W59      1.0000 0.24408  0.49493  0.33326  Biso   1.000  W
  W60      1.0000 0.74408  0.99493  0.33326  Biso   1.000  W
  W61      1.0000 0.75592  0.49493  0.16674  Biso   1.000  W
  W62      1.0000 0.25592  0.99493  0.16674  Biso   1.000  W
  W63      1.0000 0.75592  0.50507  0.66674  Biso   1.000  W
  W64      1.0000 0.25592  0.00507  0.66674  Biso   1.000  W
  O57      1.0000 0.15520  0.69820  0.75540  Biso   1.000  O
  O58      1.0000 0.65520  0.19820  0.75540  Biso   1.000  O
  O59      1.0000 0.15520  0.30180  0.25540  Biso   1.000  O
  O60      1.0000 0.65520  0.80180  0.25540  Biso   1.000  O
  O61      1.0000 0.84480  0.30180  0.24460  Biso   1.000  O
  O62      1.0000 0.34480  0.80180  0.24460  Biso   1.000  O
  O63      1.0000 0.84480  0.69820  0.74460  Biso   1.000  O
  O64      1.0000 0.34480  0.19820  0.74460  Biso   1.000  O
  N57      1.0000 0.75360  0.91510  0.68170  Biso   1.000  N
  N58      1.0000 0.25360  0.41510  0.68170  Biso   1.000  N
  N59      1.0000 0.75360  0.08490  0.18170  Biso   1.000  N
  N60      1.0000 0.25360  0.58490  0.18170  Biso   1.000  N
  N61      1.0000 0.24640  0.08490  0.31830  Biso   1.000  N
  N62      1.0000 0.74640  0.58490  0.31830  Biso   1.000  N
  N63      1.0000 0.24640  0.91510  0.81830  Biso   1.000  N
  N64      1.0000 0.74640  0.41510  0.81830  Biso   1.000  N
  C57      1.0000 0.83780  0.97930  0.02160  Biso   1.000  C
  C58      1.0000 0.33780  0.47930  0.02160  Biso   1.000  C
  C59      1.0000 0.83780  0.02070  0.52160  Biso   1.000  C
  C60      1.0000 0.33780  0.52070  0.52160  Biso   1.000  C
  C61      1.0000 0.16220  0.02070  0.97840  Biso   1.000  C
  C62      1.0000 0.66220  0.52070  0.97840  Biso   1.000  C
  C63      1.0000 0.16220  0.97930  0.47840  Biso   1.000  C
  C64      1.0000 0.66220  0.47930  0.47840  Biso   1.000  C
  H57      1.0000 0.84800  0.02850  0.01680  Biso   1.000  H
  H58      1.0000 0.34800  0.52850  0.01680  Biso   1.000  H
  H59      1.0000 0.84800  0.97150  0.51680  Biso   1.000  H
  H60      1.0000 0.34800  0.47150  0.51680  Biso   1.000  H
  H61      1.0000 0.15200  0.97150  0.98320  Biso   1.000  H
  H62      1.0000 0.65200  0.47150  0.98320  Biso   1.000  H
  H63      1.0000 0.15200  0.02850  0.48320  Biso   1.000  H
  H64      1.0000 0.65200  0.52850  0.48320  Biso   1.000  H
  W65      1.0000 0.19405  0.21469  0.84303  Biso   1.000  W
  W66      1.0000 0.69405  0.71469  0.84303  Biso   1.000  W
  W67      1.0000 0.19405  0.78531  0.34303  Biso   1.000  W
  W68      1.0000 0.69405  0.28531  0.34303  Biso   1.000  W
  W69      1.0000 0.80595  0.78531  0.15697  Biso   1.000  W
  W70      1.0000 0.30595  0.28531  0.15697  Biso   1.000  W
  W71      1.0000 0.80595  0.21469  0.65697  Biso   1.000  W
  W72      1.0000 0.30595  0.71469  0.65697  Biso   1.000  W
  O65      1.0000 0.19400  0.54920  0.87140  Biso   1.000  O
  O66      1.0000 0.69400  0.04920  0.87140  Biso   1.000  O
  O67      1.0000 0.19400  0.45080  0.37140  Biso   1.000  O
  O68      1.0000 0.69400  0.95080  0.37140  Biso   1.000  O
  O69      1.0000 0.80600  0.45080  0.12860  Biso   1.000  O
  O70      1.0000 0.30600  0.95080  0.12860  Biso   1.000  O
  O71      1.0000 0.80600  0.54920  0.62860  Biso   1.000  O
  O72      1.0000 0.30600  0.04920  0.62860  Biso   1.000  O
  N65      1.0000 0.70380  0.05600  0.57280  Biso   1.000  N
  N66      1.0000 0.20380  0.55600  0.57280  Biso   1.000  N
  N67      1.0000 0.70380  0.94400  0.07280  Biso   1.000  N
  N68      1.0000 0.20380  0.44400  0.07280  Biso   1.000  N
  N69      1.0000 0.29620  0.94400  0.42720  Biso   1.000  N
  N70      1.0000 0.79620  0.44400  0.42720  Biso   1.000  N
  N71      1.0000 0.29620  0.05600  0.92720  Biso   1.000  N
  N72      1.0000 0.79620  0.55600  0.92720  Biso   1.000  N
  C65      1.0000 0.82640  0.89670  0.99120  Biso   1.000  C
  C66      1.0000 0.32640  0.39670  0.99120  Biso   1.000  C
  C67      1.0000 0.82640  0.10330  0.49120  Biso   1.000  C
  C68      1.0000 0.32640  0.60330  0.49120  Biso   1.000  C
  C69      1.0000 0.17360  0.10330  0.00880  Biso   1.000  C
  C70      1.0000 0.67360  0.60330  0.00880  Biso   1.000  C
  C71      1.0000 0.17360  0.89670  0.50880  Biso   1.000  C
  C72      1.0000 0.67360  0.39670  0.50880  Biso   1.000  C
  H65      1.0000 0.82670  0.89350  0.96390  Biso   1.000  H
  H66      1.0000 0.32670  0.39350  0.96390  Biso   1.000  H
  H67      1.0000 0.82670  0.10650  0.46390  Biso   1.000  H
  H68      1.0000 0.32670  0.60650  0.46390  Biso   1.000  H
  H69      1.0000 0.17330  0.10650  0.03610  Biso   1.000  H
  H70      1.0000 0.67330  0.60650  0.03610  Biso   1.000  H
  H71      1.0000 0.17330  0.89350  0.53610  Biso   1.000  H
  H72      1.0000 0.67330  0.39350  0.53610  Biso   1.000  H
  W73      1.0000 0.13328  0.19857  0.70107  Biso   1.000  W
  W74      1.0000 0.63328  0.69857  0.70107  Biso   1.000  W
  W75      1.0000 0.13328  0.80143  0.20107  Biso   1.000  W
  W76      1.0000 0.63328  0.30143  0.20107  Biso   1.000  W
  W77      1.0000 0.86672  0.80143  0.29893  Biso   1.000  W
  W78      1.0000 0.36672  0.30143  0.29893  Biso   1.000  W
  W79      1.0000 0.86672  0.19857  0.79893  Biso   1.000  W
  W80      1.0000 0.36672  0.69857  0.79893  Biso   1.000  W
  O73      1.0000 0.21450  0.60190  0.82340  Biso   1.000  O
  O74      1.0000 0.71450  0.10190  0.82340  Biso   1.000  O
  O75      1.0000 0.21450  0.39810  0.32340  Biso   1.000  O
  O76      1.0000 0.71450  0.89810  0.32340  Biso   1.000  O
  O77      1.0000 0.78550  0.39810  0.17660  Biso   1.000  O
  O78      1.0000 0.28550  0.89810  0.17660  Biso   1.000  O
  O79      1.0000 0.78550  0.60190  0.67660  Biso   1.000  O
  O80      1.0000 0.28550  0.10190  0.67660  Biso   1.000  O
  N73      1.0000 0.72950  0.85490  0.57130  Biso   1.000  N
  N74      1.0000 0.22950  0.35490  0.57130  Biso   1.000  N
  N75      1.0000 0.72950  0.14510  0.07130  Biso   1.000  N
  N76      1.0000 0.22950  0.64510  0.07130  Biso   1.000  N
  N77      1.0000 0.27050  0.14510  0.42870  Biso   1.000  N
  N78      1.0000 0.77050  0.64510  0.42870  Biso   1.000  N
  N79      1.0000 0.27050  0.85490  0.92870  Biso   1.000  N
  N80      1.0000 0.77050  0.35490  0.92870  Biso   1.000  N
  C73      1.0000 0.81500  0.82170  0.00110  Biso   1.000  C
  C74      1.0000 0.31500  0.32170  0.00110  Biso   1.000  C
  C75      1.0000 0.81500  0.17830  0.50110  Biso   1.000  C
  C76      1.0000 0.31500  0.67830  0.50110  Biso   1.000  C
  C77      1.0000 0.18500  0.17830  0.99890  Biso   1.000  C
  C78      1.0000 0.68500  0.67830  0.99890  Biso   1.000  C
  C79      1.0000 0.18500  0.82170  0.49890  Biso   1.000  C
  C80      1.0000 0.68500  0.32170  0.49890  Biso   1.000  C
  W81      1.0000 0.18876  0.49671  0.70156  Biso   1.000  W
  W82      1.0000 0.68876  0.99671  0.70156  Biso   1.000  W
  W83      1.0000 0.18876  0.50329  0.20156  Biso   1.000  W
  W84      1.0000 0.68876  0.00329  0.20156  Biso   1.000  W
  W85      1.0000 0.81124  0.50329  0.29844  Biso   1.000  W
  W86      1.0000 0.31124  0.00329  0.29844  Biso   1.000  W
  W87      1.0000 0.81124  0.49671  0.79844  Biso   1.000  W
  W88      1.0000 0.31124  0.99671  0.79844  Biso   1.000  W
  O81      1.0000 0.11340  0.30870  0.85550  Biso   1.000  O
  O82      1.0000 0.61340  0.80870  0.85550  Biso   1.000  O
  O83      1.0000 0.11340  0.69130  0.35550  Biso   1.000  O
  O84      1.0000 0.61340  0.19130  0.35550  Biso   1.000  O
  O85      1.0000 0.88660  0.69130  0.14450  Biso   1.000  O
  O86      1.0000 0.38660  0.19130  0.14450  Biso   1.000  O
  O87      1.0000 0.88660  0.30870  0.64450  Biso   1.000  O
  O88      1.0000 0.38660  0.80870  0.64450  Biso   1.000  O
  N81      1.0000 0.68010  0.83920  0.59500  Biso   1.000  N
  N82      1.0000 0.18010  0.33920  0.59500  Biso   1.000  N
  N83      1.0000 0.68010  0.16080  0.09500  Biso   1.000  N
  N84      1.0000 0.18010  0.66080  0.09500  Biso   1.000  N
  N85      1.0000 0.31990  0.16080  0.40500  Biso   1.000  N
  N86      1.0000 0.81990  0.66080  0.40500  Biso   1.000  N
  N87      1.0000 0.31990  0.83920  0.90500  Biso   1.000  N
  N88      1.0000 0.81990  0.33920  0.90500  Biso   1.000  N
  C81      1.0000 0.81100  0.83560  0.03730  Biso   1.000  C
  C82      1.0000 0.31100  0.33560  0.03730  Biso   1.000  C
  C83      1.0000 0.81100  0.16440  0.53730  Biso   1.000  C
  C84      1.0000 0.31100  0.66440  0.53730  Biso   1.000  C
  C85      1.0000 0.18900  0.16440  0.96270  Biso   1.000  C
  C86      1.0000 0.68900  0.66440  0.96270  Biso   1.000  C
  C87      1.0000 0.18900  0.83560  0.46270  Biso   1.000  C
  C88      1.0000 0.68900  0.33560  0.46270  Biso   1.000  C
  H73      1.0000 0.80110  0.78760  0.04320  Biso   1.000  H
  H74      1.0000 0.30110  0.28760  0.04320  Biso   1.000  H
  H75      1.0000 0.80110  0.21240  0.54320  Biso   1.000  H
  H76      1.0000 0.30110  0.71240  0.54320  Biso   1.000  H
  H77      1.0000 0.19890  0.21240  0.95680  Biso   1.000  H
  H78      1.0000 0.69890  0.71240  0.95680  Biso   1.000  H
  H79      1.0000 0.19890  0.78760  0.45680  Biso   1.000  H
  H80      1.0000 0.69890  0.28760  0.45680  Biso   1.000  H
  W89      1.0000 0.22075  0.29280  0.77105  Biso   1.000  W
  W90      1.0000 0.72075  0.79280  0.77105  Biso   1.000  W
  W91      1.0000 0.22075  0.70720  0.27105  Biso   1.000  W
  W92      1.0000 0.72075  0.20720  0.27105  Biso   1.000  W
  W93      1.0000 0.77925  0.70720  0.22895  Biso   1.000  W
  W94      1.0000 0.27925  0.20720  0.22895  Biso   1.000  W
  W95      1.0000 0.77925  0.29280  0.72895  Biso   1.000  W
  W96      1.0000 0.27925  0.79280  0.72895  Biso   1.000  W
  O89      1.0000 0.17470  0.39550  0.89220  Biso   1.000  O
  O90      1.0000 0.67470  0.89550  0.89220  Biso   1.000  O
  O91      1.0000 0.17470  0.60450  0.39220  Biso   1.000  O
  O92      1.0000 0.67470  0.10450  0.39220  Biso   1.000  O
  O93      1.0000 0.82530  0.60450  0.10780  Biso   1.000  O
  O94      1.0000 0.32530  0.10450  0.10780  Biso   1.000  O
  O95      1.0000 0.82530  0.39550  0.60780  Biso   1.000  O
  O96      1.0000 0.32530  0.89550  0.60780  Biso   1.000  O
  C89      1.0000 0.82160  0.91960  0.06460  Biso   1.000  C
  C90      1.0000 0.32160  0.41960  0.06460  Biso   1.000  C
  C91      1.0000 0.82160  0.08040  0.56460  Biso   1.000  C
  C92      1.0000 0.32160  0.58040  0.56460  Biso   1.000  C
  C93      1.0000 0.17840  0.08040  0.93540  Biso   1.000  C
  C94      1.0000 0.67840  0.58040  0.93540  Biso   1.000  C
  C95      1.0000 0.17840  0.91960  0.43540  Biso   1.000  C
  C96      1.0000 0.67840  0.41960  0.43540  Biso   1.000  C
  H81      1.0000 0.81920  0.92630  0.08960  Biso   1.000  H
  H82      1.0000 0.31920  0.42630  0.08960  Biso   1.000  H
  H83      1.0000 0.81920  0.07370  0.58960  Biso   1.000  H
  H84      1.0000 0.31920  0.57370  0.58960  Biso   1.000  H
  H85      1.0000 0.18080  0.07370  0.91040  Biso   1.000  H
  H86      1.0000 0.68080  0.57370  0.91040  Biso   1.000  H
  H87      1.0000 0.18080  0.92630  0.41040  Biso   1.000  H
  H88      1.0000 0.68080  0.42630  0.41040  Biso   1.000  H
  O97      1.0000 0.15910  0.22840  0.84840  Biso   1.000  O
  O98      1.0000 0.65910  0.72840  0.84840  Biso   1.000  O
  O99      1.0000 0.15910  0.77160  0.34840  Biso   1.000  O
  O100     1.0000 0.65910  0.27160  0.34840  Biso   1.000  O
  O101     1.0000 0.84090  0.77160  0.15160  Biso   1.000  O
  O102     1.0000 0.34090  0.27160  0.15160  Biso   1.000  O
  O103     1.0000 0.84090  0.22840  0.65160  Biso   1.000  O
  O104     1.0000 0.34090  0.72840  0.65160  Biso   1.000  O
  C97      1.0000 0.58820  0.42890  0.31350  Biso   1.000  C
  C98      1.0000 0.08820  0.92890  0.31350  Biso   1.000  C
  C99      1.0000 0.58820  0.57110  0.81350  Biso   1.000  C
  C100     1.0000 0.08820  0.07110  0.81350  Biso   1.000  C
  C101     1.0000 0.41180  0.57110  0.68650  Biso   1.000  C
  C102     1.0000 0.91180  0.07110  0.68650  Biso   1.000  C
  C103     1.0000 0.41180  0.42890  0.18650  Biso   1.000  C
  C104     1.0000 0.91180  0.92890  0.18650  Biso   1.000  C
  H89      1.0000 0.60810  0.39080  0.33610  Biso   1.000  H
  H90      1.0000 0.10810  0.89080  0.33610  Biso   1.000  H
  H91      1.0000 0.60810  0.60920  0.83610  Biso   1.000  H
  H92      1.0000 0.10810  0.10920  0.83610  Biso   1.000  H
  H93      1.0000 0.39190  0.60920  0.66390  Biso   1.000  H
  H94      1.0000 0.89190  0.10920  0.66390  Biso   1.000  H
  H95      1.0000 0.39190  0.39080  0.16390  Biso   1.000  H
  H96      1.0000 0.89190  0.89080  0.16390  Biso   1.000  H
  O105     1.0000 0.10050  0.30460  0.76290  Biso   1.000  O
  O106     1.0000 0.60050  0.80460  0.76290  Biso   1.000  O
  O107     1.0000 0.10050  0.69540  0.26290  Biso   1.000  O
  O108     1.0000 0.60050  0.19540  0.26290  Biso   1.000  O
  O109     1.0000 0.89950  0.69540  0.23710  Biso   1.000  O
  O110     1.0000 0.39950  0.19540  0.23710  Biso   1.000  O
  O111     1.0000 0.89950  0.30460  0.73710  Biso   1.000  O
  O112     1.0000 0.39950  0.80460  0.73710  Biso   1.000  O
  C105     1.0000 0.56050  0.39300  0.26660  Biso   1.000  C
  C106     1.0000 0.06050  0.89300  0.26660  Biso   1.000  C
  C107     1.0000 0.56050  0.60700  0.76660  Biso   1.000  C
  C108     1.0000 0.06050  0.10700  0.76660  Biso   1.000  C
  C109     1.0000 0.43950  0.60700  0.73340  Biso   1.000  C
  C110     1.0000 0.93950  0.10700  0.73340  Biso   1.000  C
  C111     1.0000 0.43950  0.39300  0.23340  Biso   1.000  C
  C112     1.0000 0.93950  0.89300  0.23340  Biso   1.000  C
  H97      1.0000 0.56170  0.33070  0.25790  Biso   1.000  H
  H98      1.0000 0.06170  0.83070  0.25790  Biso   1.000  H
  H99      1.0000 0.56170  0.66930  0.75790  Biso   1.000  H
  H100     1.0000 0.06170  0.16930  0.75790  Biso   1.000  H
  H101     1.0000 0.43830  0.66930  0.74210  Biso   1.000  H
  H102     1.0000 0.93830  0.16930  0.74210  Biso   1.000  H
  H103     1.0000 0.43830  0.33070  0.24210  Biso   1.000  H
  H104     1.0000 0.93830  0.83070  0.24210  Biso   1.000  H
  O113     1.0000 0.16970  0.37350  0.81280  Biso   1.000  O
  O114     1.0000 0.66970  0.87350  0.81280  Biso   1.000  O
  O115     1.0000 0.16970  0.62650  0.31280  Biso   1.000  O
  O116     1.0000 0.66970  0.12650  0.31280  Biso   1.000  O
  O117     1.0000 0.83030  0.62650  0.18720  Biso   1.000  O
  O118     1.0000 0.33030  0.12650  0.18720  Biso   1.000  O
  O119     1.0000 0.83030  0.37350  0.68720  Biso   1.000  O
  O120     1.0000 0.33030  0.87350  0.68720  Biso   1.000  O
  C113     1.0000 0.53050  0.44540  0.23120  Biso   1.000  C
  C114     1.0000 0.03050  0.94540  0.23120  Biso   1.000  C
  C115     1.0000 0.53050  0.55460  0.73120  Biso   1.000  C
  C116     1.0000 0.03050  0.05460  0.73120  Biso   1.000  C
  C117     1.0000 0.46950  0.55460  0.76880  Biso   1.000  C
  C118     1.0000 0.96950  0.05460  0.76880  Biso   1.000  C
  C119     1.0000 0.46950  0.44540  0.26880  Biso   1.000  C
  C120     1.0000 0.96950  0.94540  0.26880  Biso   1.000  C
  O121     1.0000 0.03370  0.29770  0.66540  Biso   1.000  O
  O122     1.0000 0.53370  0.79770  0.66540  Biso   1.000  O
  O123     1.0000 0.03370  0.70230  0.16540  Biso   1.000  O
  O124     1.0000 0.53370  0.20230  0.16540  Biso   1.000  O
  O125     1.0000 0.96630  0.70230  0.33460  Biso   1.000  O
  O126     1.0000 0.46630  0.20230  0.33460  Biso   1.000  O
  O127     1.0000 0.96630  0.29770  0.83460  Biso   1.000  O
  O128     1.0000 0.46630  0.79770  0.83460  Biso   1.000  O
  C121     1.0000 0.53130  0.54170  0.24860  Biso   1.000  C
  C122     1.0000 0.03130  0.04170  0.24860  Biso   1.000  C
  C123     1.0000 0.53130  0.45830  0.74860  Biso   1.000  C
  C124     1.0000 0.03130  0.95830  0.74860  Biso   1.000  C
  C125     1.0000 0.46870  0.45830  0.75140  Biso   1.000  C
  C126     1.0000 0.96870  0.95830  0.75140  Biso   1.000  C
  C127     1.0000 0.46870  0.54170  0.25140  Biso   1.000  C
  C128     1.0000 0.96870  0.04170  0.25140  Biso   1.000  C
  H105     1.0000 0.51200  0.58170  0.22620  Biso   1.000  H
  H106     1.0000 0.01200  0.08170  0.22620  Biso   1.000  H
  H107     1.0000 0.51200  0.41830  0.72620  Biso   1.000  H
  H108     1.0000 0.01200  0.91830  0.72620  Biso   1.000  H
  H109     1.0000 0.48800  0.41830  0.77380  Biso   1.000  H
  H110     1.0000 0.98800  0.91830  0.77380  Biso   1.000  H
  H111     1.0000 0.48800  0.58170  0.27380  Biso   1.000  H
  H112     1.0000 0.98800  0.08170  0.27380  Biso   1.000  H
  O129     1.0000 0.09180  0.21470  0.68760  Biso   1.000  O
  O130     1.0000 0.59180  0.71470  0.68760  Biso   1.000  O
  O131     1.0000 0.09180  0.78530  0.18760  Biso   1.000  O
  O132     1.0000 0.59180  0.28530  0.18760  Biso   1.000  O
  O133     1.0000 0.90820  0.78530  0.31240  Biso   1.000  O
  O134     1.0000 0.40820  0.28530  0.31240  Biso   1.000  O
  O135     1.0000 0.90820  0.21470  0.81240  Biso   1.000  O
  O136     1.0000 0.40820  0.71470  0.81240  Biso   1.000  O
  C129     1.0000 0.55890  0.57440  0.29580  Biso   1.000  C
  C130     1.0000 0.05890  0.07440  0.29580  Biso   1.000  C
  C131     1.0000 0.55890  0.42560  0.79580  Biso   1.000  C
  C132     1.0000 0.05890  0.92560  0.79580  Biso   1.000  C
  C133     1.0000 0.44110  0.42560  0.70420  Biso   1.000  C
  C134     1.0000 0.94110  0.92560  0.70420  Biso   1.000  C
  C135     1.0000 0.44110  0.57440  0.20420  Biso   1.000  C
  C136     1.0000 0.94110  0.07440  0.20420  Biso   1.000  C
  H113     1.0000 0.55810  0.63580  0.30600  Biso   1.000  H
  H114     1.0000 0.05810  0.13580  0.30600  Biso   1.000  H
  H115     1.0000 0.55810  0.36420  0.80600  Biso   1.000  H
  H116     1.0000 0.05810  0.86420  0.80600  Biso   1.000  H
  H117     1.0000 0.44190  0.36420  0.69400  Biso   1.000  H
  H118     1.0000 0.94190  0.86420  0.69400  Biso   1.000  H
  H119     1.0000 0.44190  0.63580  0.19400  Biso   1.000  H
  H120     1.0000 0.94190  0.13580  0.19400  Biso   1.000  H
  O137     1.0000 0.06710  0.36950  0.63200  Biso   1.000  O
  O138     1.0000 0.56710  0.86950  0.63200  Biso   1.000  O
  O139     1.0000 0.06710  0.63050  0.13200  Biso   1.000  O
  O140     1.0000 0.56710  0.13050  0.13200  Biso   1.000  O
  O141     1.0000 0.93290  0.63050  0.36800  Biso   1.000  O
  O142     1.0000 0.43290  0.13050  0.36800  Biso   1.000  O
  O143     1.0000 0.93290  0.36950  0.86800  Biso   1.000  O
  O144     1.0000 0.43290  0.86950  0.86800  Biso   1.000  O
  C137     1.0000 0.52220  0.11050  0.44980  Biso   1.000  C
  C138     1.0000 0.02220  0.61050  0.44980  Biso   1.000  C
  C139     1.0000 0.52220  0.88950  0.94980  Biso   1.000  C
  C140     1.0000 0.02220  0.38950  0.94980  Biso   1.000  C
  C141     1.0000 0.47780  0.88950  0.55020  Biso   1.000  C
  C142     1.0000 0.97780  0.38950  0.55020  Biso   1.000  C
  C143     1.0000 0.47780  0.11050  0.05020  Biso   1.000  C
  C144     1.0000 0.97780  0.61050  0.05020  Biso   1.000  C
  H121     1.0000 0.51820  0.11300  0.41870  Biso   1.000  H
  H122     1.0000 0.01820  0.61300  0.41870  Biso   1.000  H
  H123     1.0000 0.51820  0.88700  0.91870  Biso   1.000  H
  H124     1.0000 0.01820  0.38700  0.91870  Biso   1.000  H
  H125     1.0000 0.48180  0.88700  0.58130  Biso   1.000  H
  H126     1.0000 0.98180  0.38700  0.58130  Biso   1.000  H
  H127     1.0000 0.48180  0.11300  0.08130  Biso   1.000  H
  H128     1.0000 0.98180  0.61300  0.08130  Biso   1.000  H
  O145     1.0000 0.12980  0.36260  0.71750  Biso   1.000  O
  O146     1.0000 0.62980  0.86260  0.71750  Biso   1.000  O
  O147     1.0000 0.12980  0.63740  0.21750  Biso   1.000  O
  O148     1.0000 0.62980  0.13740  0.21750  Biso   1.000  O
  O149     1.0000 0.87020  0.63740  0.28250  Biso   1.000  O
  O150     1.0000 0.37020  0.13740  0.28250  Biso   1.000  O
  O151     1.0000 0.87020  0.36260  0.78250  Biso   1.000  O
  O152     1.0000 0.37020  0.86260  0.78250  Biso   1.000  O
  C145     1.0000 0.50640  0.04520  0.45280  Biso   1.000  C
  C146     1.0000 0.00640  0.54520  0.45280  Biso   1.000  C
  C147     1.0000 0.50640  0.95480  0.95280  Biso   1.000  C
  C148     1.0000 0.00640  0.45480  0.95280  Biso   1.000  C
  C149     1.0000 0.49360  0.95480  0.54720  Biso   1.000  C
  C150     1.0000 0.99360  0.45480  0.54720  Biso   1.000  C
  C151     1.0000 0.49360  0.04520  0.04720  Biso   1.000  C
  C152     1.0000 0.99360  0.54520  0.04720  Biso   1.000  C
  H129     1.0000 0.49270  0.00140  0.42540  Biso   1.000  H
  H130     1.0000 0.99270  0.50140  0.42540  Biso   1.000  H
  H131     1.0000 0.49270  0.99860  0.92540  Biso   1.000  H
  H132     1.0000 0.99270  0.49860  0.92540  Biso   1.000  H
  H133     1.0000 0.50730  0.99860  0.57460  Biso   1.000  H
  H134     1.0000 0.00730  0.49860  0.57460  Biso   1.000  H
  H135     1.0000 0.50730  0.00140  0.07460  Biso   1.000  H
  H136     1.0000 0.00730  0.50140  0.07460  Biso   1.000  H
  O153     1.0000 0.10710  0.72430  0.64870  Biso   1.000  O
  O154     1.0000 0.60710  0.22430  0.64870  Biso   1.000  O
  O155     1.0000 0.10710  0.27570  0.14870  Biso   1.000  O
  O156     1.0000 0.60710  0.77570  0.14870  Biso   1.000  O
  O157     1.0000 0.89290  0.27570  0.35130  Biso   1.000  O
  O158     1.0000 0.39290  0.77570  0.35130  Biso   1.000  O
  O159     1.0000 0.89290  0.72430  0.85130  Biso   1.000  O
  O160     1.0000 0.39290  0.22430  0.85130  Biso   1.000  O
  C153     1.0000 0.50870  0.03680  0.49670  Biso   1.000  C
  C154     1.0000 0.00870  0.53680  0.49670  Biso   1.000  C
  C155     1.0000 0.50870  0.96320  0.99670  Biso   1.000  C
  C156     1.0000 0.00870  0.46320  0.99670  Biso   1.000  C
  C157     1.0000 0.49130  0.96320  0.50330  Biso   1.000  C
  C158     1.0000 0.99130  0.46320  0.50330  Biso   1.000  C
  C159     1.0000 0.49130  0.03680  0.00330  Biso   1.000  C
  C160     1.0000 0.99130  0.53680  0.00330  Biso   1.000  C
  O161     1.0000 0.16190  0.59070  0.69970  Biso   1.000  O
  O162     1.0000 0.66190  0.09070  0.69970  Biso   1.000  O
  O163     1.0000 0.16190  0.40930  0.19970  Biso   1.000  O
  O164     1.0000 0.66190  0.90930  0.19970  Biso   1.000  O
  O165     1.0000 0.83810  0.40930  0.30030  Biso   1.000  O
  O166     1.0000 0.33810  0.90930  0.30030  Biso   1.000  O
  O167     1.0000 0.83810  0.59070  0.80030  Biso   1.000  O
  O168     1.0000 0.33810  0.09070  0.80030  Biso   1.000  O
  C161     1.0000 0.53140  0.10600  0.53520  Biso   1.000  C
  C162     1.0000 0.03140  0.60600  0.53520  Biso   1.000  C
  C163     1.0000 0.53140  0.89400  0.03520  Biso   1.000  C
  C164     1.0000 0.03140  0.39400  0.03520  Biso   1.000  C
  C165     1.0000 0.46860  0.89400  0.46480  Biso   1.000  C
  C166     1.0000 0.96860  0.39400  0.46480  Biso   1.000  C
  C167     1.0000 0.46860  0.10600  0.96480  Biso   1.000  C
  C168     1.0000 0.96860  0.60600  0.96480  Biso   1.000  C
  H137     1.0000 0.53560  0.10630  0.56660  Biso   1.000  H
  H138     1.0000 0.03560  0.60630  0.56660  Biso   1.000  H
  H139     1.0000 0.53560  0.89370  0.06660  Biso   1.000  H
  H140     1.0000 0.03560  0.39370  0.06660  Biso   1.000  H
  H141     1.0000 0.46440  0.89370  0.43340  Biso   1.000  H
  H142     1.0000 0.96440  0.39370  0.43340  Biso   1.000  H
  H143     1.0000 0.46440  0.10630  0.93340  Biso   1.000  H
  H144     1.0000 0.96440  0.60630  0.93340  Biso   1.000  H
  O169     1.0000 0.10050  0.52470  0.64770  Biso   1.000  O
  O170     1.0000 0.60050  0.02470  0.64770  Biso   1.000  O
  O171     1.0000 0.10050  0.47530  0.14770  Biso   1.000  O
  O172     1.0000 0.60050  0.97530  0.14770  Biso   1.000  O
  O173     1.0000 0.89950  0.47530  0.35230  Biso   1.000  O
  O174     1.0000 0.39950  0.97530  0.35230  Biso   1.000  O
  O175     1.0000 0.89950  0.52470  0.85230  Biso   1.000  O
  O176     1.0000 0.39950  0.02470  0.85230  Biso   1.000  O
  C169     1.0000 0.54720  0.17230  0.52720  Biso   1.000  C
  C170     1.0000 0.04720  0.67230  0.52720  Biso   1.000  C
  C171     1.0000 0.54720  0.82770  0.02720  Biso   1.000  C
  C172     1.0000 0.04720  0.32770  0.02720  Biso   1.000  C
  C173     1.0000 0.45280  0.82770  0.47280  Biso   1.000  C
  C174     1.0000 0.95280  0.32770  0.47280  Biso   1.000  C
  C175     1.0000 0.45280  0.17230  0.97280  Biso   1.000  C
  C176     1.0000 0.95280  0.67230  0.97280  Biso   1.000  C
  H145     1.0000 0.56130  0.21830  0.55320  Biso   1.000  H
  H146     1.0000 0.06130  0.71830  0.55320  Biso   1.000  H
  H147     1.0000 0.56130  0.78170  0.05320  Biso   1.000  H
  H148     1.0000 0.06130  0.28170  0.05320  Biso   1.000  H
  H149     1.0000 0.43870  0.78170  0.44680  Biso   1.000  H
  H150     1.0000 0.93870  0.28170  0.44680  Biso   1.000  H
  H151     1.0000 0.43870  0.21830  0.94680  Biso   1.000  H
  H152     1.0000 0.93870  0.71830  0.94680  Biso   1.000  H
  O177     1.0000 0.24350  0.45640  0.96520  Biso   1.000  O
  O178     1.0000 0.74350  0.95640  0.96520  Biso   1.000  O
  O179     1.0000 0.24350  0.54360  0.46520  Biso   1.000  O
  O180     1.0000 0.74350  0.04360  0.46520  Biso   1.000  O
  O181     1.0000 0.75650  0.54360  0.03480  Biso   1.000  O
  O182     1.0000 0.25650  0.04360  0.03480  Biso   1.000  O
  O183     1.0000 0.75650  0.45640  0.53480  Biso   1.000  O
  O184     1.0000 0.25650  0.95640  0.53480  Biso   1.000  O
  C177     1.0000 0.90030  0.63360  0.06400  Biso   1.000  C
  C178     1.0000 0.40030  0.13360  0.06400  Biso   1.000  C
  C179     1.0000 0.90030  0.36640  0.56400  Biso   1.000  C
  C180     1.0000 0.40030  0.86640  0.56400  Biso   1.000  C
  C181     1.0000 0.09970  0.36640  0.93600  Biso   1.000  C
  C182     1.0000 0.59970  0.86640  0.93600  Biso   1.000  C
  C183     1.0000 0.09970  0.63360  0.43600  Biso   1.000  C
  C184     1.0000 0.59970  0.13360  0.43600  Biso   1.000  C
  H153     1.0000 0.90340  0.69010  0.08150  Biso   1.000  H
  H154     1.0000 0.40340  0.19010  0.08150  Biso   1.000  H
  H155     1.0000 0.90340  0.30990  0.58150  Biso   1.000  H
  H156     1.0000 0.40340  0.80990  0.58150  Biso   1.000  H
  H157     1.0000 0.09660  0.30990  0.91850  Biso   1.000  H
  H158     1.0000 0.59660  0.80990  0.91850  Biso   1.000  H
  H159     1.0000 0.09660  0.69010  0.41850  Biso   1.000  H
  H160     1.0000 0.59660  0.19010  0.41850  Biso   1.000  H
  O185     1.0000 0.23900  0.45100  0.87750  Biso   1.000  O
  O186     1.0000 0.73900  0.95100  0.87750  Biso   1.000  O
  O187     1.0000 0.23900  0.54900  0.37750  Biso   1.000  O
  O188     1.0000 0.73900  0.04900  0.37750  Biso   1.000  O
  O189     1.0000 0.76100  0.54900  0.12250  Biso   1.000  O
  O190     1.0000 0.26100  0.04900  0.12250  Biso   1.000  O
  O191     1.0000 0.76100  0.45100  0.62250  Biso   1.000  O
  O192     1.0000 0.26100  0.95100  0.62250  Biso   1.000  O
  C185     1.0000 0.89270  0.55130  0.07660  Biso   1.000  C
  C186     1.0000 0.39270  0.05130  0.07660  Biso   1.000  C
  C187     1.0000 0.89270  0.44870  0.57660  Biso   1.000  C
  C188     1.0000 0.39270  0.94870  0.57660  Biso   1.000  C
  C189     1.0000 0.10730  0.44870  0.92340  Biso   1.000  C
  C190     1.0000 0.60730  0.94870  0.92340  Biso   1.000  C
  C191     1.0000 0.10730  0.55130  0.42340  Biso   1.000  C
  C192     1.0000 0.60730  0.05130  0.42340  Biso   1.000  C
  H161     1.0000 0.89080  0.55160  0.10220  Biso   1.000  H
  H162     1.0000 0.39080  0.05160  0.10220  Biso   1.000  H
  H163     1.0000 0.89080  0.44840  0.60220  Biso   1.000  H
  H164     1.0000 0.39080  0.94840  0.60220  Biso   1.000  H
  H165     1.0000 0.10920  0.44840  0.89780  Biso   1.000  H
  H166     1.0000 0.60920  0.94840  0.89780  Biso   1.000  H
  H167     1.0000 0.10920  0.55160  0.39780  Biso   1.000  H
  H168     1.0000 0.60920  0.05160  0.39780  Biso   1.000  H
  O193     1.0000 0.22130  0.29750  0.89970  Biso   1.000  O
  O194     1.0000 0.72130  0.79750  0.89970  Biso   1.000  O
  O195     1.0000 0.22130  0.70250  0.39970  Biso   1.000  O
  O196     1.0000 0.72130  0.20250  0.39970  Biso   1.000  O
  O197     1.0000 0.77870  0.70250  0.10030  Biso   1.000  O
  O198     1.0000 0.27870  0.20250  0.10030  Biso   1.000  O
  O199     1.0000 0.77870  0.29750  0.60030  Biso   1.000  O
  O200     1.0000 0.27870  0.79750  0.60030  Biso   1.000  O
  C193     1.0000 0.88820  0.47130  0.05210  Biso   1.000  C
  C194     1.0000 0.38820  0.97130  0.05210  Biso   1.000  C
  C195     1.0000 0.88820  0.52870  0.55210  Biso   1.000  C
  C196     1.0000 0.38820  0.02870  0.55210  Biso   1.000  C
  C197     1.0000 0.11180  0.52870  0.94790  Biso   1.000  C
  C198     1.0000 0.61180  0.02870  0.94790  Biso   1.000  C
  C199     1.0000 0.11180  0.47130  0.44790  Biso   1.000  C
  C200     1.0000 0.61180  0.97130  0.44790  Biso   1.000  C
  O201     1.0000 0.07760  0.41090  0.56280  Biso   1.000  O
  O202     1.0000 0.57760  0.91090  0.56280  Biso   1.000  O
  O203     1.0000 0.07760  0.58910  0.06280  Biso   1.000  O
  O204     1.0000 0.57760  0.08910  0.06280  Biso   1.000  O
  O205     1.0000 0.92240  0.58910  0.43720  Biso   1.000  O
  O206     1.0000 0.42240  0.08910  0.43720  Biso   1.000  O
  O207     1.0000 0.92240  0.41090  0.93720  Biso   1.000  O
  O208     1.0000 0.42240  0.91090  0.93720  Biso   1.000  O
  C201     1.0000 0.89150  0.47370  0.01520  Biso   1.000  C
  C202     1.0000 0.39150  0.97370  0.01520  Biso   1.000  C
  C203     1.0000 0.89150  0.52630  0.51520  Biso   1.000  C
  C204     1.0000 0.39150  0.02630  0.51520  Biso   1.000  C
  C205     1.0000 0.10850  0.52630  0.98480  Biso   1.000  C
  C206     1.0000 0.60850  0.02630  0.98480  Biso   1.000  C
  C207     1.0000 0.10850  0.47370  0.48480  Biso   1.000  C
  C208     1.0000 0.60850  0.97370  0.48480  Biso   1.000  C
  H169     1.0000 0.88800  0.41750  0.99720  Biso   1.000  H
  H170     1.0000 0.38800  0.91750  0.99720  Biso   1.000  H
  H171     1.0000 0.88800  0.58250  0.49720  Biso   1.000  H
  H172     1.0000 0.38800  0.08250  0.49720  Biso   1.000  H
  H173     1.0000 0.11200  0.58250  0.00280  Biso   1.000  H
  H174     1.0000 0.61200  0.08250  0.00280  Biso   1.000  H
  H175     1.0000 0.11200  0.41750  0.50280  Biso   1.000  H
  H176     1.0000 0.61200  0.91750  0.50280  Biso   1.000  H
  O209     1.0000 0.14660  0.42840  0.65550  Biso   1.000  O
  O210     1.0000 0.64660  0.92840  0.65550  Biso   1.000  O
  O211     1.0000 0.14660  0.57160  0.15550  Biso   1.000  O
  O212     1.0000 0.64660  0.07160  0.15550  Biso   1.000  O
  O213     1.0000 0.85340  0.57160  0.34450  Biso   1.000  O
  O214     1.0000 0.35340  0.07160  0.34450  Biso   1.000  O
  O215     1.0000 0.85340  0.42840  0.84450  Biso   1.000  O
  O216     1.0000 0.35340  0.92840  0.84450  Biso   1.000  O
  C209     1.0000 0.89980  0.55430  0.00420  Biso   1.000  C
  C210     1.0000 0.39980  0.05430  0.00420  Biso   1.000  C
  C211     1.0000 0.89980  0.44570  0.50420  Biso   1.000  C
  C212     1.0000 0.39980  0.94570  0.50420  Biso   1.000  C
  C213     1.0000 0.10020  0.44570  0.99580  Biso   1.000  C
  C214     1.0000 0.60020  0.94570  0.99580  Biso   1.000  C
  C215     1.0000 0.10020  0.55430  0.49580  Biso   1.000  C
  C216     1.0000 0.60020  0.05430  0.49580  Biso   1.000  C
  H177     1.0000 0.90310  0.55380  0.98010  Biso   1.000  H
  H178     1.0000 0.40310  0.05380  0.98010  Biso   1.000  H
  H179     1.0000 0.90310  0.44620  0.48010  Biso   1.000  H
  H180     1.0000 0.40310  0.94620  0.48010  Biso   1.000  H
  H181     1.0000 0.09690  0.44620  0.01990  Biso   1.000  H
  H182     1.0000 0.59690  0.94620  0.01990  Biso   1.000  H
  H183     1.0000 0.09690  0.55380  0.51990  Biso   1.000  H
  H184     1.0000 0.59690  0.05380  0.51990  Biso   1.000  H
  O217     1.0000 0.11220  0.26940  0.63870  Biso   1.000  O
  O218     1.0000 0.61220  0.76940  0.63870  Biso   1.000  O
  O219     1.0000 0.11220  0.73060  0.13870  Biso   1.000  O
  O220     1.0000 0.61220  0.23060  0.13870  Biso   1.000  O
  O221     1.0000 0.88780  0.73060  0.36130  Biso   1.000  O
  O222     1.0000 0.38780  0.23060  0.36130  Biso   1.000  O
  O223     1.0000 0.88780  0.26940  0.86130  Biso   1.000  O
  O224     1.0000 0.38780  0.76940  0.86130  Biso   1.000  O
  C217     1.0000 0.85890  0.74450  0.91440  Biso   1.000  C
  C218     1.0000 0.35890  0.24450  0.91440  Biso   1.000  C
  C219     1.0000 0.85890  0.25550  0.41440  Biso   1.000  C
  C220     1.0000 0.35890  0.75550  0.41440  Biso   1.000  C
  C221     1.0000 0.14110  0.25550  0.08560  Biso   1.000  C
  C222     1.0000 0.64110  0.75550  0.08560  Biso   1.000  C
  C223     1.0000 0.14110  0.74450  0.58560  Biso   1.000  C
  C224     1.0000 0.64110  0.24450  0.58560  Biso   1.000  C
  H185     1.0000 0.85800  0.68620  0.92700  Biso   1.000  H
  H186     1.0000 0.35800  0.18620  0.92700  Biso   1.000  H
  H187     1.0000 0.85800  0.31380  0.42700  Biso   1.000  H
  H188     1.0000 0.35800  0.81380  0.42700  Biso   1.000  H
  H189     1.0000 0.14200  0.31380  0.07300  Biso   1.000  H
  H190     1.0000 0.64200  0.81380  0.07300  Biso   1.000  H
  H191     1.0000 0.14200  0.68620  0.57300  Biso   1.000  H
  H192     1.0000 0.64200  0.18620  0.57300  Biso   1.000  H
  O225     1.0000 0.28360  0.55650  0.87420  Biso   1.000  O
  O226     1.0000 0.78360  0.05650  0.87420  Biso   1.000  O
  O227     1.0000 0.28360  0.44350  0.37420  Biso   1.000  O
  O228     1.0000 0.78360  0.94350  0.37420  Biso   1.000  O
  O229     1.0000 0.71640  0.44350  0.12580  Biso   1.000  O
  O230     1.0000 0.21640  0.94350  0.12580  Biso   1.000  O
  O231     1.0000 0.71640  0.55650  0.62580  Biso   1.000  O
  O232     1.0000 0.21640  0.05650  0.62580  Biso   1.000  O
  C225     1.0000 0.83200  0.76830  0.86190  Biso   1.000  C
  C226     1.0000 0.33200  0.26830  0.86190  Biso   1.000  C
  C227     1.0000 0.83200  0.23170  0.36190  Biso   1.000  C
  C228     1.0000 0.33200  0.73170  0.36190  Biso   1.000  C
  C229     1.0000 0.16800  0.23170  0.13810  Biso   1.000  C
  C230     1.0000 0.66800  0.73170  0.13810  Biso   1.000  C
  C231     1.0000 0.16800  0.76830  0.63810  Biso   1.000  C
  C232     1.0000 0.66800  0.26830  0.63810  Biso   1.000  C
  H193     1.0000 0.81310  0.72670  0.84010  Biso   1.000  H
  H194     1.0000 0.31310  0.22670  0.84010  Biso   1.000  H
  H195     1.0000 0.81310  0.27330  0.34010  Biso   1.000  H
  H196     1.0000 0.31310  0.77330  0.34010  Biso   1.000  H
  H197     1.0000 0.18690  0.27330  0.15990  Biso   1.000  H
  H198     1.0000 0.68690  0.77330  0.15990  Biso   1.000  H
  H199     1.0000 0.18690  0.72670  0.65990  Biso   1.000  H
  H200     1.0000 0.68690  0.22670  0.65990  Biso   1.000  H
  O233     1.0000 0.22840  0.54030  0.76630  Biso   1.000  O
  O234     1.0000 0.72840  0.04030  0.76630  Biso   1.000  O
  O235     1.0000 0.22840  0.45970  0.26630  Biso   1.000  O
  O236     1.0000 0.72840  0.95970  0.26630  Biso   1.000  O
  O237     1.0000 0.77160  0.45970  0.23370  Biso   1.000  O
  O238     1.0000 0.27160  0.95970  0.23370  Biso   1.000  O
  O239     1.0000 0.77160  0.54030  0.73370  Biso   1.000  O
  O240     1.0000 0.27160  0.04030  0.73370  Biso   1.000  O
  C233     1.0000 0.83320  0.85280  0.84180  Biso   1.000  C
  C234     1.0000 0.33320  0.35280  0.84180  Biso   1.000  C
  C235     1.0000 0.83320  0.14720  0.34180  Biso   1.000  C
  C236     1.0000 0.33320  0.64720  0.34180  Biso   1.000  C
  C237     1.0000 0.16680  0.14720  0.15820  Biso   1.000  C
  C238     1.0000 0.66680  0.64720  0.15820  Biso   1.000  C
  C239     1.0000 0.16680  0.85280  0.65820  Biso   1.000  C
  C240     1.0000 0.66680  0.35280  0.65820  Biso   1.000  C
  O241     1.0000 0.25350  0.38300  0.82150  Biso   1.000  O
  O242     1.0000 0.75350  0.88300  0.82150  Biso   1.000  O
  O243     1.0000 0.25350  0.61700  0.32150  Biso   1.000  O
  O244     1.0000 0.75350  0.11700  0.32150  Biso   1.000  O
  O245     1.0000 0.74650  0.61700  0.17850  Biso   1.000  O
  O246     1.0000 0.24650  0.11700  0.17850  Biso   1.000  O
  O247     1.0000 0.74650  0.38300  0.67850  Biso   1.000  O
  O248     1.0000 0.24650  0.88300  0.67850  Biso   1.000  O
  C241     1.0000 0.86040  0.90980  0.87590  Biso   1.000  C
  C242     1.0000 0.36040  0.40980  0.87590  Biso   1.000  C
  C243     1.0000 0.86040  0.09020  0.37590  Biso   1.000  C
  C244     1.0000 0.36040  0.59020  0.37590  Biso   1.000  C
  C245     1.0000 0.13960  0.09020  0.12410  Biso   1.000  C
  C246     1.0000 0.63960  0.59020  0.12410  Biso   1.000  C
  C247     1.0000 0.13960  0.90980  0.62410  Biso   1.000  C
  C248     1.0000 0.63960  0.40980  0.62410  Biso   1.000  C
  H201     1.0000 0.86200  0.96910  0.86470  Biso   1.000  H
  H202     1.0000 0.36200  0.46910  0.86470  Biso   1.000  H
  H203     1.0000 0.86200  0.03090  0.36470  Biso   1.000  H
  H204     1.0000 0.36200  0.53090  0.36470  Biso   1.000  H
  H205     1.0000 0.13800  0.03090  0.13530  Biso   1.000  H
  H206     1.0000 0.63800  0.53090  0.13530  Biso   1.000  H
  H207     1.0000 0.13800  0.96910  0.63530  Biso   1.000  H
  H208     1.0000 0.63800  0.46910  0.63530  Biso   1.000  H
  O249     1.0000 0.18950  0.42520  0.76700  Biso   1.000  O
  O250     1.0000 0.68950  0.92520  0.76700  Biso   1.000  O
  O251     1.0000 0.18950  0.57480  0.26700  Biso   1.000  O
  O252     1.0000 0.68950  0.07480  0.26700  Biso   1.000  O
  O253     1.0000 0.81050  0.57480  0.23300  Biso   1.000  O
  O254     1.0000 0.31050  0.07480  0.23300  Biso   1.000  O
  O255     1.0000 0.81050  0.42520  0.73300  Biso   1.000  O
  O256     1.0000 0.31050  0.92520  0.73300  Biso   1.000  O
  C249     1.0000 0.88600  0.88270  0.92690  Biso   1.000  C
  C250     1.0000 0.38600  0.38270  0.92690  Biso   1.000  C
  C251     1.0000 0.88600  0.11730  0.42690  Biso   1.000  C
  C252     1.0000 0.38600  0.61730  0.42690  Biso   1.000  C
  C253     1.0000 0.11400  0.11730  0.07310  Biso   1.000  C
  C254     1.0000 0.61400  0.61730  0.07310  Biso   1.000  C
  C255     1.0000 0.11400  0.88270  0.57310  Biso   1.000  C
  C256     1.0000 0.61400  0.38270  0.57310  Biso   1.000  C
  H209     1.0000 0.90510  0.92330  0.94960  Biso   1.000  H
  H210     1.0000 0.40510  0.42330  0.94960  Biso   1.000  H
  H211     1.0000 0.90510  0.07670  0.44960  Biso   1.000  H
  H212     1.0000 0.40510  0.57670  0.44960  Biso   1.000  H
  H213     1.0000 0.09490  0.07670  0.05040  Biso   1.000  H
  H214     1.0000 0.59490  0.57670  0.05040  Biso   1.000  H
  H215     1.0000 0.09490  0.92330  0.55040  Biso   1.000  H
  H216     1.0000 0.59490  0.42330  0.55040  Biso   1.000  H
  O257     1.0000 0.21040  0.10720  0.87060  Biso   1.000  O
  O258     1.0000 0.71040  0.60720  0.87060  Biso   1.000  O
  O259     1.0000 0.21040  0.89280  0.37060  Biso   1.000  O
  O260     1.0000 0.71040  0.39280  0.37060  Biso   1.000  O
  O261     1.0000 0.78960  0.89280  0.12940  Biso   1.000  O
  O262     1.0000 0.28960  0.39280  0.12940  Biso   1.000  O
  O263     1.0000 0.78960  0.10720  0.62940  Biso   1.000  O
  O264     1.0000 0.28960  0.60720  0.62940  Biso   1.000  O
  C257     1.0000 0.76960  0.98390  0.71680  Biso   1.000  C
  C258     1.0000 0.26960  0.48390  0.71680  Biso   1.000  C
  C259     1.0000 0.76960  0.01610  0.21680  Biso   1.000  C
  C260     1.0000 0.26960  0.51610  0.21680  Biso   1.000  C
  C261     1.0000 0.23040  0.01610  0.28320  Biso   1.000  C
  C262     1.0000 0.73040  0.51610  0.28320  Biso   1.000  C
  C263     1.0000 0.23040  0.98390  0.78320  Biso   1.000  C
  C264     1.0000 0.73040  0.48390  0.78320  Biso   1.000  C
  H217     1.0000 0.76290  0.04730  0.70560  Biso   1.000  H
  H218     1.0000 0.26290  0.54730  0.70560  Biso   1.000  H
  H219     1.0000 0.76290  0.95270  0.20560  Biso   1.000  H
  H220     1.0000 0.26290  0.45270  0.20560  Biso   1.000  H
  H221     1.0000 0.23710  0.95270  0.29440  Biso   1.000  H
  H222     1.0000 0.73710  0.45270  0.29440  Biso   1.000  H
  H223     1.0000 0.23710  0.04730  0.79440  Biso   1.000  H
  H224     1.0000 0.73710  0.54730  0.79440  Biso   1.000  H
  O265     1.0000 0.15790  0.18190  0.77250  Biso   1.000  O
  O266     1.0000 0.65790  0.68190  0.77250  Biso   1.000  O
  O267     1.0000 0.15790  0.81810  0.27250  Biso   1.000  O
  O268     1.0000 0.65790  0.31810  0.27250  Biso   1.000  O
  O269     1.0000 0.84210  0.81810  0.22750  Biso   1.000  O
  O270     1.0000 0.34210  0.31810  0.22750  Biso   1.000  O
  O271     1.0000 0.84210  0.18190  0.72750  Biso   1.000  O
  O272     1.0000 0.34210  0.68190  0.72750  Biso   1.000  O
  C265     1.0000 0.79530  0.96640  0.76860  Biso   1.000  C
  C266     1.0000 0.29530  0.46640  0.76860  Biso   1.000  C
  C267     1.0000 0.79530  0.03360  0.26860  Biso   1.000  C
  C268     1.0000 0.29530  0.53360  0.26860  Biso   1.000  C
  C269     1.0000 0.20470  0.03360  0.23140  Biso   1.000  C
  C270     1.0000 0.70470  0.53360  0.23140  Biso   1.000  C
  C271     1.0000 0.20470  0.96640  0.73140  Biso   1.000  C
  C272     1.0000 0.70470  0.46640  0.73140  Biso   1.000  C
  H225     1.0000 0.80590  0.01770  0.79200  Biso   1.000  H
  H226     1.0000 0.30590  0.51770  0.79200  Biso   1.000  H
  H227     1.0000 0.80590  0.98230  0.29200  Biso   1.000  H
  H228     1.0000 0.30590  0.48230  0.29200  Biso   1.000  H
  H229     1.0000 0.19410  0.98230  0.20800  Biso   1.000  H
  H230     1.0000 0.69410  0.48230  0.20800  Biso   1.000  H
  H231     1.0000 0.19410  0.01770  0.70800  Biso   1.000  H
  H232     1.0000 0.69410  0.51770  0.70800  Biso   1.000  H
  O273     1.0000 0.21820  0.24900  0.82140  Biso   1.000  O
  O274     1.0000 0.71820  0.74900  0.82140  Biso   1.000  O
  O275     1.0000 0.21820  0.75100  0.32140  Biso   1.000  O
  O276     1.0000 0.71820  0.25100  0.32140  Biso   1.000  O
  O277     1.0000 0.78180  0.75100  0.17860  Biso   1.000  O
  O278     1.0000 0.28180  0.25100  0.17860  Biso   1.000  O
  O279     1.0000 0.78180  0.24900  0.67860  Biso   1.000  O
  O280     1.0000 0.28180  0.74900  0.67860  Biso   1.000  O
  C273     1.0000 0.80610  0.87450  0.78730  Biso   1.000  C
  C274     1.0000 0.30610  0.37450  0.78730  Biso   1.000  C
  C275     1.0000 0.80610  0.12550  0.28730  Biso   1.000  C
  C276     1.0000 0.30610  0.62550  0.28730  Biso   1.000  C
  C277     1.0000 0.19390  0.12550  0.21270  Biso   1.000  C
  C278     1.0000 0.69390  0.62550  0.21270  Biso   1.000  C
  C279     1.0000 0.19390  0.87450  0.71270  Biso   1.000  C
  C280     1.0000 0.69390  0.37450  0.71270  Biso   1.000  C
  O281     1.0000 0.12910  0.08610  0.68030  Biso   1.000  O
  O282     1.0000 0.62910  0.58610  0.68030  Biso   1.000  O
  O283     1.0000 0.12910  0.91390  0.18030  Biso   1.000  O
  O284     1.0000 0.62910  0.41390  0.18030  Biso   1.000  O
  O285     1.0000 0.87090  0.91390  0.31970  Biso   1.000  O
  O286     1.0000 0.37090  0.41390  0.31970  Biso   1.000  O
  O287     1.0000 0.87090  0.08610  0.81970  Biso   1.000  O
  O288     1.0000 0.37090  0.58610  0.81970  Biso   1.000  O
  C281     1.0000 0.79000  0.80360  0.75000  Biso   1.000  C
  C282     1.0000 0.29000  0.30360  0.75000  Biso   1.000  C
  C283     1.0000 0.79000  0.19640  0.25000  Biso   1.000  C
  C284     1.0000 0.29000  0.69640  0.25000  Biso   1.000  C
  C285     1.0000 0.21000  0.19640  0.25000  Biso   1.000  C
  C286     1.0000 0.71000  0.69640  0.25000  Biso   1.000  C
  C287     1.0000 0.21000  0.80360  0.75000  Biso   1.000  C
  C288     1.0000 0.71000  0.30360  0.75000  Biso   1.000  C
  H233     1.0000 0.79720  0.74000  0.76010  Biso   1.000  H
  H234     1.0000 0.29720  0.24000  0.76010  Biso   1.000  H
  H235     1.0000 0.79720  0.26000  0.26010  Biso   1.000  H
  H236     1.0000 0.29720  0.76000  0.26010  Biso   1.000  H
  H237     1.0000 0.20280  0.26000  0.23990  Biso   1.000  H
  H238     1.0000 0.70280  0.76000  0.23990  Biso   1.000  H
  H239     1.0000 0.20280  0.74000  0.73990  Biso   1.000  H
  H240     1.0000 0.70280  0.24000  0.73990  Biso   1.000  H
  O289     1.0000 0.17660  0.23910  0.72280  Biso   1.000  O
  O290     1.0000 0.67660  0.73910  0.72280  Biso   1.000  O
  O291     1.0000 0.17660  0.76090  0.22280  Biso   1.000  O
  O292     1.0000 0.67660  0.26090  0.22280  Biso   1.000  O
  O293     1.0000 0.82340  0.76090  0.27720  Biso   1.000  O
  O294     1.0000 0.32340  0.26090  0.27720  Biso   1.000  O
  O295     1.0000 0.82340  0.23910  0.77720  Biso   1.000  O
  O296     1.0000 0.32340  0.73910  0.77720  Biso   1.000  O
  C289     1.0000 0.76380  0.82500  0.69840  Biso   1.000  C
  C290     1.0000 0.26380  0.32500  0.69840  Biso   1.000  C
  C291     1.0000 0.76380  0.17500  0.19840  Biso   1.000  C
  C292     1.0000 0.26380  0.67500  0.19840  Biso   1.000  C
  C293     1.0000 0.23620  0.17500  0.30160  Biso   1.000  C
  C294     1.0000 0.73620  0.67500  0.30160  Biso   1.000  C
  C295     1.0000 0.23620  0.82500  0.80160  Biso   1.000  C
  C296     1.0000 0.73620  0.32500  0.80160  Biso   1.000  C
  H241     1.0000 0.75270  0.77510  0.67400  Biso   1.000  H
  H242     1.0000 0.25270  0.27510  0.67400  Biso   1.000  H
  H243     1.0000 0.75270  0.22490  0.17400  Biso   1.000  H
  H244     1.0000 0.25270  0.72490  0.17400  Biso   1.000  H
  H245     1.0000 0.24730  0.22490  0.32600  Biso   1.000  H
  H246     1.0000 0.74730  0.72490  0.32600  Biso   1.000  H
  H247     1.0000 0.24730  0.77510  0.82600  Biso   1.000  H
  H248     1.0000 0.74730  0.27510  0.82600  Biso   1.000  H
  O297     1.0000 0.19420  0.54000  0.66150  Biso   1.000  O
  O298     1.0000 0.69420  0.04000  0.66150  Biso   1.000  O
  O299     1.0000 0.19420  0.46000  0.16150  Biso   1.000  O
  O300     1.0000 0.69420  0.96000  0.16150  Biso   1.000  O
  O301     1.0000 0.80580  0.46000  0.33850  Biso   1.000  O
  O302     1.0000 0.30580  0.96000  0.33850  Biso   1.000  O
  O303     1.0000 0.80580  0.54000  0.83850  Biso   1.000  O
  O304     1.0000 0.30580  0.04000  0.83850  Biso   1.000  O
  C297     1.0000 0.69420  0.06610  0.52540  Biso   1.000  C
  C298     1.0000 0.19420  0.56610  0.52540  Biso   1.000  C
  C299     1.0000 0.69420  0.93390  0.02540  Biso   1.000  C
  C300     1.0000 0.19420  0.43390  0.02540  Biso   1.000  C
  C301     1.0000 0.30580  0.93390  0.47460  Biso   1.000  C
  C302     1.0000 0.80580  0.43390  0.47460  Biso   1.000  C
  C303     1.0000 0.30580  0.06610  0.97460  Biso   1.000  C
  C304     1.0000 0.80580  0.56610  0.97460  Biso   1.000  C
  H249     1.0000 0.69060  0.01000  0.50730  Biso   1.000  H
  H250     1.0000 0.19060  0.51000  0.50730  Biso   1.000  H
  H251     1.0000 0.69060  0.99000  0.00730  Biso   1.000  H
  H252     1.0000 0.19060  0.49000  0.00730  Biso   1.000  H
  H253     1.0000 0.30940  0.99000  0.49270  Biso   1.000  H
  H254     1.0000 0.80940  0.49000  0.49270  Biso   1.000  H
  H255     1.0000 0.30940  0.01000  0.99270  Biso   1.000  H
  H256     1.0000 0.80940  0.51000  0.99270  Biso   1.000  H
  O305     1.0000 0.21160  0.37710  0.72020  Biso   1.000  O
  O306     1.0000 0.71160  0.87710  0.72020  Biso   1.000  O
  O307     1.0000 0.21160  0.62290  0.22020  Biso   1.000  O
  O308     1.0000 0.71160  0.12290  0.22020  Biso   1.000  O
  O309     1.0000 0.78840  0.62290  0.27980  Biso   1.000  O
  O310     1.0000 0.28840  0.12290  0.27980  Biso   1.000  O
  O311     1.0000 0.78840  0.37710  0.77980  Biso   1.000  O
  O312     1.0000 0.28840  0.87710  0.77980  Biso   1.000  O
  C305     1.0000 0.68960  0.14660  0.50250  Biso   1.000  C
  C306     1.0000 0.18960  0.64660  0.50250  Biso   1.000  C
  C307     1.0000 0.68960  0.85340  0.00250  Biso   1.000  C
  C308     1.0000 0.18960  0.35340  0.00250  Biso   1.000  C
  C309     1.0000 0.31040  0.85340  0.49750  Biso   1.000  C
  C310     1.0000 0.81040  0.35340  0.49750  Biso   1.000  C
  C311     1.0000 0.31040  0.14660  0.99750  Biso   1.000  C
  C312     1.0000 0.81040  0.64660  0.99750  Biso   1.000  C
  H257     1.0000 0.68370  0.14660  0.46990  Biso   1.000  H
  H258     1.0000 0.18370  0.64660  0.46990  Biso   1.000  H
  H259     1.0000 0.68370  0.85340  0.96990  Biso   1.000  H
  H260     1.0000 0.18370  0.35340  0.96990  Biso   1.000  H
  H261     1.0000 0.31630  0.85340  0.53010  Biso   1.000  H
  H262     1.0000 0.81630  0.35340  0.53010  Biso   1.000  H
  H263     1.0000 0.31630  0.14660  0.03010  Biso   1.000  H
  H264     1.0000 0.81630  0.64660  0.03010  Biso   1.000  H
  O313     1.0000 0.24700  0.21100  0.77580  Biso   1.000  O
  O314     1.0000 0.74700  0.71100  0.77580  Biso   1.000  O
  O315     1.0000 0.24700  0.78900  0.27580  Biso   1.000  O
  O316     1.0000 0.74700  0.28900  0.27580  Biso   1.000  O
  O317     1.0000 0.75300  0.78900  0.22420  Biso   1.000  O
  O318     1.0000 0.25300  0.28900  0.22420  Biso   1.000  O
  O319     1.0000 0.75300  0.21100  0.72420  Biso   1.000  O
  O320     1.0000 0.25300  0.71100  0.72420  Biso   1.000  O
  C313     1.0000 0.80660  0.73200  0.97410  Biso   1.000  C
  C314     1.0000 0.30660  0.23200  0.97410  Biso   1.000  C
  C315     1.0000 0.80660  0.26800  0.47410  Biso   1.000  C
  C316     1.0000 0.30660  0.76800  0.47410  Biso   1.000  C
  C317     1.0000 0.19340  0.26800  0.02590  Biso   1.000  C
  C318     1.0000 0.69340  0.76800  0.02590  Biso   1.000  C
  C319     1.0000 0.19340  0.73200  0.52590  Biso   1.000  C
  C320     1.0000 0.69340  0.23200  0.52590  Biso   1.000  C
  C321     1.0000 0.79540  0.72650  0.92520  Biso   1.000  C
  C322     1.0000 0.29540  0.22650  0.92520  Biso   1.000  C
  C323     1.0000 0.79540  0.27350  0.42520  Biso   1.000  C
  C324     1.0000 0.29540  0.77350  0.42520  Biso   1.000  C
  C325     1.0000 0.20460  0.27350  0.07480  Biso   1.000  C
  C326     1.0000 0.70460  0.77350  0.07480  Biso   1.000  C
  C327     1.0000 0.20460  0.72650  0.57480  Biso   1.000  C
  C328     1.0000 0.70460  0.22650  0.57480  Biso   1.000  C
  H265     1.0000 0.79010  0.78190  0.90580  Biso   1.000  H
  H266     1.0000 0.29010  0.28190  0.90580  Biso   1.000  H
  H267     1.0000 0.79010  0.21810  0.40580  Biso   1.000  H
  H268     1.0000 0.29010  0.71810  0.40580  Biso   1.000  H
  H269     1.0000 0.20990  0.21810  0.09420  Biso   1.000  H
  H270     1.0000 0.70990  0.71810  0.09420  Biso   1.000  H
  H271     1.0000 0.20990  0.78190  0.59420  Biso   1.000  H
  H272     1.0000 0.70990  0.28190  0.59420  Biso   1.000  H
  C329     1.0000 0.70810  0.13880  0.59480  Biso   1.000  C
  C330     1.0000 0.20810  0.63880  0.59480  Biso   1.000  C
  C331     1.0000 0.70810  0.86120  0.09480  Biso   1.000  C
  C332     1.0000 0.20810  0.36120  0.09480  Biso   1.000  C
  C333     1.0000 0.29190  0.86120  0.40520  Biso   1.000  C
  C334     1.0000 0.79190  0.36120  0.40520  Biso   1.000  C
  C335     1.0000 0.29190  0.13880  0.90520  Biso   1.000  C
  C336     1.0000 0.79190  0.63880  0.90520  Biso   1.000  C
  H273     1.0000 0.71420  0.13710  0.62750  Biso   1.000  H
  H274     1.0000 0.21420  0.63710  0.62750  Biso   1.000  H
  H275     1.0000 0.71420  0.86290  0.12750  Biso   1.000  H
  H276     1.0000 0.21420  0.36290  0.12750  Biso   1.000  H
  H277     1.0000 0.28580  0.86290  0.37250  Biso   1.000  H
  H278     1.0000 0.78580  0.36290  0.37250  Biso   1.000  H
  H279     1.0000 0.28580  0.13710  0.87250  Biso   1.000  H
  H280     1.0000 0.78580  0.63710  0.87250  Biso   1.000  H
  C337     1.0000 0.71870  0.76760  0.55090  Biso   1.000  C
  C338     1.0000 0.21870  0.26760  0.55090  Biso   1.000  C
  C339     1.0000 0.71870  0.23240  0.05090  Biso   1.000  C
  C340     1.0000 0.21870  0.73240  0.05090  Biso   1.000  C
  C341     1.0000 0.28130  0.23240  0.44910  Biso   1.000  C
  C342     1.0000 0.78130  0.73240  0.44910  Biso   1.000  C
  C343     1.0000 0.28130  0.76760  0.94910  Biso   1.000  C
  C344     1.0000 0.78130  0.26760  0.94910  Biso   1.000  C
  H281     1.0000 0.70550  0.73350  0.55640  Biso   1.000  H
  H282     1.0000 0.20550  0.23350  0.55640  Biso   1.000  H
  H283     1.0000 0.70550  0.26650  0.05640  Biso   1.000  H
  H284     1.0000 0.20550  0.76650  0.05640  Biso   1.000  H
  H285     1.0000 0.29450  0.26650  0.44360  Biso   1.000  H
  H286     1.0000 0.79450  0.76650  0.44360  Biso   1.000  H
  H287     1.0000 0.29450  0.73350  0.94360  Biso   1.000  H
  H288     1.0000 0.79450  0.23350  0.94360  Biso   1.000  H
  C345     1.0000 0.72560  0.72520  0.52290  Biso   1.000  C
  C346     1.0000 0.22560  0.22520  0.52290  Biso   1.000  C
  C347     1.0000 0.72560  0.27480  0.02290  Biso   1.000  C
  C348     1.0000 0.22560  0.77480  0.02290  Biso   1.000  C
  C349     1.0000 0.27440  0.27480  0.47710  Biso   1.000  C
  C350     1.0000 0.77440  0.77480  0.47710  Biso   1.000  C
  C351     1.0000 0.27440  0.72520  0.97710  Biso   1.000  C
  C352     1.0000 0.77440  0.22520  0.97710  Biso   1.000  C
  H289     1.0000 0.71670  0.66430  0.50870  Biso   1.000  H
  H290     1.0000 0.21670  0.16430  0.50870  Biso   1.000  H
  H291     1.0000 0.71670  0.33570  0.00870  Biso   1.000  H
  H292     1.0000 0.21670  0.83570  0.00870  Biso   1.000  H
  H293     1.0000 0.28330  0.33570  0.49130  Biso   1.000  H
  H294     1.0000 0.78330  0.83570  0.49130  Biso   1.000  H
  H295     1.0000 0.28330  0.66430  0.99130  Biso   1.000  H
  H296     1.0000 0.78330  0.16430  0.99130  Biso   1.000  H
  C353     1.0000 0.74620  0.77280  0.51500  Biso   1.000  C
  C354     1.0000 0.24620  0.27280  0.51500  Biso   1.000  C
  C355     1.0000 0.74620  0.22720  0.01500  Biso   1.000  C
  C356     1.0000 0.24620  0.72720  0.01500  Biso   1.000  C
  C357     1.0000 0.25380  0.22720  0.48500  Biso   1.000  C
  C358     1.0000 0.75380  0.72720  0.48500  Biso   1.000  C
  C359     1.0000 0.25380  0.77280  0.98500  Biso   1.000  C
  C360     1.0000 0.75380  0.27280  0.98500  Biso   1.000  C
  C361     1.0000 0.75800  0.85970  0.53730  Biso   1.000  C
  C362     1.0000 0.25800  0.35970  0.53730  Biso   1.000  C
  C363     1.0000 0.75800  0.14030  0.03730  Biso   1.000  C
  C364     1.0000 0.25800  0.64030  0.03730  Biso   1.000  C
  C365     1.0000 0.24200  0.14030  0.46270  Biso   1.000  C
  C366     1.0000 0.74200  0.64030  0.46270  Biso   1.000  C
  C367     1.0000 0.24200  0.85970  0.96270  Biso   1.000  C
  C368     1.0000 0.74200  0.35970  0.96270  Biso   1.000  C
  H297     1.0000 0.77250  0.89430  0.53460  Biso   1.000  H
  H298     1.0000 0.27250  0.39430  0.53460  Biso   1.000  H
  H299     1.0000 0.77250  0.10570  0.03460  Biso   1.000  H
  H300     1.0000 0.27250  0.60570  0.03460  Biso   1.000  H
  H301     1.0000 0.22750  0.10570  0.46540  Biso   1.000  H
  H302     1.0000 0.72750  0.60570  0.46540  Biso   1.000  H
  H303     1.0000 0.22750  0.89430  0.96540  Biso   1.000  H
  H304     1.0000 0.72750  0.39430  0.96540  Biso   1.000  H
  C369     1.0000 0.74880  0.89780  0.56410  Biso   1.000  C
  C370     1.0000 0.24880  0.39780  0.56410  Biso   1.000  C
  C371     1.0000 0.74880  0.10220  0.06410  Biso   1.000  C
  C372     1.0000 0.24880  0.60220  0.06410  Biso   1.000  C
  C373     1.0000 0.25120  0.10220  0.43590  Biso   1.000  C
  C374     1.0000 0.75120  0.60220  0.43590  Biso   1.000  C
  C375     1.0000 0.25120  0.89780  0.93590  Biso   1.000  C
  C376     1.0000 0.75120  0.39780  0.93590  Biso   1.000  C
  H305     1.0000 0.75700  0.95910  0.57820  Biso   1.000  H
  H306     1.0000 0.25700  0.45910  0.57820  Biso   1.000  H
  H307     1.0000 0.75700  0.04090  0.07820  Biso   1.000  H
  H308     1.0000 0.25700  0.54090  0.07820  Biso   1.000  H
  H309     1.0000 0.24300  0.04090  0.42180  Biso   1.000  H
  H310     1.0000 0.74300  0.54090  0.42180  Biso   1.000  H
  H311     1.0000 0.24300  0.95910  0.92180  Biso   1.000  H
  H312     1.0000 0.74300  0.45910  0.92180  Biso   1.000  H
  C377     1.0000 0.66920  0.77530  0.59870  Biso   1.000  C
  C378     1.0000 0.16920  0.27530  0.59870  Biso   1.000  C
  C379     1.0000 0.66920  0.22470  0.09870  Biso   1.000  C
  C380     1.0000 0.16920  0.72470  0.09870  Biso   1.000  C
  C381     1.0000 0.33080  0.22470  0.40130  Biso   1.000  C
  C382     1.0000 0.83080  0.72470  0.40130  Biso   1.000  C
  C383     1.0000 0.33080  0.77530  0.90130  Biso   1.000  C
  C384     1.0000 0.83080  0.27530  0.90130  Biso   1.000  C
  C385     1.0000 0.65710  0.69020  0.60610  Biso   1.000  C
  C386     1.0000 0.15710  0.19020  0.60610  Biso   1.000  C
  C387     1.0000 0.65710  0.30980  0.10610  Biso   1.000  C
  C388     1.0000 0.15710  0.80980  0.10610  Biso   1.000  C
  C389     1.0000 0.34290  0.30980  0.39390  Biso   1.000  C
  C390     1.0000 0.84290  0.80980  0.39390  Biso   1.000  C
  C391     1.0000 0.34290  0.69020  0.89390  Biso   1.000  C
  C392     1.0000 0.84290  0.19020  0.89390  Biso   1.000  C
  H313     1.0000 0.67680  0.64970  0.63150  Biso   1.000  H
  H314     1.0000 0.17680  0.14970  0.63150  Biso   1.000  H
  H315     1.0000 0.67680  0.35030  0.13150  Biso   1.000  H
  H316     1.0000 0.17680  0.85030  0.13150  Biso   1.000  H
  H317     1.0000 0.32320  0.35030  0.36850  Biso   1.000  H
  H318     1.0000 0.82320  0.85030  0.36850  Biso   1.000  H
  H319     1.0000 0.32320  0.64970  0.86850  Biso   1.000  H
  H320     1.0000 0.82320  0.14970  0.86850  Biso   1.000  H
  H321     1.0000 0.64130  0.65640  0.57340  Biso   1.000  H
  H322     1.0000 0.14130  0.15640  0.57340  Biso   1.000  H
  H323     1.0000 0.64130  0.34360  0.07340  Biso   1.000  H
  H324     1.0000 0.14130  0.84360  0.07340  Biso   1.000  H
  H325     1.0000 0.35870  0.34360  0.42660  Biso   1.000  H
  H326     1.0000 0.85870  0.84360  0.42660  Biso   1.000  H
  H327     1.0000 0.35870  0.65640  0.92660  Biso   1.000  H
  H328     1.0000 0.85870  0.15640  0.92660  Biso   1.000  H
  H329     1.0000 0.64520  0.70740  0.61840  Biso   1.000  H
  H330     1.0000 0.14520  0.20740  0.61840  Biso   1.000  H
  H331     1.0000 0.64520  0.29260  0.11840  Biso   1.000  H
  H332     1.0000 0.14520  0.79260  0.11840  Biso   1.000  H
  H333     1.0000 0.35480  0.29260  0.38160  Biso   1.000  H
  H334     1.0000 0.85480  0.79260  0.38160  Biso   1.000  H
  H335     1.0000 0.35480  0.70740  0.88160  Biso   1.000  H
  H336     1.0000 0.85480  0.20740  0.88160  Biso   1.000  H
  N89      1.0000 0.45370  0.33690  0.07580  Biso   1.000  N
  N90      1.0000 0.95370  0.83690  0.07580  Biso   1.000  N
  N91      1.0000 0.45370  0.66310  0.57580  Biso   1.000  N
  N92      1.0000 0.95370  0.16310  0.57580  Biso   1.000  N
  N93      1.0000 0.54630  0.66310  0.92420  Biso   1.000  N
  N94      1.0000 0.04630  0.16310  0.92420  Biso   1.000  N
  N95      1.0000 0.54630  0.33690  0.42420  Biso   1.000  N
  N96      1.0000 0.04630  0.83690  0.42420  Biso   1.000  N
  C393     1.0000 0.48790  0.34100  0.09760  Biso   1.000  C
  C394     1.0000 0.98790  0.84100  0.09760  Biso   1.000  C
  C395     1.0000 0.48790  0.65900  0.59760  Biso   1.000  C
  C396     1.0000 0.98790  0.15900  0.59760  Biso   1.000  C
  C397     1.0000 0.51210  0.65900  0.90240  Biso   1.000  C
  C398     1.0000 0.01210  0.15900  0.90240  Biso   1.000  C
  C399     1.0000 0.51210  0.34100  0.40240  Biso   1.000  C
  C400     1.0000 0.01210  0.84100  0.40240  Biso   1.000  C
  H337     1.0000 0.49430  0.31680  0.07930  Biso   1.000  H
  H338     1.0000 0.99430  0.81680  0.07930  Biso   1.000  H
  H339     1.0000 0.49430  0.68320  0.57930  Biso   1.000  H
  H340     1.0000 0.99430  0.18320  0.57930  Biso   1.000  H
  H341     1.0000 0.50570  0.68320  0.92070  Biso   1.000  H
  H342     1.0000 0.00570  0.18320  0.92070  Biso   1.000  H
  H343     1.0000 0.50570  0.31680  0.42070  Biso   1.000  H
  H344     1.0000 0.00570  0.81680  0.42070  Biso   1.000  H
  C401     1.0000 0.51250  0.38000  0.14620  Biso   1.000  C
  C402     1.0000 0.01250  0.88000  0.14620  Biso   1.000  C
  C403     1.0000 0.51250  0.62000  0.64620  Biso   1.000  C
  C404     1.0000 0.01250  0.12000  0.64620  Biso   1.000  C
  C405     1.0000 0.48750  0.62000  0.85380  Biso   1.000  C
  C406     1.0000 0.98750  0.12000  0.85380  Biso   1.000  C
  C407     1.0000 0.48750  0.38000  0.35380  Biso   1.000  C
  C408     1.0000 0.98750  0.88000  0.35380  Biso   1.000  C
  H345     1.0000 0.53580  0.38280  0.16100  Biso   1.000  H
  H346     1.0000 0.03580  0.88280  0.16100  Biso   1.000  H
  H347     1.0000 0.53580  0.61720  0.66100  Biso   1.000  H
  H348     1.0000 0.03580  0.11720  0.66100  Biso   1.000  H
  H349     1.0000 0.46420  0.61720  0.83900  Biso   1.000  H
  H350     1.0000 0.96420  0.11720  0.83900  Biso   1.000  H
  H351     1.0000 0.46420  0.38280  0.33900  Biso   1.000  H
  H352     1.0000 0.96420  0.88280  0.33900  Biso   1.000  H
  C409     1.0000 0.50300  0.41500  0.17290  Biso   1.000  C
  C410     1.0000 0.00300  0.91500  0.17290  Biso   1.000  C
  C411     1.0000 0.50300  0.58500  0.67290  Biso   1.000  C
  C412     1.0000 0.00300  0.08500  0.67290  Biso   1.000  C
  C413     1.0000 0.49700  0.58500  0.82710  Biso   1.000  C
  C414     1.0000 0.99700  0.08500  0.82710  Biso   1.000  C
  C415     1.0000 0.49700  0.41500  0.32710  Biso   1.000  C
  C416     1.0000 0.99700  0.91500  0.32710  Biso   1.000  C
  C417     1.0000 0.46890  0.41100  0.15120  Biso   1.000  C
  C418     1.0000 0.96890  0.91100  0.15120  Biso   1.000  C
  C419     1.0000 0.46890  0.58900  0.65120  Biso   1.000  C
  C420     1.0000 0.96890  0.08900  0.65120  Biso   1.000  C
  C421     1.0000 0.53110  0.58900  0.84880  Biso   1.000  C
  C422     1.0000 0.03110  0.08900  0.84880  Biso   1.000  C
  C423     1.0000 0.53110  0.41100  0.34880  Biso   1.000  C
  C424     1.0000 0.03110  0.91100  0.34880  Biso   1.000  C
  H353     1.0000 0.46240  0.43560  0.16950  Biso   1.000  H
  H354     1.0000 0.96240  0.93560  0.16950  Biso   1.000  H
  H355     1.0000 0.46240  0.56440  0.66950  Biso   1.000  H
  H356     1.0000 0.96240  0.06440  0.66950  Biso   1.000  H
  H357     1.0000 0.53760  0.56440  0.83050  Biso   1.000  H
  H358     1.0000 0.03760  0.06440  0.83050  Biso   1.000  H
  H359     1.0000 0.53760  0.43560  0.33050  Biso   1.000  H
  H360     1.0000 0.03760  0.93560  0.33050  Biso   1.000  H
  C425     1.0000 0.44420  0.37200  0.10260  Biso   1.000  C
  C426     1.0000 0.94420  0.87200  0.10260  Biso   1.000  C
  C427     1.0000 0.44420  0.62800  0.60260  Biso   1.000  C
  C428     1.0000 0.94420  0.12800  0.60260  Biso   1.000  C
  C429     1.0000 0.55580  0.62800  0.89740  Biso   1.000  C
  C430     1.0000 0.05580  0.12800  0.89740  Biso   1.000  C
  C431     1.0000 0.55580  0.37200  0.39740  Biso   1.000  C
  C432     1.0000 0.05580  0.87200  0.39740  Biso   1.000  C
  H361     1.0000 0.42090  0.36950  0.08780  Biso   1.000  H
  H362     1.0000 0.92090  0.86950  0.08780  Biso   1.000  H
  H363     1.0000 0.42090  0.63050  0.58780  Biso   1.000  H
  H364     1.0000 0.92090  0.13050  0.58780  Biso   1.000  H
  H365     1.0000 0.57910  0.63050  0.91220  Biso   1.000  H
  H366     1.0000 0.07910  0.13050  0.91220  Biso   1.000  H
  H367     1.0000 0.57910  0.36950  0.41220  Biso   1.000  H
  H368     1.0000 0.07910  0.86950  0.41220  Biso   1.000  H
  N97      1.0000 0.05200  0.83660  0.41550  Biso   1.000  N
  N98      1.0000 0.55200  0.33660  0.41550  Biso   1.000  N
  N99      1.0000 0.05200  0.16340  0.91550  Biso   1.000  N
  N100     1.0000 0.55200  0.66340  0.91550  Biso   1.000  N
  N101     1.0000 0.94800  0.16340  0.58450  Biso   1.000  N
  N102     1.0000 0.44800  0.66340  0.58450  Biso   1.000  N
  N103     1.0000 0.94800  0.83660  0.08450  Biso   1.000  N
  N104     1.0000 0.44800  0.33660  0.08450  Biso   1.000  N
  C433     1.0000 0.04140  0.92930  0.41050  Biso   1.000  C
  C434     1.0000 0.54140  0.42930  0.41050  Biso   1.000  C
  C435     1.0000 0.04140  0.07070  0.91050  Biso   1.000  C
  C436     1.0000 0.54140  0.57070  0.91050  Biso   1.000  C
  C437     1.0000 0.95860  0.07070  0.58950  Biso   1.000  C
  C438     1.0000 0.45860  0.57070  0.58950  Biso   1.000  C
  C439     1.0000 0.95860  0.92930  0.08950  Biso   1.000  C
  C440     1.0000 0.45860  0.42930  0.08950  Biso   1.000  C
  H369     1.0000 0.05110  0.96620  0.44030  Biso   1.000  H
  H370     1.0000 0.55110  0.46620  0.44030  Biso   1.000  H
  H371     1.0000 0.05110  0.03380  0.94030  Biso   1.000  H
  H372     1.0000 0.55110  0.53380  0.94030  Biso   1.000  H
  H373     1.0000 0.94890  0.03380  0.55970  Biso   1.000  H
  H374     1.0000 0.44890  0.53380  0.55970  Biso   1.000  H
  H375     1.0000 0.94890  0.96620  0.05970  Biso   1.000  H
  H376     1.0000 0.44890  0.46620  0.05970  Biso   1.000  H
  C441     1.0000 0.01680  0.96820  0.36180  Biso   1.000  C
  C442     1.0000 0.51680  0.46820  0.36180  Biso   1.000  C
  C443     1.0000 0.01680  0.03180  0.86180  Biso   1.000  C
  C444     1.0000 0.51680  0.53180  0.86180  Biso   1.000  C
  C445     1.0000 0.98320  0.03180  0.63820  Biso   1.000  C
  C446     1.0000 0.48320  0.53180  0.63820  Biso   1.000  C
  C447     1.0000 0.98320  0.96820  0.13820  Biso   1.000  C
  C448     1.0000 0.48320  0.46820  0.13820  Biso   1.000  C
  H377     1.0000 0.00960  0.03160  0.35840  Biso   1.000  H
  H378     1.0000 0.50960  0.53160  0.35840  Biso   1.000  H
  H379     1.0000 0.00960  0.96840  0.85840  Biso   1.000  H
  H380     1.0000 0.50960  0.46840  0.85840  Biso   1.000  H
  H381     1.0000 0.99040  0.96840  0.64160  Biso   1.000  H
  H382     1.0000 0.49040  0.46840  0.64160  Biso   1.000  H
  H383     1.0000 0.99040  0.03160  0.14160  Biso   1.000  H
  H384     1.0000 0.49040  0.53160  0.14160  Biso   1.000  H
  C449     1.0000 0.00260  0.91430  0.31830  Biso   1.000  C
  C450     1.0000 0.50260  0.41430  0.31830  Biso   1.000  C
  C451     1.0000 0.00260  0.08570  0.81830  Biso   1.000  C
  C452     1.0000 0.50260  0.58570  0.81830  Biso   1.000  C
  C453     1.0000 0.99740  0.08570  0.68170  Biso   1.000  C
  C454     1.0000 0.49740  0.58570  0.68170  Biso   1.000  C
  C455     1.0000 0.99740  0.91430  0.18170  Biso   1.000  C
  C456     1.0000 0.49740  0.41430  0.18170  Biso   1.000  C
  C457     1.0000 0.01320  0.82160  0.32330  Biso   1.000  C
  C458     1.0000 0.51320  0.32160  0.32330  Biso   1.000  C
  C459     1.0000 0.01320  0.17840  0.82330  Biso   1.000  C
  C460     1.0000 0.51320  0.67840  0.82330  Biso   1.000  C
  C461     1.0000 0.98680  0.17840  0.67670  Biso   1.000  C
  C462     1.0000 0.48680  0.67840  0.67670  Biso   1.000  C
  C463     1.0000 0.98680  0.82160  0.17670  Biso   1.000  C
  C464     1.0000 0.48680  0.32160  0.17670  Biso   1.000  C
  H385     1.0000 0.00350  0.78480  0.29360  Biso   1.000  H
  H386     1.0000 0.50350  0.28480  0.29360  Biso   1.000  H
  H387     1.0000 0.00350  0.21520  0.79360  Biso   1.000  H
  H388     1.0000 0.50350  0.71520  0.79360  Biso   1.000  H
  H389     1.0000 0.99650  0.21520  0.70640  Biso   1.000  H
  H390     1.0000 0.49650  0.71520  0.70640  Biso   1.000  H
  H391     1.0000 0.99650  0.78480  0.20640  Biso   1.000  H
  H392     1.0000 0.49650  0.28480  0.20640  Biso   1.000  H
  C465     1.0000 0.03780  0.78280  0.37200  Biso   1.000  C
  C466     1.0000 0.53780  0.28280  0.37200  Biso   1.000  C
  C467     1.0000 0.03780  0.21720  0.87200  Biso   1.000  C
  C468     1.0000 0.53780  0.71720  0.87200  Biso   1.000  C
  C469     1.0000 0.96220  0.21720  0.62800  Biso   1.000  C
  C470     1.0000 0.46220  0.71720  0.62800  Biso   1.000  C
  C471     1.0000 0.96220  0.78280  0.12800  Biso   1.000  C
  C472     1.0000 0.46220  0.28280  0.12800  Biso   1.000  C
  H393     1.0000 0.04500  0.71940  0.37540  Biso   1.000  H
  H394     1.0000 0.54500  0.21940  0.37540  Biso   1.000  H
  H395     1.0000 0.04500  0.28060  0.87540  Biso   1.000  H
  H396     1.0000 0.54500  0.78060  0.87540  Biso   1.000  H
  H397     1.0000 0.95500  0.28060  0.62460  Biso   1.000  H
  H398     1.0000 0.45500  0.78060  0.62460  Biso   1.000  H
  H399     1.0000 0.95500  0.71940  0.12460  Biso   1.000  H
  H400     1.0000 0.45500  0.21940  0.12460  Biso   1.000  H
  N105     1.0000 0.97780  0.57240  0.64000  Biso   1.000  N
  N106     1.0000 0.47780  0.07240  0.64000  Biso   1.000  N
  N107     1.0000 0.97780  0.42760  0.14000  Biso   1.000  N
  N108     1.0000 0.47780  0.92760  0.14000  Biso   1.000  N
  N109     1.0000 0.02220  0.42760  0.36000  Biso   1.000  N
  N110     1.0000 0.52220  0.92760  0.36000  Biso   1.000  N
  N111     1.0000 0.02220  0.57240  0.86000  Biso   1.000  N
  N112     1.0000 0.52220  0.07240  0.86000  Biso   1.000  N
  C473     1.0000 0.98240  0.50230  0.66860  Biso   1.000  C
  C474     1.0000 0.48240  0.00230  0.66860  Biso   1.000  C
  C475     1.0000 0.98240  0.49770  0.16860  Biso   1.000  C
  C476     1.0000 0.48240  0.99770  0.16860  Biso   1.000  C
  C477     1.0000 0.01760  0.49770  0.33140  Biso   1.000  C
  C478     1.0000 0.51760  0.99770  0.33140  Biso   1.000  C
  C479     1.0000 0.01760  0.50230  0.83140  Biso   1.000  C
  C480     1.0000 0.51760  0.00230  0.83140  Biso   1.000  C
  C481     1.0000 0.98950  0.43050  0.70590  Biso   1.000  C
  C482     1.0000 0.48950  0.93050  0.70590  Biso   1.000  C
  C483     1.0000 0.98950  0.56950  0.20590  Biso   1.000  C
  C484     1.0000 0.48950  0.06950  0.20590  Biso   1.000  C
  C485     1.0000 0.01050  0.56950  0.29410  Biso   1.000  C
  C486     1.0000 0.51050  0.06950  0.29410  Biso   1.000  C
  C487     1.0000 0.01050  0.43050  0.79410  Biso   1.000  C
  C488     1.0000 0.51050  0.93050  0.79410  Biso   1.000  C
  C489     1.0000 0.02290  0.39790  0.74330  Biso   1.000  C
  C490     1.0000 0.52290  0.89790  0.74330  Biso   1.000  C
  C491     1.0000 0.02290  0.60210  0.24330  Biso   1.000  C
  C492     1.0000 0.52290  0.10210  0.24330  Biso   1.000  C
  C493     1.0000 0.97710  0.60210  0.25670  Biso   1.000  C
  C494     1.0000 0.47710  0.10210  0.25670  Biso   1.000  C
  C495     1.0000 0.97710  0.39790  0.75670  Biso   1.000  C
  C496     1.0000 0.47710  0.89790  0.75670  Biso   1.000  C
  H401     1.0000 0.03930  0.40720  0.73930  Biso   1.000  H
  H402     1.0000 0.53930  0.90720  0.73930  Biso   1.000  H
  H403     1.0000 0.03930  0.59280  0.23930  Biso   1.000  H
  H404     1.0000 0.53930  0.09280  0.23930  Biso   1.000  H
  H405     1.0000 0.96070  0.59280  0.26070  Biso   1.000  H
  H406     1.0000 0.46070  0.09280  0.26070  Biso   1.000  H
  H407     1.0000 0.96070  0.40720  0.76070  Biso   1.000  H
  H408     1.0000 0.46070  0.90720  0.76070  Biso   1.000  H
  C497     1.0000 0.03240  0.35170  0.78650  Biso   1.000  C
  C498     1.0000 0.53240  0.85170  0.78650  Biso   1.000  C
  C499     1.0000 0.03240  0.64830  0.28650  Biso   1.000  C
  C500     1.0000 0.53240  0.14830  0.28650  Biso   1.000  C
  C501     1.0000 0.96760  0.64830  0.21350  Biso   1.000  C
  C502     1.0000 0.46760  0.14830  0.21350  Biso   1.000  C
  C503     1.0000 0.96760  0.35170  0.71350  Biso   1.000  C
  C504     1.0000 0.46760  0.85170  0.71350  Biso   1.000  C
  H409     1.0000 0.05520  0.32940  0.81210  Biso   1.000  H
  H410     1.0000 0.55520  0.82940  0.81210  Biso   1.000  H
  H411     1.0000 0.05520  0.67060  0.31210  Biso   1.000  H
  H412     1.0000 0.55520  0.17060  0.31210  Biso   1.000  H
  H413     1.0000 0.94480  0.67060  0.18790  Biso   1.000  H
  H414     1.0000 0.44480  0.17060  0.18790  Biso   1.000  H
  H415     1.0000 0.94480  0.32940  0.68790  Biso   1.000  H
  H416     1.0000 0.44480  0.82940  0.68790  Biso   1.000  H
  C505     1.0000 0.00840  0.33800  0.79240  Biso   1.000  C
  C506     1.0000 0.50840  0.83800  0.79240  Biso   1.000  C
  C507     1.0000 0.00840  0.66200  0.29240  Biso   1.000  C
  C508     1.0000 0.50840  0.16200  0.29240  Biso   1.000  C
  C509     1.0000 0.99160  0.66200  0.20760  Biso   1.000  C
  C510     1.0000 0.49160  0.16200  0.20760  Biso   1.000  C
  C511     1.0000 0.99160  0.33800  0.70760  Biso   1.000  C
  C512     1.0000 0.49160  0.83800  0.70760  Biso   1.000  C
  H417     1.0000 0.01490  0.30640  0.82200  Biso   1.000  H
  H418     1.0000 0.51490  0.80640  0.82200  Biso   1.000  H
  H419     1.0000 0.01490  0.69360  0.32200  Biso   1.000  H
  H420     1.0000 0.51490  0.19360  0.32200  Biso   1.000  H
  H421     1.0000 0.98510  0.69360  0.17800  Biso   1.000  H
  H422     1.0000 0.48510  0.19360  0.17800  Biso   1.000  H
  H423     1.0000 0.98510  0.30640  0.67800  Biso   1.000  H
  H424     1.0000 0.48510  0.80640  0.67800  Biso   1.000  H
  C513     1.0000 0.97500  0.37070  0.75500  Biso   1.000  C
  C514     1.0000 0.47500  0.87070  0.75500  Biso   1.000  C
  C515     1.0000 0.97500  0.62930  0.25500  Biso   1.000  C
  C516     1.0000 0.47500  0.12930  0.25500  Biso   1.000  C
  C517     1.0000 0.02500  0.62930  0.24500  Biso   1.000  C
  C518     1.0000 0.52500  0.12930  0.24500  Biso   1.000  C
  C519     1.0000 0.02500  0.37070  0.74500  Biso   1.000  C
  C520     1.0000 0.52500  0.87070  0.74500  Biso   1.000  C
  H425     1.0000 0.95860  0.36140  0.75900  Biso   1.000  H
  H426     1.0000 0.45860  0.86140  0.75900  Biso   1.000  H
  H427     1.0000 0.95860  0.63860  0.25900  Biso   1.000  H
  H428     1.0000 0.45860  0.13860  0.25900  Biso   1.000  H
  H429     1.0000 0.04140  0.63860  0.24100  Biso   1.000  H
  H430     1.0000 0.54140  0.13860  0.24100  Biso   1.000  H
  H431     1.0000 0.04140  0.36140  0.74100  Biso   1.000  H
  H432     1.0000 0.54140  0.86140  0.74100  Biso   1.000  H
  C521     1.0000 0.96550  0.41690  0.71180  Biso   1.000  C
  C522     1.0000 0.46550  0.91690  0.71180  Biso   1.000  C
  C523     1.0000 0.96550  0.58310  0.21180  Biso   1.000  C
  C524     1.0000 0.46550  0.08310  0.21180  Biso   1.000  C
  C525     1.0000 0.03450  0.58310  0.28820  Biso   1.000  C
  C526     1.0000 0.53450  0.08310  0.28820  Biso   1.000  C
  C527     1.0000 0.03450  0.41690  0.78820  Biso   1.000  C
  C528     1.0000 0.53450  0.91690  0.78820  Biso   1.000  C
  H433     1.0000 0.94260  0.43920  0.68620  Biso   1.000  H
  H434     1.0000 0.44260  0.93920  0.68620  Biso   1.000  H
  H435     1.0000 0.94260  0.56080  0.18620  Biso   1.000  H
  H436     1.0000 0.44260  0.06080  0.18620  Biso   1.000  H
  H437     1.0000 0.05740  0.56080  0.31380  Biso   1.000  H
  H438     1.0000 0.55740  0.06080  0.31380  Biso   1.000  H
  H439     1.0000 0.05740  0.43920  0.81380  Biso   1.000  H
  H440     1.0000 0.55740  0.93920  0.81380  Biso   1.000  H
  N113     1.0000 0.02340  0.33800  0.42280  Biso   1.000  N
  N114     1.0000 0.52340  0.83800  0.42280  Biso   1.000  N
  N115     1.0000 0.02340  0.66200  0.92280  Biso   1.000  N
  N116     1.0000 0.52340  0.16200  0.92280  Biso   1.000  N
  N117     1.0000 0.97660  0.66200  0.57720  Biso   1.000  N
  N118     1.0000 0.47660  0.16200  0.57720  Biso   1.000  N
  N119     1.0000 0.97660  0.33800  0.07720  Biso   1.000  N
  N120     1.0000 0.47660  0.83800  0.07720  Biso   1.000  N
  C529     1.0000 0.00250  0.27800  0.39610  Biso   1.000  C
  C530     1.0000 0.50250  0.77800  0.39610  Biso   1.000  C
  C531     1.0000 0.00250  0.72200  0.89610  Biso   1.000  C
  C532     1.0000 0.50250  0.22200  0.89610  Biso   1.000  C
  C533     1.0000 0.99750  0.72200  0.60390  Biso   1.000  C
  C534     1.0000 0.49750  0.22200  0.60390  Biso   1.000  C
  C535     1.0000 0.99750  0.27800  0.10390  Biso   1.000  C
  C536     1.0000 0.49750  0.77800  0.10390  Biso   1.000  C
  C537     1.0000 0.97550  0.20100  0.36610  Biso   1.000  C
  C538     1.0000 0.47550  0.70100  0.36610  Biso   1.000  C
  C539     1.0000 0.97550  0.79900  0.86610  Biso   1.000  C
  C540     1.0000 0.47550  0.29900  0.86610  Biso   1.000  C
  C541     1.0000 0.02450  0.79900  0.63390  Biso   1.000  C
  C542     1.0000 0.52450  0.29900  0.63390  Biso   1.000  C
  C543     1.0000 0.02450  0.20100  0.13390  Biso   1.000  C
  C544     1.0000 0.52450  0.70100  0.13390  Biso   1.000  C
  C545     1.0000 0.95990  0.18600  0.31490  Biso   1.000  C
  C546     1.0000 0.45990  0.68600  0.31490  Biso   1.000  C
  C547     1.0000 0.95990  0.81400  0.81490  Biso   1.000  C
  C548     1.0000 0.45990  0.31400  0.81490  Biso   1.000  C
  C549     1.0000 0.04010  0.81400  0.68510  Biso   1.000  C
  C550     1.0000 0.54010  0.31400  0.68510  Biso   1.000  C
  C551     1.0000 0.04010  0.18600  0.18510  Biso   1.000  C
  C552     1.0000 0.54010  0.68600  0.18510  Biso   1.000  C
  H441     1.0000 0.96720  0.22100  0.30010  Biso   1.000  H
  H442     1.0000 0.46720  0.72100  0.30010  Biso   1.000  H
  H443     1.0000 0.96720  0.77900  0.80010  Biso   1.000  H
  H444     1.0000 0.46720  0.27900  0.80010  Biso   1.000  H
  H445     1.0000 0.03280  0.77900  0.69990  Biso   1.000  H
  H446     1.0000 0.53280  0.27900  0.69990  Biso   1.000  H
  H447     1.0000 0.03280  0.22100  0.19990  Biso   1.000  H
  H448     1.0000 0.53280  0.72100  0.19990  Biso   1.000  H
  C553     1.0000 0.93360  0.12000  0.28550  Biso   1.000  C
  C554     1.0000 0.43360  0.62000  0.28550  Biso   1.000  C
  C555     1.0000 0.93360  0.88000  0.78550  Biso   1.000  C
  C556     1.0000 0.43360  0.38000  0.78550  Biso   1.000  C
  C557     1.0000 0.06640  0.88000  0.71450  Biso   1.000  C
  C558     1.0000 0.56640  0.38000  0.71450  Biso   1.000  C
  C559     1.0000 0.06640  0.12000  0.21450  Biso   1.000  C
  C560     1.0000 0.56640  0.62000  0.21450  Biso   1.000  C
  H449     1.0000 0.92300  0.11030  0.25060  Biso   1.000  H
  H450     1.0000 0.42300  0.61030  0.25060  Biso   1.000  H
  H451     1.0000 0.92300  0.88970  0.75060  Biso   1.000  H
  H452     1.0000 0.42300  0.38970  0.75060  Biso   1.000  H
  H453     1.0000 0.07700  0.88970  0.74940  Biso   1.000  H
  H454     1.0000 0.57700  0.38970  0.74940  Biso   1.000  H
  H455     1.0000 0.07700  0.11030  0.24940  Biso   1.000  H
  H456     1.0000 0.57700  0.61030  0.24940  Biso   1.000  H
  C561     1.0000 0.92300  0.06900  0.30730  Biso   1.000  C
  C562     1.0000 0.42300  0.56900  0.30730  Biso   1.000  C
  C563     1.0000 0.92300  0.93100  0.80730  Biso   1.000  C
  C564     1.0000 0.42300  0.43100  0.80730  Biso   1.000  C
  C565     1.0000 0.07700  0.93100  0.69270  Biso   1.000  C
  C566     1.0000 0.57700  0.43100  0.69270  Biso   1.000  C
  C567     1.0000 0.07700  0.06900  0.19270  Biso   1.000  C
  C568     1.0000 0.57700  0.56900  0.19270  Biso   1.000  C
  H457     1.0000 0.90500  0.02400  0.28720  Biso   1.000  H
  H458     1.0000 0.40500  0.52400  0.28720  Biso   1.000  H
  H459     1.0000 0.90500  0.97600  0.78720  Biso   1.000  H
  H460     1.0000 0.40500  0.47600  0.78720  Biso   1.000  H
  H461     1.0000 0.09500  0.97600  0.71280  Biso   1.000  H
  H462     1.0000 0.59500  0.47600  0.71280  Biso   1.000  H
  H463     1.0000 0.09500  0.02400  0.21280  Biso   1.000  H
  H464     1.0000 0.59500  0.52400  0.21280  Biso   1.000  H
  C569     1.0000 0.93850  0.08400  0.35840  Biso   1.000  C
  C570     1.0000 0.43850  0.58400  0.35840  Biso   1.000  C
  C571     1.0000 0.93850  0.91600  0.85840  Biso   1.000  C
  C572     1.0000 0.43850  0.41600  0.85840  Biso   1.000  C
  C573     1.0000 0.06150  0.91600  0.64160  Biso   1.000  C
  C574     1.0000 0.56150  0.41600  0.64160  Biso   1.000  C
  C575     1.0000 0.06150  0.08400  0.14160  Biso   1.000  C
  C576     1.0000 0.56150  0.58400  0.14160  Biso   1.000  C
  H465     1.0000 0.93120  0.04850  0.37320  Biso   1.000  H
  H466     1.0000 0.43120  0.54850  0.37320  Biso   1.000  H
  H467     1.0000 0.93120  0.95150  0.87320  Biso   1.000  H
  H468     1.0000 0.43120  0.45150  0.87320  Biso   1.000  H
  H469     1.0000 0.06880  0.95150  0.62680  Biso   1.000  H
  H470     1.0000 0.56880  0.45150  0.62680  Biso   1.000  H
  H471     1.0000 0.06880  0.04850  0.12680  Biso   1.000  H
  H472     1.0000 0.56880  0.54850  0.12680  Biso   1.000  H
  C577     1.0000 0.96480  0.14900  0.38780  Biso   1.000  C
  C578     1.0000 0.46480  0.64900  0.38780  Biso   1.000  C
  C579     1.0000 0.96480  0.85100  0.88780  Biso   1.000  C
  C580     1.0000 0.46480  0.35100  0.88780  Biso   1.000  C
  C581     1.0000 0.03520  0.85100  0.61220  Biso   1.000  C
  C582     1.0000 0.53520  0.35100  0.61220  Biso   1.000  C
  C583     1.0000 0.03520  0.14900  0.11220  Biso   1.000  C
  C584     1.0000 0.53520  0.64900  0.11220  Biso   1.000  C
  H473     1.0000 0.97550  0.15930  0.42270  Biso   1.000  H
  H474     1.0000 0.47550  0.65930  0.42270  Biso   1.000  H
  H475     1.0000 0.97550  0.84070  0.92270  Biso   1.000  H
  H476     1.0000 0.47550  0.34070  0.92270  Biso   1.000  H
  H477     1.0000 0.02450  0.84070  0.57730  Biso   1.000  H
  H478     1.0000 0.52450  0.34070  0.57730  Biso   1.000  H
  H479     1.0000 0.02450  0.15930  0.07730  Biso   1.000  H
  H480     1.0000 0.52450  0.65930  0.07730  Biso   1.000  H
