data_image0
_cell_length_a       18.0922
_cell_length_b       28.182
_cell_length_c       16.7188
_cell_angle_alpha    90
_cell_angle_beta     90
_cell_angle_gamma    90

_symmetry_space_group_name_H-M    "P 1"
_symmetry_int_tables_number       1

loop_
  _symmetry_equiv_pos_as_xyz
  'x, y, z'

loop_
  _atom_site_label
  _atom_site_occupancy
  _atom_site_fract_x
  _atom_site_fract_y
  _atom_site_fract_z
  _atom_site_thermal_displace_type
  _atom_site_B_iso_or_equiv
  _atom_site_type_symbol
  Cu1      1.0000 0.09792  0.54848  0.09719  Biso   1.000  Cu
  Cu2      1.0000 0.90208  0.45152  0.09719  Biso   1.000  Cu
  Cu3      1.0000 0.40208  0.04848  0.90281  Biso   1.000  Cu
  Cu4      1.0000 0.59792  0.95152  0.90281  Biso   1.000  Cu
  Cu5      1.0000 0.00000  0.50000  0.24272  Biso   1.000  Cu
  Cu6      1.0000 0.50000  0.00000  0.75728  Biso   1.000  Cu
  Cu7      1.0000 0.40025  0.31010  0.20826  Biso   1.000  Cu
  Cu8      1.0000 0.59975  0.68990  0.20826  Biso   1.000  Cu
  Cu9      1.0000 0.09975  0.81010  0.79174  Biso   1.000  Cu
  Cu10     1.0000 0.90025  0.18990  0.79174  Biso   1.000  Cu
  Cu11     1.0000 0.43946  0.35859  0.37121  Biso   1.000  Cu
  Cu12     1.0000 0.56054  0.64141  0.37121  Biso   1.000  Cu
  Cu13     1.0000 0.06054  0.85859  0.62879  Biso   1.000  Cu
  Cu14     1.0000 0.93946  0.14141  0.62879  Biso   1.000  Cu
  Cu15     1.0000 0.36827  0.28553  0.48763  Biso   1.000  Cu
  Cu16     1.0000 0.63173  0.71447  0.48763  Biso   1.000  Cu
  Cu17     1.0000 0.13173  0.78553  0.51237  Biso   1.000  Cu
  Cu18     1.0000 0.86827  0.21447  0.51237  Biso   1.000  Cu
  Cu19     1.0000 0.50000  0.00000  0.03133  Biso   1.000  Cu
  Cu20     1.0000 0.00000  0.50000  0.96867  Biso   1.000  Cu
  Cu21     1.0000 0.84348  0.26515  0.67122  Biso   1.000  Cu
  Cu22     1.0000 0.15652  0.73485  0.67122  Biso   1.000  Cu
  Cu23     1.0000 0.65652  0.76515  0.32878  Biso   1.000  Cu
  Cu24     1.0000 0.34348  0.23485  0.32878  Biso   1.000  Cu
  N1       1.0000 0.14320  0.51070  0.17420  Biso   1.000  N
  N2       1.0000 0.85680  0.48930  0.17420  Biso   1.000  N
  N3       1.0000 0.35680  0.01070  0.82580  Biso   1.000  N
  N4       1.0000 0.64320  0.98930  0.82580  Biso   1.000  N
  N5       1.0000 0.09720  0.49210  0.23750  Biso   1.000  N
  N6       1.0000 0.90280  0.50790  0.23750  Biso   1.000  N
  N7       1.0000 0.40280  0.99210  0.76250  Biso   1.000  N
  N8       1.0000 0.59720  0.00790  0.76250  Biso   1.000  N
  N9       1.0000 0.35780  0.36560  0.22830  Biso   1.000  N
  N10      1.0000 0.64220  0.63440  0.22830  Biso   1.000  N
  N11      1.0000 0.14220  0.86560  0.77170  Biso   1.000  N
  N12      1.0000 0.85780  0.13440  0.77170  Biso   1.000  N
  N13      1.0000 0.37040  0.38830  0.30440  Biso   1.000  N
  N14      1.0000 0.62960  0.61170  0.30440  Biso   1.000  N
  N15      1.0000 0.12960  0.88830  0.69560  Biso   1.000  N
  N16      1.0000 0.87040  0.11170  0.69560  Biso   1.000  N
  N17      1.0000 0.43620  0.25110  0.19520  Biso   1.000  N
  N18      1.0000 0.56380  0.74890  0.19520  Biso   1.000  N
  N19      1.0000 0.06380  0.75110  0.80480  Biso   1.000  N
  N20      1.0000 0.93620  0.24890  0.80480  Biso   1.000  N
  N21      1.0000 0.40940  0.21630  0.24920  Biso   1.000  N
  N22      1.0000 0.59060  0.78370  0.24920  Biso   1.000  N
  N23      1.0000 0.09060  0.71630  0.75080  Biso   1.000  N
  N24      1.0000 0.90940  0.28370  0.75080  Biso   1.000  N
  N25      1.0000 0.46720  0.29790  0.49550  Biso   1.000  N
  N26      1.0000 0.53280  0.70210  0.49550  Biso   1.000  N
  N27      1.0000 0.03280  0.79790  0.50450  Biso   1.000  N
  N28      1.0000 0.96720  0.20210  0.50450  Biso   1.000  N
  N29      1.0000 0.50090  0.32600  0.43550  Biso   1.000  N
  N30      1.0000 0.49910  0.67400  0.43550  Biso   1.000  N
  N31      1.0000 0.99910  0.82600  0.56450  Biso   1.000  N
  N32      1.0000 0.00090  0.17400  0.56450  Biso   1.000  N
  N33      1.0000 0.76250  0.26020  0.59980  Biso   1.000  N
  N34      1.0000 0.23750  0.73980  0.59980  Biso   1.000  N
  N35      1.0000 0.73750  0.76020  0.40020  Biso   1.000  N
  N36      1.0000 0.26250  0.23980  0.40020  Biso   1.000  N
  N37      1.0000 0.77400  0.23540  0.52570  Biso   1.000  N
  N38      1.0000 0.22600  0.76460  0.52570  Biso   1.000  N
  N39      1.0000 0.72600  0.73540  0.47430  Biso   1.000  N
  N40      1.0000 0.27400  0.26460  0.47430  Biso   1.000  N
  N41      1.0000 0.43940  0.08480  0.99080  Biso   1.000  N
  N42      1.0000 0.56060  0.91520  0.99080  Biso   1.000  N
  N43      1.0000 0.06060  0.58480  0.00920  Biso   1.000  N
  N44      1.0000 0.93940  0.41520  0.00920  Biso   1.000  N
  N45      1.0000 0.49110  0.06450  0.03360  Biso   1.000  N
  N46      1.0000 0.50890  0.93550  0.03360  Biso   1.000  N
  N47      1.0000 0.00890  0.56450  0.96640  Biso   1.000  N
  N48      1.0000 0.99110  0.43550  0.96640  Biso   1.000  N
  C1       1.0000 0.21310  0.49240  0.17040  Biso   1.000  C
  C2       1.0000 0.78690  0.50760  0.17040  Biso   1.000  C
  C3       1.0000 0.28690  0.99240  0.82960  Biso   1.000  C
  C4       1.0000 0.71310  0.00760  0.82960  Biso   1.000  C
  C5       1.0000 0.21280  0.45770  0.23730  Biso   1.000  C
  C6       1.0000 0.78720  0.54230  0.23730  Biso   1.000  C
  C7       1.0000 0.28720  0.95770  0.76270  Biso   1.000  C
  C8       1.0000 0.71280  0.04230  0.76270  Biso   1.000  C
  C9       1.0000 0.14640  0.46230  0.27470  Biso   1.000  C
  C10      1.0000 0.85360  0.53770  0.27470  Biso   1.000  C
  C11      1.0000 0.35360  0.96230  0.72530  Biso   1.000  C
  C12      1.0000 0.64640  0.03770  0.72530  Biso   1.000  C
  C13      1.0000 0.27320  0.42720  0.25280  Biso   1.000  C
  C14      1.0000 0.72680  0.57280  0.25280  Biso   1.000  C
  C15      1.0000 0.22680  0.92720  0.74720  Biso   1.000  C
  C16      1.0000 0.77320  0.07280  0.74720  Biso   1.000  C
  C17      1.0000 0.32740  0.42590  0.32030  Biso   1.000  C
  C18      1.0000 0.67260  0.57410  0.32030  Biso   1.000  C
  C19      1.0000 0.17260  0.92590  0.67970  Biso   1.000  C
  C20      1.0000 0.82740  0.07410  0.67970  Biso   1.000  C
  C21      1.0000 0.30590  0.39230  0.20370  Biso   1.000  C
  C22      1.0000 0.69410  0.60770  0.20370  Biso   1.000  C
  C23      1.0000 0.19410  0.89230  0.79630  Biso   1.000  C
  C24      1.0000 0.80590  0.10770  0.79630  Biso   1.000  C
  C25      1.0000 0.45550  0.22190  0.13030  Biso   1.000  C
  C26      1.0000 0.54450  0.77810  0.13030  Biso   1.000  C
  C27      1.0000 0.04450  0.72190  0.86970  Biso   1.000  C
  C28      1.0000 0.95550  0.27810  0.86970  Biso   1.000  C
  C29      1.0000 0.41720  0.17380  0.21960  Biso   1.000  C
  C30      1.0000 0.58280  0.82620  0.21960  Biso   1.000  C
  C31      1.0000 0.08280  0.67380  0.78040  Biso   1.000  C
  C32      1.0000 0.91720  0.32620  0.78040  Biso   1.000  C
  C33      1.0000 0.45730  0.13490  0.09080  Biso   1.000  C
  C34      1.0000 0.54270  0.86510  0.09080  Biso   1.000  C
  C35      1.0000 0.04270  0.63490  0.90920  Biso   1.000  C
  C36      1.0000 0.95730  0.36510  0.90920  Biso   1.000  C
  C37      1.0000 0.41700  0.12520  0.02080  Biso   1.000  C
  C38      1.0000 0.58300  0.87480  0.02080  Biso   1.000  C
  C39      1.0000 0.08300  0.62520  0.97920  Biso   1.000  C
  C40      1.0000 0.91700  0.37480  0.97920  Biso   1.000  C
  C41      1.0000 0.50100  0.09430  0.09920  Biso   1.000  C
  C42      1.0000 0.49900  0.90570  0.09920  Biso   1.000  C
  C43      1.0000 0.99900  0.59430  0.90080  Biso   1.000  C
  C44      1.0000 0.00100  0.40570  0.90080  Biso   1.000  C
  C45      1.0000 0.57600  0.32120  0.44500  Biso   1.000  C
  C46      1.0000 0.42400  0.67880  0.44500  Biso   1.000  C
  C47      1.0000 0.92400  0.82120  0.55500  Biso   1.000  C
  C48      1.0000 0.07600  0.17880  0.55500  Biso   1.000  C
  C49      1.0000 0.59030  0.29200  0.51030  Biso   1.000  C
  C50      1.0000 0.40970  0.70800  0.51030  Biso   1.000  C
  C51      1.0000 0.90970  0.79200  0.48970  Biso   1.000  C
  C52      1.0000 0.09030  0.20800  0.48970  Biso   1.000  C
  C53      1.0000 0.51970  0.27520  0.53490  Biso   1.000  C
  C54      1.0000 0.48030  0.72480  0.53490  Biso   1.000  C
  C55      1.0000 0.98030  0.77520  0.46510  Biso   1.000  C
  C56      1.0000 0.01970  0.22480  0.46510  Biso   1.000  C
  C57      1.0000 0.66280  0.27070  0.52980  Biso   1.000  C
  C58      1.0000 0.33720  0.72930  0.52980  Biso   1.000  C
  C59      1.0000 0.83720  0.77070  0.47020  Biso   1.000  C
  C60      1.0000 0.16280  0.22930  0.47020  Biso   1.000  C
  C61      1.0000 0.71440  0.24610  0.48720  Biso   1.000  C
  C62      1.0000 0.28560  0.75390  0.48720  Biso   1.000  C
  C63      1.0000 0.78560  0.74610  0.51280  Biso   1.000  C
  C64      1.0000 0.21440  0.25390  0.51280  Biso   1.000  C
  C65      1.0000 0.69980  0.27840  0.60490  Biso   1.000  C
  C66      1.0000 0.30020  0.72160  0.60490  Biso   1.000  C
  C67      1.0000 0.80020  0.77840  0.39510  Biso   1.000  C
  C68      1.0000 0.19980  0.22160  0.39510  Biso   1.000  C
  C69      1.0000 0.12110  0.43840  0.35340  Biso   1.000  C
  C70      1.0000 0.87890  0.56160  0.35340  Biso   1.000  C
  C71      1.0000 0.37890  0.93840  0.64660  Biso   1.000  C
  C72      1.0000 0.62110  0.06160  0.64660  Biso   1.000  C
  C73      1.0000 0.14130  0.39080  0.36530  Biso   1.000  C
  C74      1.0000 0.85870  0.60920  0.36530  Biso   1.000  C
  C75      1.0000 0.35870  0.89080  0.63470  Biso   1.000  C
  C76      1.0000 0.64130  0.10920  0.63470  Biso   1.000  C
  H1       1.0000 0.16170  0.37350  0.32340  Biso   1.000  H
  H2       1.0000 0.83830  0.62650  0.32340  Biso   1.000  H
  H3       1.0000 0.33830  0.87350  0.67660  Biso   1.000  H
  H4       1.0000 0.66170  0.12650  0.67660  Biso   1.000  H
  C77      1.0000 0.13090  0.36930  0.44010  Biso   1.000  C
  C78      1.0000 0.86910  0.63070  0.44010  Biso   1.000  C
  C79      1.0000 0.36910  0.86930  0.55990  Biso   1.000  C
  C80      1.0000 0.63090  0.13070  0.55990  Biso   1.000  C
  H5       1.0000 0.15250  0.34020  0.45230  Biso   1.000  H
  H6       1.0000 0.84750  0.65980  0.45230  Biso   1.000  H
  H7       1.0000 0.34750  0.84020  0.54770  Biso   1.000  H
  H8       1.0000 0.65250  0.15980  0.54770  Biso   1.000  H
  C81      1.0000 0.08670  0.39340  0.49570  Biso   1.000  C
  C82      1.0000 0.91330  0.60660  0.49570  Biso   1.000  C
  C83      1.0000 0.41330  0.89340  0.50430  Biso   1.000  C
  C84      1.0000 0.58670  0.10660  0.50430  Biso   1.000  C
  H9       1.0000 0.06870  0.37780  0.54070  Biso   1.000  H
  H10      1.0000 0.93130  0.62220  0.54070  Biso   1.000  H
  H11      1.0000 0.43130  0.87780  0.45930  Biso   1.000  H
  H12      1.0000 0.56870  0.12220  0.45930  Biso   1.000  H
  C85      1.0000 0.07030  0.44100  0.48260  Biso   1.000  C
  C86      1.0000 0.92970  0.55900  0.48260  Biso   1.000  C
  C87      1.0000 0.42970  0.94100  0.51740  Biso   1.000  C
  C88      1.0000 0.57030  0.05900  0.51740  Biso   1.000  C
  H13      1.0000 0.04590  0.45720  0.52320  Biso   1.000  H
  H14      1.0000 0.95410  0.54280  0.52320  Biso   1.000  H
  H15      1.0000 0.45410  0.95720  0.47680  Biso   1.000  H
  H16      1.0000 0.54590  0.04280  0.47680  Biso   1.000  H
  C89      1.0000 0.08780  0.46660  0.41290  Biso   1.000  C
  C90      1.0000 0.91220  0.53340  0.41290  Biso   1.000  C
  C91      1.0000 0.41220  0.96660  0.58710  Biso   1.000  C
  C92      1.0000 0.58780  0.03340  0.58710  Biso   1.000  C
  H17      1.0000 0.07820  0.49880  0.40670  Biso   1.000  H
  H18      1.0000 0.92180  0.50120  0.40670  Biso   1.000  H
  H19      1.0000 0.42180  0.99880  0.59330  Biso   1.000  H
  H20      1.0000 0.57820  0.00120  0.59330  Biso   1.000  H
  C93      1.0000 0.44920  0.17510  0.14220  Biso   1.000  C
  C94      1.0000 0.55080  0.82490  0.14220  Biso   1.000  C
  C95      1.0000 0.05080  0.67510  0.85780  Biso   1.000  C
  C96      1.0000 0.94920  0.32490  0.85780  Biso   1.000  C
  C97      1.0000 0.25650  0.50500  0.11360  Biso   1.000  C
  C98      1.0000 0.74350  0.49500  0.11360  Biso   1.000  C
  C99      1.0000 0.24350  0.00500  0.88640  Biso   1.000  C
  C100     1.0000 0.75650  0.99500  0.88640  Biso   1.000  C
  C101     1.0000 0.32940  0.51290  0.13640  Biso   1.000  C
  C102     1.0000 0.67060  0.48710  0.13640  Biso   1.000  C
  C103     1.0000 0.17060  0.01290  0.86360  Biso   1.000  C
  C104     1.0000 0.82940  0.98710  0.86360  Biso   1.000  C
  H21      1.0000 0.34290  0.51030  0.18990  Biso   1.000  H
  H22      1.0000 0.65710  0.48970  0.18990  Biso   1.000  H
  H23      1.0000 0.15710  0.01030  0.81010  Biso   1.000  H
  H24      1.0000 0.84290  0.98970  0.81010  Biso   1.000  H
  C105     1.0000 0.38210  0.52450  0.07920  Biso   1.000  C
  C106     1.0000 0.61790  0.47550  0.07920  Biso   1.000  C
  C107     1.0000 0.11790  0.02450  0.92080  Biso   1.000  C
  C108     1.0000 0.88210  0.97550  0.92080  Biso   1.000  C
  H25      1.0000 0.43090  0.52980  0.09440  Biso   1.000  H
  H26      1.0000 0.56910  0.47020  0.09440  Biso   1.000  H
  H27      1.0000 0.06910  0.02980  0.90560  Biso   1.000  H
  H28      1.0000 0.93090  0.97020  0.90560  Biso   1.000  H
  C109     1.0000 0.36200  0.52840  0.99920  Biso   1.000  C
  C110     1.0000 0.63800  0.47160  0.99920  Biso   1.000  C
  C111     1.0000 0.13800  0.02840  0.00080  Biso   1.000  C
  C112     1.0000 0.86200  0.97160  0.00080  Biso   1.000  C
  H29      1.0000 0.39720  0.53620  0.96100  Biso   1.000  H
  H30      1.0000 0.60280  0.46380  0.96100  Biso   1.000  H
  H31      1.0000 0.10280  0.03620  0.03900  Biso   1.000  H
  H32      1.0000 0.89720  0.96380  0.03900  Biso   1.000  H
  C113     1.0000 0.28910  0.52050  0.97640  Biso   1.000  C
  C114     1.0000 0.71090  0.47950  0.97640  Biso   1.000  C
  C115     1.0000 0.21090  0.02050  0.02360  Biso   1.000  C
  C116     1.0000 0.78910  0.97950  0.02360  Biso   1.000  C
  H33      1.0000 0.27560  0.52310  0.92290  Biso   1.000  H
  H34      1.0000 0.72440  0.47690  0.92290  Biso   1.000  H
  H35      1.0000 0.22440  0.02310  0.07710  Biso   1.000  H
  H36      1.0000 0.77560  0.97690  0.07710  Biso   1.000  H
  C117     1.0000 0.23640  0.50880  0.03360  Biso   1.000  C
  C118     1.0000 0.76360  0.49120  0.03360  Biso   1.000  C
  C119     1.0000 0.26360  0.00880  0.96640  Biso   1.000  C
  C120     1.0000 0.73640  0.99120  0.96640  Biso   1.000  C
  H37      1.0000 0.18760  0.50360  0.01840  Biso   1.000  H
  H38      1.0000 0.81240  0.49640  0.01840  Biso   1.000  H
  H39      1.0000 0.31240  0.00360  0.98160  Biso   1.000  H
  H40      1.0000 0.68760  0.99640  0.98160  Biso   1.000  H
  C121     1.0000 0.31280  0.44320  0.39760  Biso   1.000  C
  C122     1.0000 0.68720  0.55680  0.39760  Biso   1.000  C
  C123     1.0000 0.18720  0.94320  0.60240  Biso   1.000  C
  C124     1.0000 0.81280  0.05680  0.60240  Biso   1.000  C
  C125     1.0000 0.31000  0.41440  0.46500  Biso   1.000  C
  C126     1.0000 0.69000  0.58560  0.46500  Biso   1.000  C
  C127     1.0000 0.19000  0.91440  0.53500  Biso   1.000  C
  C128     1.0000 0.81000  0.08560  0.53500  Biso   1.000  C
  H41      1.0000 0.30940  0.38150  0.45930  Biso   1.000  H
  H42      1.0000 0.69060  0.61850  0.45930  Biso   1.000  H
  H43      1.0000 0.19060  0.88150  0.54070  Biso   1.000  H
  H44      1.0000 0.80940  0.11850  0.54070  Biso   1.000  H
  C129     1.0000 0.30790  0.43460  0.54070  Biso   1.000  C
  C130     1.0000 0.69210  0.56540  0.54070  Biso   1.000  C
  C131     1.0000 0.19210  0.93460  0.45930  Biso   1.000  C
  C132     1.0000 0.80790  0.06540  0.45930  Biso   1.000  C
  H45      1.0000 0.30600  0.41530  0.58580  Biso   1.000  H
  H46      1.0000 0.69400  0.58470  0.58580  Biso   1.000  H
  H47      1.0000 0.19400  0.91530  0.41420  Biso   1.000  H
  H48      1.0000 0.80600  0.08470  0.41420  Biso   1.000  H
  C133     1.0000 0.30880  0.48370  0.54920  Biso   1.000  C
  C134     1.0000 0.69120  0.51630  0.54920  Biso   1.000  C
  C135     1.0000 0.19120  0.98370  0.45080  Biso   1.000  C
  C136     1.0000 0.80880  0.01630  0.45080  Biso   1.000  C
  H49      1.0000 0.30740  0.49720  0.59990  Biso   1.000  H
  H50      1.0000 0.69260  0.50280  0.59990  Biso   1.000  H
  H51      1.0000 0.19260  0.99720  0.40010  Biso   1.000  H
  H52      1.0000 0.80740  0.00280  0.40010  Biso   1.000  H
  C137     1.0000 0.31160  0.51250  0.48180  Biso   1.000  C
  C138     1.0000 0.68840  0.48750  0.48180  Biso   1.000  C
  C139     1.0000 0.18840  0.01250  0.51820  Biso   1.000  C
  C140     1.0000 0.81160  0.98750  0.51820  Biso   1.000  C
  H53      1.0000 0.31220  0.54530  0.48740  Biso   1.000  H
  H54      1.0000 0.68780  0.45470  0.48740  Biso   1.000  H
  H55      1.0000 0.18780  0.04530  0.51260  Biso   1.000  H
  H56      1.0000 0.81220  0.95470  0.51260  Biso   1.000  H
  C141     1.0000 0.31370  0.49230  0.40600  Biso   1.000  C
  C142     1.0000 0.68630  0.50770  0.40600  Biso   1.000  C
  C143     1.0000 0.18630  0.99230  0.59400  Biso   1.000  C
  C144     1.0000 0.81370  0.00770  0.59400  Biso   1.000  C
  H57      1.0000 0.31560  0.51160  0.36090  Biso   1.000  H
  H58      1.0000 0.68440  0.48840  0.36090  Biso   1.000  H
  H59      1.0000 0.18440  0.01160  0.63910  Biso   1.000  H
  H60      1.0000 0.81560  0.98840  0.63910  Biso   1.000  H
  C145     1.0000 0.26780  0.37430  0.12640  Biso   1.000  C
  C146     1.0000 0.73220  0.62570  0.12640  Biso   1.000  C
  C147     1.0000 0.23220  0.87430  0.87360  Biso   1.000  C
  C148     1.0000 0.76780  0.12570  0.87360  Biso   1.000  C
  C149     1.0000 0.31810  0.36350  0.06620  Biso   1.000  C
  C150     1.0000 0.68190  0.63650  0.06620  Biso   1.000  C
  C151     1.0000 0.18190  0.86350  0.93380  Biso   1.000  C
  C152     1.0000 0.81810  0.13650  0.93380  Biso   1.000  C
  H61      1.0000 0.36850  0.36670  0.07550  Biso   1.000  H
  H62      1.0000 0.63150  0.63330  0.07550  Biso   1.000  H
  H63      1.0000 0.13150  0.86670  0.92450  Biso   1.000  H
  H64      1.0000 0.86850  0.13330  0.92450  Biso   1.000  H
  C153     1.0000 0.29300  0.34800  0.99210  Biso   1.000  C
  C154     1.0000 0.70700  0.65200  0.99210  Biso   1.000  C
  C155     1.0000 0.20700  0.84800  0.00790  Biso   1.000  C
  C156     1.0000 0.79300  0.15200  0.00790  Biso   1.000  C
  H65      1.0000 0.32660  0.34080  0.95190  Biso   1.000  H
  H66      1.0000 0.67340  0.65920  0.95190  Biso   1.000  H
  H67      1.0000 0.17340  0.84080  0.04810  Biso   1.000  H
  H68      1.0000 0.82660  0.15920  0.04810  Biso   1.000  H
  C157     1.0000 0.21760  0.34320  0.97820  Biso   1.000  C
  C158     1.0000 0.78240  0.65680  0.97820  Biso   1.000  C
  C159     1.0000 0.28240  0.84320  0.02180  Biso   1.000  C
  C160     1.0000 0.71760  0.15680  0.02180  Biso   1.000  C
  H69      1.0000 0.20080  0.33280  0.92870  Biso   1.000  H
  H70      1.0000 0.79920  0.66720  0.92870  Biso   1.000  H
  H71      1.0000 0.29920  0.83280  0.07130  Biso   1.000  H
  H72      1.0000 0.70080  0.16720  0.07130  Biso   1.000  H
  C161     1.0000 0.16730  0.35400  0.03840  Biso   1.000  C
  C162     1.0000 0.83270  0.64600  0.03840  Biso   1.000  C
  C163     1.0000 0.33270  0.85400  0.96160  Biso   1.000  C
  C164     1.0000 0.66730  0.14600  0.96160  Biso   1.000  C
  H73      1.0000 0.11690  0.35080  0.02910  Biso   1.000  H
  H74      1.0000 0.88310  0.64920  0.02910  Biso   1.000  H
  H75      1.0000 0.38310  0.85080  0.97090  Biso   1.000  H
  H76      1.0000 0.61690  0.14920  0.97090  Biso   1.000  H
  C165     1.0000 0.19240  0.36950  0.11250  Biso   1.000  C
  C166     1.0000 0.80760  0.63050  0.11250  Biso   1.000  C
  C167     1.0000 0.30760  0.86950  0.88750  Biso   1.000  C
  C168     1.0000 0.69240  0.13050  0.88750  Biso   1.000  C
  H77      1.0000 0.15880  0.37670  0.15280  Biso   1.000  H
  H78      1.0000 0.84120  0.62330  0.15280  Biso   1.000  H
  H79      1.0000 0.34120  0.87670  0.84720  Biso   1.000  H
  H80      1.0000 0.65880  0.12330  0.84720  Biso   1.000  H
  C169     1.0000 0.48040  0.24420  0.05310  Biso   1.000  C
  C170     1.0000 0.51960  0.75580  0.05310  Biso   1.000  C
  C171     1.0000 0.01960  0.74420  0.94690  Biso   1.000  C
  C172     1.0000 0.98040  0.25580  0.94690  Biso   1.000  C
  C173     1.0000 0.43530  0.27750  0.01580  Biso   1.000  C
  C174     1.0000 0.56470  0.72250  0.01580  Biso   1.000  C
  C175     1.0000 0.06470  0.77750  0.98420  Biso   1.000  C
  C176     1.0000 0.93530  0.22250  0.98420  Biso   1.000  C
  H81      1.0000 0.39390  0.28920  0.04210  Biso   1.000  H
  H82      1.0000 0.60610  0.71080  0.04210  Biso   1.000  H
  H83      1.0000 0.10610  0.78920  0.95790  Biso   1.000  H
  H84      1.0000 0.89390  0.21080  0.95790  Biso   1.000  H
  C177     1.0000 0.45230  0.29330  0.93920  Biso   1.000  C
  C178     1.0000 0.54770  0.70670  0.93920  Biso   1.000  C
  C179     1.0000 0.04770  0.79330  0.06080  Biso   1.000  C
  C180     1.0000 0.95230  0.20670  0.06080  Biso   1.000  C
  H85      1.0000 0.42220  0.31560  0.91430  Biso   1.000  H
  H86      1.0000 0.57780  0.68440  0.91430  Biso   1.000  H
  H87      1.0000 0.07780  0.81560  0.08570  Biso   1.000  H
  H88      1.0000 0.92220  0.18440  0.08570  Biso   1.000  H
  C181     1.0000 0.51430  0.27580  0.90000  Biso   1.000  C
  C182     1.0000 0.48570  0.72420  0.90000  Biso   1.000  C
  C183     1.0000 0.98570  0.77580  0.10000  Biso   1.000  C
  C184     1.0000 0.01430  0.22420  0.10000  Biso   1.000  C
  H89      1.0000 0.52570  0.28640  0.84870  Biso   1.000  H
  H90      1.0000 0.47430  0.71360  0.84870  Biso   1.000  H
  H91      1.0000 0.97430  0.78640  0.15130  Biso   1.000  H
  H92      1.0000 0.02570  0.21360  0.15130  Biso   1.000  H
  C185     1.0000 0.55930  0.24250  0.93720  Biso   1.000  C
  C186     1.0000 0.44070  0.75750  0.93720  Biso   1.000  C
  C187     1.0000 0.94070  0.74250  0.06280  Biso   1.000  C
  C188     1.0000 0.05930  0.25750  0.06280  Biso   1.000  C
  H93      1.0000 0.60080  0.23080  0.91100  Biso   1.000  H
  H94      1.0000 0.39920  0.76920  0.91100  Biso   1.000  H
  H95      1.0000 0.89920  0.73080  0.08900  Biso   1.000  H
  H96      1.0000 0.10080  0.26920  0.08900  Biso   1.000  H
  C189     1.0000 0.54230  0.22670  0.01380  Biso   1.000  C
  C190     1.0000 0.45770  0.77330  0.01380  Biso   1.000  C
  C191     1.0000 0.95770  0.72670  0.98620  Biso   1.000  C
  C192     1.0000 0.04230  0.27330  0.98620  Biso   1.000  C
  H97      1.0000 0.57250  0.20440  0.03880  Biso   1.000  H
  H98      1.0000 0.42750  0.79560  0.03880  Biso   1.000  H
  H99      1.0000 0.92750  0.70440  0.96120  Biso   1.000  H
  H100     1.0000 0.07250  0.29560  0.96120  Biso   1.000  H
  C193     1.0000 0.39280  0.13340  0.27020  Biso   1.000  C
  C194     1.0000 0.60720  0.86660  0.27020  Biso   1.000  C
  C195     1.0000 0.10720  0.63340  0.72980  Biso   1.000  C
  C196     1.0000 0.89280  0.36660  0.72980  Biso   1.000  C
  C197     1.0000 0.41700  0.13080  0.34900  Biso   1.000  C
  C198     1.0000 0.58300  0.86920  0.34900  Biso   1.000  C
  C199     1.0000 0.08300  0.63080  0.65100  Biso   1.000  C
  C200     1.0000 0.91700  0.36920  0.65100  Biso   1.000  C
  H101     1.0000 0.44920  0.15360  0.36890  Biso   1.000  H
  H102     1.0000 0.55080  0.84640  0.36890  Biso   1.000  H
  H103     1.0000 0.05080  0.65360  0.63110  Biso   1.000  H
  H104     1.0000 0.94920  0.34640  0.63110  Biso   1.000  H
  C201     1.0000 0.39300  0.09400  0.39800  Biso   1.000  C
  C202     1.0000 0.60700  0.90600  0.39800  Biso   1.000  C
  C203     1.0000 0.10700  0.59400  0.60200  Biso   1.000  C
  C204     1.0000 0.89300  0.40600  0.60200  Biso   1.000  C
  H105     1.0000 0.40920  0.09230  0.45070  Biso   1.000  H
  H106     1.0000 0.59080  0.90770  0.45070  Biso   1.000  H
  H107     1.0000 0.09080  0.59230  0.54930  Biso   1.000  H
  H108     1.0000 0.90920  0.40770  0.54930  Biso   1.000  H
  C205     1.0000 0.34470  0.05990  0.36820  Biso   1.000  C
  C206     1.0000 0.65530  0.94010  0.36820  Biso   1.000  C
  C207     1.0000 0.15530  0.55990  0.63180  Biso   1.000  C
  C208     1.0000 0.84470  0.44010  0.63180  Biso   1.000  C
  H109     1.0000 0.32870  0.03540  0.40100  Biso   1.000  H
  H110     1.0000 0.67130  0.96460  0.40100  Biso   1.000  H
  H111     1.0000 0.17130  0.53540  0.59900  Biso   1.000  H
  H112     1.0000 0.82870  0.46460  0.59900  Biso   1.000  H
  C209     1.0000 0.32050  0.06260  0.28940  Biso   1.000  C
  C210     1.0000 0.67950  0.93740  0.28940  Biso   1.000  C
  C211     1.0000 0.17950  0.56260  0.71060  Biso   1.000  C
  C212     1.0000 0.82050  0.43740  0.71060  Biso   1.000  C
  H113     1.0000 0.28830  0.03980  0.26950  Biso   1.000  H
  H114     1.0000 0.71170  0.96020  0.26950  Biso   1.000  H
  H115     1.0000 0.21170  0.53980  0.73050  Biso   1.000  H
  H116     1.0000 0.78830  0.46020  0.73050  Biso   1.000  H
  C213     1.0000 0.34450  0.09930  0.24040  Biso   1.000  C
  C214     1.0000 0.65550  0.90070  0.24040  Biso   1.000  C
  C215     1.0000 0.15550  0.59930  0.75960  Biso   1.000  C
  C216     1.0000 0.84450  0.40070  0.75960  Biso   1.000  C
  H117     1.0000 0.32830  0.10110  0.18770  Biso   1.000  H
  H118     1.0000 0.67170  0.89890  0.18770  Biso   1.000  H
  H119     1.0000 0.17170  0.60110  0.81230  Biso   1.000  H
  H120     1.0000 0.82830  0.39890  0.81230  Biso   1.000  H
  C217     1.0000 0.36270  0.15560  0.97820  Biso   1.000  C
  C218     1.0000 0.63730  0.84440  0.97820  Biso   1.000  C
  C219     1.0000 0.13730  0.65560  0.02180  Biso   1.000  C
  C220     1.0000 0.86270  0.34440  0.02180  Biso   1.000  C
  C221     1.0000 0.36280  0.15840  0.89520  Biso   1.000  C
  C222     1.0000 0.63720  0.84160  0.89520  Biso   1.000  C
  C223     1.0000 0.13720  0.65840  0.10480  Biso   1.000  C
  C224     1.0000 0.86280  0.34160  0.10480  Biso   1.000  C
  H121     1.0000 0.39900  0.14260  0.86590  Biso   1.000  H
  H122     1.0000 0.60100  0.85740  0.86590  Biso   1.000  H
  H123     1.0000 0.10100  0.64260  0.13410  Biso   1.000  H
  H124     1.0000 0.89900  0.35740  0.13410  Biso   1.000  H
  C225     1.0000 0.30880  0.18460  0.85590  Biso   1.000  C
  C226     1.0000 0.69120  0.81540  0.85590  Biso   1.000  C
  C227     1.0000 0.19120  0.68460  0.14410  Biso   1.000  C
  C228     1.0000 0.80880  0.31540  0.14410  Biso   1.000  C
  H125     1.0000 0.30890  0.18650  0.80040  Biso   1.000  H
  H126     1.0000 0.69110  0.81350  0.80040  Biso   1.000  H
  H127     1.0000 0.19110  0.68650  0.19960  Biso   1.000  H
  H128     1.0000 0.80890  0.31350  0.19960  Biso   1.000  H
  C229     1.0000 0.25470  0.20820  0.89960  Biso   1.000  C
  C230     1.0000 0.74530  0.79180  0.89960  Biso   1.000  C
  C231     1.0000 0.24530  0.70820  0.10040  Biso   1.000  C
  C232     1.0000 0.75470  0.29180  0.10040  Biso   1.000  C
  H129     1.0000 0.21860  0.22570  0.87340  Biso   1.000  H
  H130     1.0000 0.78140  0.77430  0.87340  Biso   1.000  H
  H131     1.0000 0.28140  0.72570  0.12660  Biso   1.000  H
  H132     1.0000 0.71860  0.27430  0.12660  Biso   1.000  H
  C233     1.0000 0.25460  0.20540  0.98260  Biso   1.000  C
  C234     1.0000 0.74540  0.79460  0.98260  Biso   1.000  C
  C235     1.0000 0.24540  0.70540  0.01740  Biso   1.000  C
  C236     1.0000 0.75460  0.29460  0.01740  Biso   1.000  C
  H133     1.0000 0.21840  0.22120  0.01190  Biso   1.000  H
  H134     1.0000 0.78160  0.77880  0.01190  Biso   1.000  H
  H135     1.0000 0.28160  0.72120  0.98810  Biso   1.000  H
  H136     1.0000 0.71840  0.27880  0.98810  Biso   1.000  H
  C237     1.0000 0.30860  0.17920  0.02190  Biso   1.000  C
  C238     1.0000 0.69140  0.82080  0.02190  Biso   1.000  C
  C239     1.0000 0.19140  0.67920  0.97810  Biso   1.000  C
  C240     1.0000 0.80860  0.32080  0.97810  Biso   1.000  C
  H137     1.0000 0.30850  0.17730  0.07750  Biso   1.000  H
  H138     1.0000 0.69150  0.82270  0.07750  Biso   1.000  H
  H139     1.0000 0.19150  0.67730  0.92250  Biso   1.000  H
  H140     1.0000 0.80850  0.32270  0.92250  Biso   1.000  H
  C241     1.0000 0.57090  0.08880  0.14850  Biso   1.000  C
  C242     1.0000 0.42910  0.91120  0.14850  Biso   1.000  C
  C243     1.0000 0.92910  0.58880  0.85150  Biso   1.000  C
  C244     1.0000 0.07090  0.41120  0.85150  Biso   1.000  C
  C245     1.0000 0.63630  0.07470  0.11200  Biso   1.000  C
  C246     1.0000 0.36370  0.92530  0.11200  Biso   1.000  C
  C247     1.0000 0.86370  0.57470  0.88800  Biso   1.000  C
  C248     1.0000 0.13630  0.42530  0.88800  Biso   1.000  C
  H141     1.0000 0.63950  0.07360  0.05650  Biso   1.000  H
  H142     1.0000 0.36050  0.92640  0.05650  Biso   1.000  H
  H143     1.0000 0.86050  0.57360  0.94350  Biso   1.000  H
  H144     1.0000 0.13950  0.42640  0.94350  Biso   1.000  H
  C249     1.0000 0.69690  0.06200  0.15850  Biso   1.000  C
  C250     1.0000 0.30310  0.93800  0.15850  Biso   1.000  C
  C251     1.0000 0.80310  0.56200  0.84150  Biso   1.000  C
  C252     1.0000 0.19690  0.43800  0.84150  Biso   1.000  C
  H145     1.0000 0.74070  0.05250  0.13400  Biso   1.000  H
  H146     1.0000 0.25930  0.94750  0.13400  Biso   1.000  H
  H147     1.0000 0.75930  0.55250  0.86600  Biso   1.000  H
  H148     1.0000 0.24070  0.44750  0.86600  Biso   1.000  H
  C253     1.0000 0.69210  0.06350  0.24140  Biso   1.000  C
  C254     1.0000 0.30790  0.93650  0.24140  Biso   1.000  C
  C255     1.0000 0.80790  0.56350  0.75860  Biso   1.000  C
  C256     1.0000 0.19210  0.43650  0.75860  Biso   1.000  C
  H149     1.0000 0.73270  0.05510  0.27250  Biso   1.000  H
  H150     1.0000 0.26730  0.94490  0.27250  Biso   1.000  H
  H151     1.0000 0.76730  0.55510  0.72750  Biso   1.000  H
  H152     1.0000 0.23270  0.44490  0.72750  Biso   1.000  H
  C257     1.0000 0.62670  0.07770  0.27790  Biso   1.000  C
  C258     1.0000 0.37330  0.92230  0.27790  Biso   1.000  C
  C259     1.0000 0.87330  0.57770  0.72210  Biso   1.000  C
  C260     1.0000 0.12670  0.42230  0.72210  Biso   1.000  C
  H153     1.0000 0.62350  0.07870  0.33340  Biso   1.000  H
  H154     1.0000 0.37650  0.92130  0.33340  Biso   1.000  H
  H155     1.0000 0.87650  0.57870  0.66660  Biso   1.000  H
  H156     1.0000 0.12350  0.42130  0.66660  Biso   1.000  H
  C261     1.0000 0.56610  0.09030  0.23150  Biso   1.000  C
  C262     1.0000 0.43390  0.90970  0.23150  Biso   1.000  C
  C263     1.0000 0.93390  0.59030  0.76850  Biso   1.000  C
  C264     1.0000 0.06610  0.40970  0.76850  Biso   1.000  C
  H157     1.0000 0.52230  0.09980  0.25590  Biso   1.000  H
  H158     1.0000 0.47770  0.90020  0.25590  Biso   1.000  H
  H159     1.0000 0.97770  0.59980  0.74410  Biso   1.000  H
  H160     1.0000 0.02230  0.40020  0.74410  Biso   1.000  H
  C265     1.0000 0.70370  0.22950  0.40030  Biso   1.000  C
  C266     1.0000 0.29630  0.77050  0.40030  Biso   1.000  C
  C267     1.0000 0.79630  0.72950  0.59970  Biso   1.000  C
  C268     1.0000 0.20370  0.27050  0.59970  Biso   1.000  C
  C269     1.0000 0.76300  0.22960  0.34750  Biso   1.000  C
  C270     1.0000 0.23700  0.77040  0.34750  Biso   1.000  C
  C271     1.0000 0.73700  0.72960  0.65250  Biso   1.000  C
  C272     1.0000 0.26300  0.27040  0.65250  Biso   1.000  C
  H161     1.0000 0.81000  0.23750  0.36560  Biso   1.000  H
  H162     1.0000 0.19000  0.76250  0.36560  Biso   1.000  H
  H163     1.0000 0.69000  0.73750  0.63440  Biso   1.000  H
  H164     1.0000 0.31000  0.26250  0.63440  Biso   1.000  H
  C273     1.0000 0.75210  0.21790  0.26760  Biso   1.000  C
  C274     1.0000 0.24790  0.78210  0.26760  Biso   1.000  C
  C275     1.0000 0.74790  0.71790  0.73240  Biso   1.000  C
  C276     1.0000 0.25210  0.28210  0.73240  Biso   1.000  C
  H165     1.0000 0.79180  0.21800  0.23220  Biso   1.000  H
  H166     1.0000 0.20820  0.78200  0.23220  Biso   1.000  H
  H167     1.0000 0.70820  0.71800  0.76780  Biso   1.000  H
  H168     1.0000 0.29180  0.28200  0.76780  Biso   1.000  H
  C277     1.0000 0.68180  0.20610  0.24050  Biso   1.000  C
  C278     1.0000 0.31820  0.79390  0.24050  Biso   1.000  C
  C279     1.0000 0.81820  0.70610  0.75950  Biso   1.000  C
  C280     1.0000 0.18180  0.29390  0.75950  Biso   1.000  C
  H169     1.0000 0.67450  0.19830  0.18700  Biso   1.000  H
  H170     1.0000 0.32550  0.80170  0.18700  Biso   1.000  H
  H171     1.0000 0.82550  0.69830  0.81300  Biso   1.000  H
  H172     1.0000 0.17450  0.30170  0.81300  Biso   1.000  H
  C281     1.0000 0.62250  0.20600  0.29330  Biso   1.000  C
  C282     1.0000 0.37750  0.79400  0.29330  Biso   1.000  C
  C283     1.0000 0.87750  0.70600  0.70670  Biso   1.000  C
  C284     1.0000 0.12250  0.29400  0.70670  Biso   1.000  C
  H173     1.0000 0.57550  0.19810  0.27520  Biso   1.000  H
  H174     1.0000 0.42450  0.80190  0.27520  Biso   1.000  H
  H175     1.0000 0.92450  0.69810  0.72480  Biso   1.000  H
  H176     1.0000 0.07550  0.30190  0.72480  Biso   1.000  H
  C285     1.0000 0.63340  0.21770  0.37320  Biso   1.000  C
  C286     1.0000 0.36660  0.78230  0.37320  Biso   1.000  C
  C287     1.0000 0.86660  0.71770  0.62680  Biso   1.000  C
  C288     1.0000 0.13340  0.28230  0.62680  Biso   1.000  C
  H177     1.0000 0.59370  0.21760  0.40850  Biso   1.000  H
  H178     1.0000 0.40630  0.78240  0.40850  Biso   1.000  H
  H179     1.0000 0.90630  0.71760  0.59150  Biso   1.000  H
  H180     1.0000 0.09370  0.28240  0.59150  Biso   1.000  H
  C289     1.0000 0.67780  0.30620  0.67250  Biso   1.000  C
  C290     1.0000 0.32220  0.69380  0.67250  Biso   1.000  C
  C291     1.0000 0.82220  0.80620  0.32750  Biso   1.000  C
  C292     1.0000 0.17780  0.19380  0.32750  Biso   1.000  C
  C293     1.0000 0.64640  0.35060  0.65950  Biso   1.000  C
  C294     1.0000 0.35360  0.64940  0.65950  Biso   1.000  C
  C295     1.0000 0.85360  0.85060  0.34050  Biso   1.000  C
  C296     1.0000 0.14640  0.14940  0.34050  Biso   1.000  C
  H181     1.0000 0.63480  0.36020  0.60780  Biso   1.000  H
  H182     1.0000 0.36520  0.63980  0.60780  Biso   1.000  H
  H183     1.0000 0.86520  0.86020  0.39220  Biso   1.000  H
  H184     1.0000 0.13480  0.13980  0.39220  Biso   1.000  H
  C297     1.0000 0.63250  0.38060  0.72380  Biso   1.000  C
  C298     1.0000 0.36750  0.61940  0.72380  Biso   1.000  C
  C299     1.0000 0.86750  0.88060  0.27620  Biso   1.000  C
  C300     1.0000 0.13250  0.11940  0.27620  Biso   1.000  C
  H185     1.0000 0.61150  0.41030  0.71510  Biso   1.000  H
  H186     1.0000 0.38850  0.58970  0.71510  Biso   1.000  H
  H187     1.0000 0.88850  0.91030  0.28490  Biso   1.000  H
  H188     1.0000 0.11150  0.08970  0.28490  Biso   1.000  H
  C301     1.0000 0.65000  0.36620  0.80100  Biso   1.000  C
  C302     1.0000 0.35000  0.63380  0.80100  Biso   1.000  C
  C303     1.0000 0.85000  0.86620  0.19900  Biso   1.000  C
  C304     1.0000 0.15000  0.13380  0.19900  Biso   1.000  C
  H189     1.0000 0.64060  0.38630  0.84400  Biso   1.000  H
  H190     1.0000 0.35940  0.61370  0.84400  Biso   1.000  H
  H191     1.0000 0.85940  0.88630  0.15600  Biso   1.000  H
  H192     1.0000 0.14060  0.11370  0.15600  Biso   1.000  H
  C305     1.0000 0.68130  0.32190  0.81400  Biso   1.000  C
  C306     1.0000 0.31870  0.67810  0.81400  Biso   1.000  C
  C307     1.0000 0.81870  0.82190  0.18600  Biso   1.000  C
  C308     1.0000 0.18130  0.17810  0.18600  Biso   1.000  C
  H193     1.0000 0.69300  0.31230  0.86570  Biso   1.000  H
  H194     1.0000 0.30700  0.68770  0.86570  Biso   1.000  H
  H195     1.0000 0.80700  0.81230  0.13430  Biso   1.000  H
  H196     1.0000 0.19300  0.18770  0.13430  Biso   1.000  H
  C309     1.0000 0.69520  0.29190  0.74980  Biso   1.000  C
  C310     1.0000 0.30480  0.70810  0.74980  Biso   1.000  C
  C311     1.0000 0.80480  0.79190  0.25020  Biso   1.000  C
  C312     1.0000 0.19520  0.20810  0.25020  Biso   1.000  C
  H197     1.0000 0.71620  0.26220  0.75850  Biso   1.000  H
  H198     1.0000 0.28380  0.73780  0.75850  Biso   1.000  H
  H199     1.0000 0.78380  0.76220  0.24150  Biso   1.000  H
  H200     1.0000 0.21620  0.23780  0.24150  Biso   1.000  H
  C313     1.0000 0.62750  0.34760  0.39610  Biso   1.000  C
  C314     1.0000 0.37250  0.65240  0.39610  Biso   1.000  C
  C315     1.0000 0.87250  0.84760  0.60390  Biso   1.000  C
  C316     1.0000 0.12750  0.15240  0.60390  Biso   1.000  C
  C317     1.0000 0.69340  0.36550  0.42630  Biso   1.000  C
  C318     1.0000 0.30660  0.63450  0.42630  Biso   1.000  C
  C319     1.0000 0.80660  0.86550  0.57370  Biso   1.000  C
  C320     1.0000 0.19340  0.13450  0.57370  Biso   1.000  C
  H201     1.0000 0.70410  0.36260  0.48040  Biso   1.000  H
  H202     1.0000 0.29590  0.63740  0.48040  Biso   1.000  H
  H203     1.0000 0.79590  0.86260  0.51960  Biso   1.000  H
  H204     1.0000 0.20410  0.13740  0.51960  Biso   1.000  H
  C321     1.0000 0.74330  0.38780  0.37540  Biso   1.000  C
  C322     1.0000 0.25670  0.61220  0.37540  Biso   1.000  C
  C323     1.0000 0.75670  0.88780  0.62460  Biso   1.000  C
  C324     1.0000 0.24330  0.11220  0.62460  Biso   1.000  C
  H205     1.0000 0.78740  0.39980  0.39560  Biso   1.000  H
  H206     1.0000 0.21260  0.60020  0.39560  Biso   1.000  H
  H207     1.0000 0.71260  0.89980  0.60440  Biso   1.000  H
  H208     1.0000 0.28740  0.10020  0.60440  Biso   1.000  H
  C325     1.0000 0.72730  0.39220  0.29450  Biso   1.000  C
  C326     1.0000 0.27270  0.60780  0.29450  Biso   1.000  C
  C327     1.0000 0.77270  0.89220  0.70550  Biso   1.000  C
  C328     1.0000 0.22730  0.10780  0.70550  Biso   1.000  C
  H209     1.0000 0.76070  0.40710  0.26050  Biso   1.000  H
  H210     1.0000 0.23930  0.59290  0.26050  Biso   1.000  H
  H211     1.0000 0.73930  0.90710  0.73950  Biso   1.000  H
  H212     1.0000 0.26070  0.09290  0.73950  Biso   1.000  H
  C329     1.0000 0.66140  0.37430  0.26430  Biso   1.000  C
  C330     1.0000 0.33860  0.62570  0.26430  Biso   1.000  C
  C331     1.0000 0.83860  0.87430  0.73570  Biso   1.000  C
  C332     1.0000 0.16140  0.12570  0.73570  Biso   1.000  C
  H213     1.0000 0.65070  0.37720  0.21010  Biso   1.000  H
  H214     1.0000 0.34930  0.62280  0.21010  Biso   1.000  H
  H215     1.0000 0.84930  0.87720  0.78990  Biso   1.000  H
  H216     1.0000 0.15070  0.12280  0.78990  Biso   1.000  H
  C333     1.0000 0.61140  0.35200  0.31510  Biso   1.000  C
  C334     1.0000 0.38860  0.64800  0.31510  Biso   1.000  C
  C335     1.0000 0.88860  0.85200  0.68490  Biso   1.000  C
  C336     1.0000 0.11140  0.14800  0.68490  Biso   1.000  C
  H217     1.0000 0.56730  0.34000  0.29490  Biso   1.000  H
  H218     1.0000 0.43270  0.66000  0.29490  Biso   1.000  H
  H219     1.0000 0.93270  0.84000  0.70510  Biso   1.000  H
  H220     1.0000 0.06730  0.16000  0.70510  Biso   1.000  H
  C337     1.0000 0.49680  0.23520  0.59190  Biso   1.000  C
  C338     1.0000 0.50320  0.76480  0.59190  Biso   1.000  C
  C339     1.0000 0.00320  0.73520  0.40810  Biso   1.000  C
  C340     1.0000 0.99680  0.26480  0.40810  Biso   1.000  C
  C341     1.0000 0.52090  0.23710  0.67070  Biso   1.000  C
  C342     1.0000 0.47910  0.76290  0.67070  Biso   1.000  C
  C343     1.0000 0.97910  0.73710  0.32930  Biso   1.000  C
  C344     1.0000 0.02090  0.26290  0.32930  Biso   1.000  C
  H221     1.0000 0.54880  0.26280  0.68830  Biso   1.000  H
  H222     1.0000 0.45120  0.73720  0.68830  Biso   1.000  H
  H223     1.0000 0.95120  0.76280  0.31170  Biso   1.000  H
  H224     1.0000 0.04880  0.23720  0.31170  Biso   1.000  H
  C345     1.0000 0.50340  0.20070  0.72340  Biso   1.000  C
  C346     1.0000 0.49660  0.79930  0.72340  Biso   1.000  C
  C347     1.0000 0.99660  0.70070  0.27660  Biso   1.000  C
  C348     1.0000 0.00340  0.29930  0.27660  Biso   1.000  C
  H225     1.0000 0.51950  0.20200  0.77620  Biso   1.000  H
  H226     1.0000 0.48050  0.79800  0.77620  Biso   1.000  H
  H227     1.0000 0.98050  0.70200  0.22380  Biso   1.000  H
  H228     1.0000 0.01950  0.29800  0.22380  Biso   1.000  H
  C349     1.0000 0.46170  0.16230  0.69720  Biso   1.000  C
  C350     1.0000 0.53830  0.83770  0.69720  Biso   1.000  C
  C351     1.0000 0.03830  0.66230  0.30280  Biso   1.000  C
  C352     1.0000 0.96170  0.33770  0.30280  Biso   1.000  C
  H229     1.0000 0.44990  0.13790  0.73240  Biso   1.000  H
  H230     1.0000 0.55010  0.86210  0.73240  Biso   1.000  H
  H231     1.0000 0.05010  0.63790  0.26760  Biso   1.000  H
  H232     1.0000 0.94990  0.36210  0.26760  Biso   1.000  H
  C353     1.0000 0.43760  0.16030  0.61830  Biso   1.000  C
  C354     1.0000 0.56240  0.83970  0.61830  Biso   1.000  C
  C355     1.0000 0.06240  0.66030  0.38170  Biso   1.000  C
  C356     1.0000 0.93760  0.33970  0.38170  Biso   1.000  C
  H233     1.0000 0.40970  0.13460  0.60080  Biso   1.000  H
  H234     1.0000 0.59030  0.86540  0.60080  Biso   1.000  H
  H235     1.0000 0.09030  0.63460  0.39920  Biso   1.000  H
  H236     1.0000 0.90970  0.36540  0.39920  Biso   1.000  H
  C357     1.0000 0.45520  0.19680  0.56560  Biso   1.000  C
  C358     1.0000 0.54480  0.80320  0.56560  Biso   1.000  C
  C359     1.0000 0.04480  0.69680  0.43440  Biso   1.000  C
  C360     1.0000 0.95520  0.30320  0.43440  Biso   1.000  C
  H237     1.0000 0.43900  0.19550  0.51290  Biso   1.000  H
  H238     1.0000 0.56100  0.80450  0.51290  Biso   1.000  H
  H239     1.0000 0.06100  0.69550  0.48710  Biso   1.000  H
  H240     1.0000 0.93900  0.30450  0.48710  Biso   1.000  H
