data_image0
_cell_length_a       24.898
_cell_length_b       12.486
_cell_length_c       34.978
_cell_angle_alpha    90
_cell_angle_beta     105.103
_cell_angle_gamma    90

_symmetry_space_group_name_H-M    "P 1"
_symmetry_int_tables_number       1

loop_
  _symmetry_equiv_pos_as_xyz
  'x, y, z'

loop_
  _atom_site_label
  _atom_site_occupancy
  _atom_site_fract_x
  _atom_site_fract_y
  _atom_site_fract_z
  _atom_site_thermal_displace_type
  _atom_site_B_iso_or_equiv
  _atom_site_type_symbol
  Si1      1.0000 0.50000  0.60060  0.25000  Biso   1.000  Si
  Si2      1.0000 0.00000  0.10060  0.25000  Biso   1.000  Si
  Si3      1.0000 0.50000  0.39940  0.75000  Biso   1.000  Si
  Si4      1.0000 0.00000  0.89940  0.75000  Biso   1.000  Si
  Mo1      1.0000 0.59291  0.78807  0.22773  Biso   1.000  Mo
  Mo2      1.0000 0.40709  0.78807  0.27227  Biso   1.000  Mo
  Mo3      1.0000 0.09291  0.28807  0.22773  Biso   1.000  Mo
  Mo4      1.0000 0.90709  0.28807  0.27227  Biso   1.000  Mo
  Mo5      1.0000 0.40709  0.21193  0.77227  Biso   1.000  Mo
  Mo6      1.0000 0.59291  0.21193  0.72773  Biso   1.000  Mo
  Mo7      1.0000 0.90709  0.71193  0.77227  Biso   1.000  Mo
  Mo8      1.0000 0.09291  0.71193  0.72773  Biso   1.000  Mo
  Mo9      1.0000 0.45741  0.81113  0.18123  Biso   1.000  Mo
  Mo10     1.0000 0.54259  0.81113  0.31877  Biso   1.000  Mo
  Mo11     1.0000 0.95741  0.31113  0.18123  Biso   1.000  Mo
  Mo12     1.0000 0.04259  0.31113  0.31877  Biso   1.000  Mo
  Mo13     1.0000 0.54259  0.18887  0.81877  Biso   1.000  Mo
  Mo14     1.0000 0.45741  0.18887  0.68123  Biso   1.000  Mo
  Mo15     1.0000 0.04259  0.68887  0.81877  Biso   1.000  Mo
  Mo16     1.0000 0.95741  0.68887  0.68123  Biso   1.000  Mo
  Mo17     1.0000 0.63752  0.58997  0.30969  Biso   1.000  Mo
  Mo18     1.0000 0.36248  0.58997  0.19031  Biso   1.000  Mo
  Mo19     1.0000 0.13752  0.08997  0.30969  Biso   1.000  Mo
  Mo20     1.0000 0.86248  0.08997  0.19031  Biso   1.000  Mo
  Mo21     1.0000 0.36248  0.41003  0.69031  Biso   1.000  Mo
  Mo22     1.0000 0.63752  0.41003  0.80969  Biso   1.000  Mo
  Mo23     1.0000 0.86248  0.91003  0.69031  Biso   1.000  Mo
  Mo24     1.0000 0.13752  0.91003  0.80969  Biso   1.000  Mo
  Mo25     1.0000 0.40040  0.41278  0.26406  Biso   1.000  Mo
  Mo26     1.0000 0.59960  0.41278  0.23594  Biso   1.000  Mo
  Mo27     1.0000 0.90040  0.91278  0.26406  Biso   1.000  Mo
  Mo28     1.0000 0.09960  0.91278  0.23594  Biso   1.000  Mo
  Mo29     1.0000 0.59960  0.58722  0.73594  Biso   1.000  Mo
  Mo30     1.0000 0.40040  0.58722  0.76406  Biso   1.000  Mo
  Mo31     1.0000 0.09960  0.08722  0.73594  Biso   1.000  Mo
  Mo32     1.0000 0.90040  0.08722  0.76406  Biso   1.000  Mo
  Mo33     1.0000 0.44871  0.38952  0.18402  Biso   1.000  Mo
  Mo34     1.0000 0.55129  0.38952  0.31598  Biso   1.000  Mo
  Mo35     1.0000 0.94871  0.88952  0.18402  Biso   1.000  Mo
  Mo36     1.0000 0.05129  0.88952  0.31598  Biso   1.000  Mo
  Mo37     1.0000 0.55129  0.61048  0.81598  Biso   1.000  Mo
  Mo38     1.0000 0.44871  0.61048  0.68402  Biso   1.000  Mo
  Mo39     1.0000 0.05129  0.11048  0.81598  Biso   1.000  Mo
  Mo40     1.0000 0.94871  0.11048  0.68402  Biso   1.000  Mo
  Mo41     1.0000 0.53381  0.60895  0.15860  Biso   1.000  Mo
  Mo42     1.0000 0.46619  0.60895  0.34140  Biso   1.000  Mo
  Mo43     1.0000 0.03381  0.10895  0.15860  Biso   1.000  Mo
  Mo44     1.0000 0.96619  0.10895  0.34140  Biso   1.000  Mo
  Mo45     1.0000 0.46619  0.39105  0.84140  Biso   1.000  Mo
  Mo46     1.0000 0.53381  0.39105  0.65860  Biso   1.000  Mo
  Mo47     1.0000 0.96619  0.89105  0.84140  Biso   1.000  Mo
  Mo48     1.0000 0.03381  0.89105  0.65860  Biso   1.000  Mo
  Cu1      1.0000 0.82839  0.32348  0.45577  Biso   1.000  Cu
  Cu2      1.0000 0.17161  0.32348  0.04423  Biso   1.000  Cu
  Cu3      1.0000 0.32839  0.82348  0.45577  Biso   1.000  Cu
  Cu4      1.0000 0.67161  0.82348  0.04423  Biso   1.000  Cu
  Cu5      1.0000 0.17161  0.67652  0.54423  Biso   1.000  Cu
  Cu6      1.0000 0.82839  0.67652  0.95577  Biso   1.000  Cu
  Cu7      1.0000 0.67161  0.17652  0.54423  Biso   1.000  Cu
  Cu8      1.0000 0.32839  0.17652  0.95577  Biso   1.000  Cu
  Cu9      1.0000 0.72533  0.13218  0.46254  Biso   1.000  Cu
  Cu10     1.0000 0.27467  0.13218  0.03746  Biso   1.000  Cu
  Cu11     1.0000 0.22533  0.63218  0.46254  Biso   1.000  Cu
  Cu12     1.0000 0.77467  0.63218  0.03746  Biso   1.000  Cu
  Cu13     1.0000 0.27467  0.86782  0.53746  Biso   1.000  Cu
  Cu14     1.0000 0.72533  0.86782  0.96254  Biso   1.000  Cu
  Cu15     1.0000 0.77467  0.36782  0.53746  Biso   1.000  Cu
  Cu16     1.0000 0.22533  0.36782  0.96254  Biso   1.000  Cu
  Cu17     1.0000 0.68054  0.32547  0.38941  Biso   1.000  Cu
  Cu18     1.0000 0.31946  0.32547  0.11059  Biso   1.000  Cu
  Cu19     1.0000 0.18054  0.82547  0.38941  Biso   1.000  Cu
  Cu20     1.0000 0.81946  0.82547  0.11059  Biso   1.000  Cu
  Cu21     1.0000 0.31946  0.67453  0.61059  Biso   1.000  Cu
  Cu22     1.0000 0.68054  0.67453  0.88941  Biso   1.000  Cu
  Cu23     1.0000 0.81946  0.17453  0.61059  Biso   1.000  Cu
  Cu24     1.0000 0.18054  0.17453  0.88941  Biso   1.000  Cu
  Cu25     1.0000 0.77607  0.50667  0.38097  Biso   1.000  Cu
  Cu26     1.0000 0.22393  0.50667  0.11903  Biso   1.000  Cu
  Cu27     1.0000 0.27607  0.00667  0.38097  Biso   1.000  Cu
  Cu28     1.0000 0.72393  0.00667  0.11903  Biso   1.000  Cu
  Cu29     1.0000 0.22393  0.49333  0.61903  Biso   1.000  Cu
  Cu30     1.0000 0.77607  0.49333  0.88097  Biso   1.000  Cu
  Cu31     1.0000 0.72393  0.99333  0.61903  Biso   1.000  Cu
  Cu32     1.0000 0.27607  0.99333  0.88097  Biso   1.000  Cu
  O1       1.0000 0.41470  0.51530  0.30245  Biso   1.000  O
  O2       1.0000 0.58530  0.51530  0.19755  Biso   1.000  O
  O3       1.0000 0.91470  0.01530  0.30245  Biso   1.000  O
  O4       1.0000 0.08530  0.01530  0.19755  Biso   1.000  O
  O5       1.0000 0.58530  0.48470  0.69755  Biso   1.000  O
  O6       1.0000 0.41470  0.48470  0.80245  Biso   1.000  O
  O7       1.0000 0.08530  0.98470  0.69755  Biso   1.000  O
  O8       1.0000 0.91470  0.98470  0.80245  Biso   1.000  O
  O9       1.0000 0.48770  0.72670  0.14233  Biso   1.000  O
  O10      1.0000 0.51230  0.72670  0.35767  Biso   1.000  O
  O11      1.0000 0.98770  0.22670  0.14233  Biso   1.000  O
  O12      1.0000 0.01230  0.22670  0.35767  Biso   1.000  O
  O13      1.0000 0.51230  0.27330  0.85767  Biso   1.000  O
  O14      1.0000 0.48770  0.27330  0.64233  Biso   1.000  O
  O15      1.0000 0.01230  0.77330  0.85767  Biso   1.000  O
  O16      1.0000 0.98770  0.77330  0.64233  Biso   1.000  O
  O17      1.0000 0.62060  0.47620  0.33791  Biso   1.000  O
  O18      1.0000 0.37940  0.47620  0.16209  Biso   1.000  O
  O19      1.0000 0.12060  0.97620  0.33791  Biso   1.000  O
  O20      1.0000 0.87940  0.97620  0.16209  Biso   1.000  O
  O21      1.0000 0.37940  0.52380  0.66209  Biso   1.000  O
  O22      1.0000 0.62060  0.52380  0.83791  Biso   1.000  O
  O23      1.0000 0.87940  0.02380  0.66209  Biso   1.000  O
  O24      1.0000 0.12060  0.02380  0.83791  Biso   1.000  O
  O25      1.0000 0.40190  0.69280  0.17154  Biso   1.000  O
  O26      1.0000 0.59810  0.69280  0.32846  Biso   1.000  O
  O27      1.0000 0.90190  0.19280  0.17154  Biso   1.000  O
  O28      1.0000 0.09810  0.19280  0.32846  Biso   1.000  O
  O29      1.0000 0.59810  0.30720  0.82846  Biso   1.000  O
  O30      1.0000 0.40190  0.30720  0.67154  Biso   1.000  O
  O31      1.0000 0.09810  0.80720  0.82846  Biso   1.000  O
  O32      1.0000 0.90190  0.80720  0.67154  Biso   1.000  O
  O33      1.0000 0.52780  0.87350  0.19673  Biso   1.000  O
  O34      1.0000 0.47220  0.87350  0.30327  Biso   1.000  O
  O35      1.0000 0.02780  0.37350  0.19673  Biso   1.000  O
  O36      1.0000 0.97220  0.37350  0.30327  Biso   1.000  O
  O37      1.0000 0.47220  0.12650  0.80327  Biso   1.000  O
  O38      1.0000 0.52780  0.12650  0.69673  Biso   1.000  O
  O39      1.0000 0.97220  0.62650  0.80327  Biso   1.000  O
  O40      1.0000 0.02780  0.62650  0.69673  Biso   1.000  O
  O41      1.0000 0.41500  0.32780  0.21948  Biso   1.000  O
  O42      1.0000 0.58500  0.32780  0.28052  Biso   1.000  O
  O43      1.0000 0.91500  0.82780  0.21948  Biso   1.000  O
  O44      1.0000 0.08500  0.82780  0.28052  Biso   1.000  O
  O45      1.0000 0.58500  0.67220  0.78052  Biso   1.000  O
  O46      1.0000 0.41500  0.67220  0.71948  Biso   1.000  O
  O47      1.0000 0.08500  0.17220  0.78052  Biso   1.000  O
  O48      1.0000 0.91500  0.17220  0.71948  Biso   1.000  O
  O49      1.0000 0.56380  0.83760  0.27386  Biso   1.000  O
  O50      1.0000 0.43620  0.83760  0.22614  Biso   1.000  O
  O51      1.0000 0.06380  0.33760  0.27386  Biso   1.000  O
  O52      1.0000 0.93620  0.33760  0.22614  Biso   1.000  O
  O53      1.0000 0.43620  0.16240  0.72614  Biso   1.000  O
  O54      1.0000 0.56380  0.16240  0.77386  Biso   1.000  O
  O55      1.0000 0.93620  0.66240  0.72614  Biso   1.000  O
  O56      1.0000 0.06380  0.66240  0.77386  Biso   1.000  O
  O57      1.0000 0.59440  0.71830  0.18179  Biso   1.000  O
  O58      1.0000 0.40560  0.71830  0.31821  Biso   1.000  O
  O59      1.0000 0.09440  0.21830  0.18179  Biso   1.000  O
  O60      1.0000 0.90560  0.21830  0.31821  Biso   1.000  O
  O61      1.0000 0.40560  0.28170  0.81821  Biso   1.000  O
  O62      1.0000 0.59440  0.28170  0.68179  Biso   1.000  O
  O63      1.0000 0.90560  0.78170  0.81821  Biso   1.000  O
  O64      1.0000 0.09440  0.78170  0.68179  Biso   1.000  O
  O65      1.0000 0.48120  0.50870  0.15720  Biso   1.000  O
  O66      1.0000 0.51880  0.50870  0.34280  Biso   1.000  O
  O67      1.0000 0.98120  0.00870  0.15720  Biso   1.000  O
  O68      1.0000 0.01880  0.00870  0.34280  Biso   1.000  O
  O69      1.0000 0.51880  0.49130  0.84280  Biso   1.000  O
  O70      1.0000 0.48120  0.49130  0.65720  Biso   1.000  O
  O71      1.0000 0.01880  0.99130  0.84280  Biso   1.000  O
  O72      1.0000 0.98120  0.99130  0.65720  Biso   1.000  O
  O73      1.0000 0.70370  0.61620  0.33468  Biso   1.000  O
  O74      1.0000 0.29630  0.61620  0.16532  Biso   1.000  O
  O75      1.0000 0.20370  0.11620  0.33468  Biso   1.000  O
  O76      1.0000 0.79630  0.11620  0.16532  Biso   1.000  O
  O77      1.0000 0.29630  0.38380  0.66532  Biso   1.000  O
  O78      1.0000 0.70370  0.38380  0.83468  Biso   1.000  O
  O79      1.0000 0.79630  0.88380  0.66532  Biso   1.000  O
  O80      1.0000 0.20370  0.88380  0.83468  Biso   1.000  O
  O81      1.0000 0.62910  0.68670  0.26258  Biso   1.000  O
  O82      1.0000 0.37090  0.68670  0.23742  Biso   1.000  O
  O83      1.0000 0.12910  0.18670  0.26258  Biso   1.000  O
  O84      1.0000 0.87090  0.18670  0.23742  Biso   1.000  O
  O85      1.0000 0.37090  0.31330  0.73742  Biso   1.000  O
  O86      1.0000 0.62910  0.31330  0.76258  Biso   1.000  O
  O87      1.0000 0.87090  0.81330  0.73742  Biso   1.000  O
  O88      1.0000 0.12910  0.81330  0.76258  Biso   1.000  O
  O89      1.0000 0.42270  0.90250  0.14870  Biso   1.000  O
  O90      1.0000 0.57730  0.90250  0.35130  Biso   1.000  O
  O91      1.0000 0.92270  0.40250  0.14870  Biso   1.000  O
  O92      1.0000 0.07730  0.40250  0.35130  Biso   1.000  O
  O93      1.0000 0.57730  0.09750  0.85130  Biso   1.000  O
  O94      1.0000 0.42270  0.09750  0.64870  Biso   1.000  O
  O95      1.0000 0.07730  0.59750  0.85130  Biso   1.000  O
  O96      1.0000 0.92270  0.59750  0.64870  Biso   1.000  O
  O97      1.0000 0.47940  0.36400  0.28946  Biso   1.000  O
  O98      1.0000 0.52060  0.36400  0.21054  Biso   1.000  O
  O99      1.0000 0.97940  0.86400  0.28946  Biso   1.000  O
  O100     1.0000 0.02060  0.86400  0.21054  Biso   1.000  O
  O101     1.0000 0.52060  0.63600  0.71054  Biso   1.000  O
  O102     1.0000 0.47940  0.63600  0.78946  Biso   1.000  O
  O103     1.0000 0.02060  0.13600  0.71054  Biso   1.000  O
  O104     1.0000 0.97940  0.13600  0.78946  Biso   1.000  O
  O105     1.0000 0.55630  0.58650  0.11783  Biso   1.000  O
  O106     1.0000 0.44370  0.58650  0.38217  Biso   1.000  O
  O107     1.0000 0.05630  0.08650  0.11783  Biso   1.000  O
  O108     1.0000 0.94370  0.08650  0.38217  Biso   1.000  O
  O109     1.0000 0.44370  0.41350  0.88217  Biso   1.000  O
  O110     1.0000 0.55630  0.41350  0.61783  Biso   1.000  O
  O111     1.0000 0.94370  0.91350  0.88217  Biso   1.000  O
  O112     1.0000 0.05630  0.91350  0.61783  Biso   1.000  O
  O113     1.0000 0.65550  0.48120  0.27150  Biso   1.000  O
  O114     1.0000 0.34450  0.48120  0.22850  Biso   1.000  O
  O115     1.0000 0.15550  0.98120  0.27150  Biso   1.000  O
  O116     1.0000 0.84450  0.98120  0.22850  Biso   1.000  O
  O117     1.0000 0.34450  0.51880  0.72850  Biso   1.000  O
  O118     1.0000 0.65550  0.51880  0.77150  Biso   1.000  O
  O119     1.0000 0.84450  0.01880  0.72850  Biso   1.000  O
  O120     1.0000 0.15550  0.01880  0.77150  Biso   1.000  O
  O121     1.0000 0.64330  0.88060  0.23000  Biso   1.000  O
  O122     1.0000 0.35670  0.88060  0.27000  Biso   1.000  O
  O123     1.0000 0.14330  0.38060  0.23000  Biso   1.000  O
  O124     1.0000 0.85670  0.38060  0.27000  Biso   1.000  O
  O125     1.0000 0.35670  0.11940  0.77000  Biso   1.000  O
  O126     1.0000 0.64330  0.11940  0.73000  Biso   1.000  O
  O127     1.0000 0.85670  0.61940  0.77000  Biso   1.000  O
  O128     1.0000 0.14330  0.61940  0.73000  Biso   1.000  O
  O129     1.0000 0.36560  0.32110  0.28254  Biso   1.000  O
  O130     1.0000 0.63440  0.32110  0.21746  Biso   1.000  O
  O131     1.0000 0.86560  0.82110  0.28254  Biso   1.000  O
  O132     1.0000 0.13440  0.82110  0.21746  Biso   1.000  O
  O133     1.0000 0.63440  0.67890  0.71746  Biso   1.000  O
  O134     1.0000 0.36560  0.67890  0.78254  Biso   1.000  O
  O135     1.0000 0.13440  0.17890  0.71746  Biso   1.000  O
  O136     1.0000 0.86560  0.17890  0.78254  Biso   1.000  O
  O137     1.0000 0.51540  0.67560  0.21614  Biso   1.000  O
  O138     1.0000 0.48460  0.67560  0.28386  Biso   1.000  O
  O139     1.0000 0.01540  0.17560  0.21614  Biso   1.000  O
  O140     1.0000 0.98460  0.17560  0.28386  Biso   1.000  O
  O141     1.0000 0.48460  0.32440  0.78386  Biso   1.000  O
  O142     1.0000 0.51540  0.32440  0.71614  Biso   1.000  O
  O143     1.0000 0.98460  0.82440  0.78386  Biso   1.000  O
  O144     1.0000 0.01540  0.82440  0.71614  Biso   1.000  O
  O145     1.0000 0.44730  0.52530  0.22921  Biso   1.000  O
  O146     1.0000 0.55270  0.52530  0.27079  Biso   1.000  O
  O147     1.0000 0.94730  0.02530  0.22921  Biso   1.000  O
  O148     1.0000 0.05270  0.02530  0.27079  Biso   1.000  O
  O149     1.0000 0.55270  0.47470  0.77079  Biso   1.000  O
  O150     1.0000 0.44730  0.47470  0.72921  Biso   1.000  O
  O151     1.0000 0.05270  0.97470  0.77079  Biso   1.000  O
  O152     1.0000 0.94730  0.97470  0.72921  Biso   1.000  O
  O153     1.0000 0.43580  0.29800  0.14743  Biso   1.000  O
  O154     1.0000 0.56420  0.29800  0.35257  Biso   1.000  O
  O155     1.0000 0.93580  0.79800  0.14743  Biso   1.000  O
  O156     1.0000 0.06420  0.79800  0.35257  Biso   1.000  O
  O157     1.0000 0.56420  0.70200  0.85257  Biso   1.000  O
  O158     1.0000 0.43580  0.70200  0.64743  Biso   1.000  O
  O159     1.0000 0.06420  0.20200  0.85257  Biso   1.000  O
  O160     1.0000 0.93580  0.20200  0.64743  Biso   1.000  O
  N1       1.0000 0.95510  0.35780  0.40190  Biso   1.000  N
  N2       1.0000 0.04490  0.35780  0.09810  Biso   1.000  N
  N3       1.0000 0.45510  0.85780  0.40190  Biso   1.000  N
  N4       1.0000 0.54490  0.85780  0.09810  Biso   1.000  N
  N5       1.0000 0.04490  0.64220  0.59810  Biso   1.000  N
  N6       1.0000 0.95510  0.64220  0.90190  Biso   1.000  N
  N7       1.0000 0.54490  0.14220  0.59810  Biso   1.000  N
  N8       1.0000 0.45510  0.14220  0.90190  Biso   1.000  N
  H1       1.0000 0.97320  0.33130  0.38630  Biso   1.000  H
  H2       1.0000 0.02680  0.33130  0.11370  Biso   1.000  H
  H3       1.0000 0.47320  0.83130  0.38630  Biso   1.000  H
  H4       1.0000 0.52680  0.83130  0.11370  Biso   1.000  H
  H5       1.0000 0.02680  0.66870  0.61370  Biso   1.000  H
  H6       1.0000 0.97320  0.66870  0.88630  Biso   1.000  H
  H7       1.0000 0.52680  0.16870  0.61370  Biso   1.000  H
  H8       1.0000 0.47320  0.16870  0.88630  Biso   1.000  H
  N9       1.0000 0.90960  0.31310  0.40880  Biso   1.000  N
  N10      1.0000 0.09040  0.31310  0.09120  Biso   1.000  N
  N11      1.0000 0.40960  0.81310  0.40880  Biso   1.000  N
  N12      1.0000 0.59040  0.81310  0.09120  Biso   1.000  N
  N13      1.0000 0.09040  0.68690  0.59120  Biso   1.000  N
  N14      1.0000 0.90960  0.68690  0.90880  Biso   1.000  N
  N15      1.0000 0.59040  0.18690  0.59120  Biso   1.000  N
  N16      1.0000 0.40960  0.18690  0.90880  Biso   1.000  N
  N17      1.0000 0.89320  0.37210  0.43440  Biso   1.000  N
  N18      1.0000 0.10680  0.37210  0.06560  Biso   1.000  N
  N19      1.0000 0.39320  0.87210  0.43440  Biso   1.000  N
  N20      1.0000 0.60680  0.87210  0.06560  Biso   1.000  N
  N21      1.0000 0.10680  0.62790  0.56560  Biso   1.000  N
  N22      1.0000 0.89320  0.62790  0.93440  Biso   1.000  N
  N23      1.0000 0.60680  0.12790  0.56560  Biso   1.000  N
  N24      1.0000 0.39320  0.12790  0.93440  Biso   1.000  N
  N25      1.0000 0.82460  0.15130  0.38880  Biso   1.000  N
  N26      1.0000 0.17540  0.15130  0.11120  Biso   1.000  N
  N27      1.0000 0.32460  0.65130  0.38880  Biso   1.000  N
  N28      1.0000 0.67540  0.65130  0.11120  Biso   1.000  N
  N29      1.0000 0.17540  0.84870  0.61120  Biso   1.000  N
  N30      1.0000 0.82460  0.84870  0.88880  Biso   1.000  N
  N31      1.0000 0.67540  0.34870  0.61120  Biso   1.000  N
  N32      1.0000 0.32460  0.34870  0.88880  Biso   1.000  N
  H9       1.0000 0.85150  0.18240  0.38200  Biso   1.000  H
  H10      1.0000 0.14850  0.18240  0.11800  Biso   1.000  H
  H11      1.0000 0.35150  0.68240  0.38200  Biso   1.000  H
  H12      1.0000 0.64850  0.68240  0.11800  Biso   1.000  H
  H13      1.0000 0.14850  0.81760  0.61800  Biso   1.000  H
  H14      1.0000 0.85150  0.81760  0.88200  Biso   1.000  H
  H15      1.0000 0.64850  0.31760  0.61800  Biso   1.000  H
  H16      1.0000 0.35150  0.31760  0.88200  Biso   1.000  H
  N33      1.0000 0.80200  0.18590  0.41770  Biso   1.000  N
  N34      1.0000 0.19800  0.18590  0.08230  Biso   1.000  N
  N35      1.0000 0.30200  0.68590  0.41770  Biso   1.000  N
  N36      1.0000 0.69800  0.68590  0.08230  Biso   1.000  N
  N37      1.0000 0.19800  0.81410  0.58230  Biso   1.000  N
  N38      1.0000 0.80200  0.81410  0.91770  Biso   1.000  N
  N39      1.0000 0.69800  0.31410  0.58230  Biso   1.000  N
  N40      1.0000 0.30200  0.31410  0.91770  Biso   1.000  N
  N41      1.0000 0.76280  0.11960  0.42040  Biso   1.000  N
  N42      1.0000 0.23720  0.11960  0.07960  Biso   1.000  N
  N43      1.0000 0.26280  0.61960  0.42040  Biso   1.000  N
  N44      1.0000 0.73720  0.61960  0.07960  Biso   1.000  N
  N45      1.0000 0.23720  0.88040  0.57960  Biso   1.000  N
  N46      1.0000 0.76280  0.88040  0.92040  Biso   1.000  N
  N47      1.0000 0.73720  0.38040  0.57960  Biso   1.000  N
  N48      1.0000 0.26280  0.38040  0.92040  Biso   1.000  N
  N49      1.0000 0.65020  0.26460  0.49390  Biso   1.000  N
  N50      1.0000 0.34980  0.26460  0.00610  Biso   1.000  N
  N51      1.0000 0.15020  0.76460  0.49390  Biso   1.000  N
  N52      1.0000 0.84980  0.76460  0.00610  Biso   1.000  N
  N53      1.0000 0.34980  0.73540  0.50610  Biso   1.000  N
  N54      1.0000 0.65020  0.73540  0.99390  Biso   1.000  N
  N55      1.0000 0.84980  0.23540  0.50610  Biso   1.000  N
  N56      1.0000 0.15020  0.23540  0.99390  Biso   1.000  N
  N57      1.0000 0.67170  0.24650  0.46340  Biso   1.000  N
  N58      1.0000 0.32830  0.24650  0.03660  Biso   1.000  N
  N59      1.0000 0.17170  0.74650  0.46340  Biso   1.000  N
  N60      1.0000 0.82830  0.74650  0.03660  Biso   1.000  N
  N61      1.0000 0.32830  0.75350  0.53660  Biso   1.000  N
  N62      1.0000 0.67170  0.75350  0.96340  Biso   1.000  N
  N63      1.0000 0.82830  0.25350  0.53660  Biso   1.000  N
  N64      1.0000 0.17170  0.25350  0.96340  Biso   1.000  N
  N65      1.0000 0.65490  0.32280  0.43550  Biso   1.000  N
  N66      1.0000 0.34510  0.32280  0.06450  Biso   1.000  N
  N67      1.0000 0.15490  0.82280  0.43550  Biso   1.000  N
  N68      1.0000 0.84510  0.82280  0.06450  Biso   1.000  N
  N69      1.0000 0.34510  0.67720  0.56450  Biso   1.000  N
  N70      1.0000 0.65490  0.67720  0.93550  Biso   1.000  N
  N71      1.0000 0.84510  0.17720  0.56450  Biso   1.000  N
  N72      1.0000 0.15490  0.17720  0.93550  Biso   1.000  N
  N73      1.0000 0.76120  0.46700  0.49240  Biso   1.000  N
  N74      1.0000 0.23880  0.46700  0.00760  Biso   1.000  N
  N75      1.0000 0.26120  0.96700  0.49240  Biso   1.000  N
  N76      1.0000 0.73880  0.96700  0.00760  Biso   1.000  N
  N77      1.0000 0.23880  0.53300  0.50760  Biso   1.000  N
  N78      1.0000 0.76120  0.53300  0.99240  Biso   1.000  N
  N79      1.0000 0.73880  0.03300  0.50760  Biso   1.000  N
  N80      1.0000 0.26120  0.03300  0.99240  Biso   1.000  N
  N81      1.0000 0.77680  0.44350  0.45980  Biso   1.000  N
  N82      1.0000 0.22320  0.44350  0.04020  Biso   1.000  N
  N83      1.0000 0.27680  0.94350  0.45980  Biso   1.000  N
  N84      1.0000 0.72320  0.94350  0.04020  Biso   1.000  N
  N85      1.0000 0.22320  0.55650  0.54020  Biso   1.000  N
  N86      1.0000 0.77680  0.55650  0.95980  Biso   1.000  N
  N87      1.0000 0.72320  0.05650  0.54020  Biso   1.000  N
  N88      1.0000 0.27680  0.05650  0.95980  Biso   1.000  N
  N89      1.0000 0.75740  0.51370  0.43080  Biso   1.000  N
  N90      1.0000 0.24260  0.51370  0.06920  Biso   1.000  N
  N91      1.0000 0.25740  0.01370  0.43080  Biso   1.000  N
  N92      1.0000 0.74260  0.01370  0.06920  Biso   1.000  N
  N93      1.0000 0.24260  0.48630  0.56920  Biso   1.000  N
  N94      1.0000 0.75740  0.48630  0.93080  Biso   1.000  N
  N95      1.0000 0.74260  0.98630  0.56920  Biso   1.000  N
  N96      1.0000 0.25740  0.98630  0.93080  Biso   1.000  N
  N97      1.0000 0.71660  0.31330  0.34900  Biso   1.000  N
  N98      1.0000 0.28340  0.31330  0.15100  Biso   1.000  N
  N99      1.0000 0.21660  0.81330  0.34900  Biso   1.000  N
  N100     1.0000 0.78340  0.81330  0.15100  Biso   1.000  N
  N101     1.0000 0.28340  0.68670  0.65100  Biso   1.000  N
  N102     1.0000 0.71660  0.68670  0.84900  Biso   1.000  N
  N103     1.0000 0.78340  0.18670  0.65100  Biso   1.000  N
  N104     1.0000 0.21660  0.18670  0.84900  Biso   1.000  N
  N105     1.0000 0.75560  0.37810  0.34600  Biso   1.000  N
  N106     1.0000 0.24440  0.37810  0.15400  Biso   1.000  N
  N107     1.0000 0.25560  0.87810  0.34600  Biso   1.000  N
  N108     1.0000 0.74440  0.87810  0.15400  Biso   1.000  N
  N109     1.0000 0.24440  0.62190  0.65400  Biso   1.000  N
  N110     1.0000 0.75560  0.62190  0.84600  Biso   1.000  N
  N111     1.0000 0.74440  0.12190  0.65400  Biso   1.000  N
  N112     1.0000 0.25560  0.12190  0.84600  Biso   1.000  N
  N113     1.0000 0.77440  0.34880  0.31500  Biso   1.000  N
  N114     1.0000 0.22560  0.34880  0.18500  Biso   1.000  N
  N115     1.0000 0.27440  0.84880  0.31500  Biso   1.000  N
  N116     1.0000 0.72560  0.84880  0.18500  Biso   1.000  N
  N117     1.0000 0.22560  0.65120  0.68500  Biso   1.000  N
  N118     1.0000 0.77440  0.65120  0.81500  Biso   1.000  N
  N119     1.0000 0.72560  0.15120  0.68500  Biso   1.000  N
  N120     1.0000 0.27440  0.15120  0.81500  Biso   1.000  N
  H17      1.0000 0.80060  0.38090  0.30770  Biso   1.000  H
  H18      1.0000 0.19940  0.38090  0.19230  Biso   1.000  H
  H19      1.0000 0.30060  0.88090  0.30770  Biso   1.000  H
  H20      1.0000 0.69940  0.88090  0.19230  Biso   1.000  H
  H21      1.0000 0.19940  0.61910  0.69230  Biso   1.000  H
  H22      1.0000 0.80060  0.61910  0.80770  Biso   1.000  H
  H23      1.0000 0.69940  0.11910  0.69230  Biso   1.000  H
  H24      1.0000 0.30060  0.11910  0.80770  Biso   1.000  H
  N121     1.0000 0.83510  0.58030  0.36390  Biso   1.000  N
  N122     1.0000 0.16490  0.58030  0.13610  Biso   1.000  N
  N123     1.0000 0.33510  0.08030  0.36390  Biso   1.000  N
  N124     1.0000 0.66490  0.08030  0.13610  Biso   1.000  N
  N125     1.0000 0.16490  0.41970  0.63610  Biso   1.000  N
  N126     1.0000 0.83510  0.41970  0.86390  Biso   1.000  N
  N127     1.0000 0.66490  0.91970  0.63610  Biso   1.000  N
  N128     1.0000 0.33510  0.91970  0.86390  Biso   1.000  N
  N129     1.0000 0.85970  0.53770  0.34020  Biso   1.000  N
  N130     1.0000 0.14030  0.53770  0.15980  Biso   1.000  N
  N131     1.0000 0.35970  0.03770  0.34020  Biso   1.000  N
  N132     1.0000 0.64030  0.03770  0.15980  Biso   1.000  N
  N133     1.0000 0.14030  0.46230  0.65980  Biso   1.000  N
  N134     1.0000 0.85970  0.46230  0.84020  Biso   1.000  N
  N135     1.0000 0.64030  0.96230  0.65980  Biso   1.000  N
  N136     1.0000 0.35970  0.96230  0.84020  Biso   1.000  N
  N137     1.0000 0.90300  0.60800  0.33970  Biso   1.000  N
  N138     1.0000 0.09700  0.60800  0.16030  Biso   1.000  N
  N139     1.0000 0.40300  0.10800  0.33970  Biso   1.000  N
  N140     1.0000 0.59700  0.10800  0.16030  Biso   1.000  N
  N141     1.0000 0.09700  0.39200  0.66030  Biso   1.000  N
  N142     1.0000 0.90300  0.39200  0.83970  Biso   1.000  N
  N143     1.0000 0.59700  0.89200  0.66030  Biso   1.000  N
  N144     1.0000 0.40300  0.89200  0.83970  Biso   1.000  N
  H25      1.0000 0.92550  0.59940  0.32500  Biso   1.000  H
  H26      1.0000 0.07450  0.59940  0.17500  Biso   1.000  H
  H27      1.0000 0.42550  0.09940  0.32500  Biso   1.000  H
  H28      1.0000 0.57450  0.09940  0.17500  Biso   1.000  H
  H29      1.0000 0.07450  0.40060  0.67500  Biso   1.000  H
  H30      1.0000 0.92550  0.40060  0.82500  Biso   1.000  H
  H31      1.0000 0.57450  0.90060  0.67500  Biso   1.000  H
  H32      1.0000 0.42550  0.90060  0.82500  Biso   1.000  H
  C1       1.0000 0.97180  0.62040  0.47010  Biso   1.000  C
  C2       1.0000 0.02820  0.62040  0.02990  Biso   1.000  C
  C3       1.0000 0.47180  0.12040  0.47010  Biso   1.000  C
  C4       1.0000 0.52820  0.12040  0.02990  Biso   1.000  C
  C5       1.0000 0.02820  0.37960  0.52990  Biso   1.000  C
  C6       1.0000 0.97180  0.37960  0.97010  Biso   1.000  C
  C7       1.0000 0.52820  0.87960  0.52990  Biso   1.000  C
  C8       1.0000 0.47180  0.87960  0.97010  Biso   1.000  C
  H33      1.0000 0.97310  0.68110  0.48580  Biso   1.000  H
  H34      1.0000 0.02690  0.68110  0.01420  Biso   1.000  H
  H35      1.0000 0.47310  0.18110  0.48580  Biso   1.000  H
  H36      1.0000 0.52690  0.18110  0.01420  Biso   1.000  H
  H37      1.0000 0.02690  0.31890  0.51420  Biso   1.000  H
  H38      1.0000 0.97310  0.31890  0.98580  Biso   1.000  H
  H39      1.0000 0.52690  0.81890  0.51420  Biso   1.000  H
  H40      1.0000 0.47310  0.81890  0.98580  Biso   1.000  H
  C9       1.0000 0.01190  0.60760  0.44930  Biso   1.000  C
  C10      1.0000 0.98810  0.60760  0.05070  Biso   1.000  C
  C11      1.0000 0.51190  0.10760  0.44930  Biso   1.000  C
  C12      1.0000 0.48810  0.10760  0.05070  Biso   1.000  C
  C13      1.0000 0.98810  0.39240  0.55070  Biso   1.000  C
  C14      1.0000 0.01190  0.39240  0.94930  Biso   1.000  C
  C15      1.0000 0.48810  0.89240  0.55070  Biso   1.000  C
  C16      1.0000 0.51190  0.89240  0.94930  Biso   1.000  C
  H41      1.0000 0.03980  0.65870  0.45200  Biso   1.000  H
  H42      1.0000 0.96020  0.65870  0.04800  Biso   1.000  H
  H43      1.0000 0.53980  0.15870  0.45200  Biso   1.000  H
  H44      1.0000 0.46020  0.15870  0.04800  Biso   1.000  H
  H45      1.0000 0.96020  0.34130  0.54800  Biso   1.000  H
  H46      1.0000 0.03980  0.34130  0.95200  Biso   1.000  H
  H47      1.0000 0.46020  0.84130  0.54800  Biso   1.000  H
  H48      1.0000 0.53980  0.84130  0.95200  Biso   1.000  H
  C17      1.0000 0.01130  0.52150  0.42500  Biso   1.000  C
  C18      1.0000 0.98870  0.52150  0.07500  Biso   1.000  C
  C19      1.0000 0.51130  0.02150  0.42500  Biso   1.000  C
  C20      1.0000 0.48870  0.02150  0.07500  Biso   1.000  C
  C21      1.0000 0.98870  0.47850  0.57500  Biso   1.000  C
  C22      1.0000 0.01130  0.47850  0.92500  Biso   1.000  C
  C23      1.0000 0.48870  0.97850  0.57500  Biso   1.000  C
  C24      1.0000 0.51130  0.97850  0.92500  Biso   1.000  C
  H49      1.0000 0.03800  0.51230  0.41100  Biso   1.000  H
  H50      1.0000 0.96200  0.51230  0.08900  Biso   1.000  H
  H51      1.0000 0.53800  0.01230  0.41100  Biso   1.000  H
  H52      1.0000 0.46200  0.01230  0.08900  Biso   1.000  H
  H53      1.0000 0.96200  0.48770  0.58900  Biso   1.000  H
  H54      1.0000 0.03800  0.48770  0.91100  Biso   1.000  H
  H55      1.0000 0.46200  0.98770  0.58900  Biso   1.000  H
  H56      1.0000 0.53800  0.98770  0.91100  Biso   1.000  H
  C25      1.0000 0.96890  0.44960  0.42250  Biso   1.000  C
  C26      1.0000 0.03110  0.44960  0.07750  Biso   1.000  C
  C27      1.0000 0.46890  0.94960  0.42250  Biso   1.000  C
  C28      1.0000 0.53110  0.94960  0.07750  Biso   1.000  C
  C29      1.0000 0.03110  0.55040  0.57750  Biso   1.000  C
  C30      1.0000 0.96890  0.55040  0.92250  Biso   1.000  C
  C31      1.0000 0.53110  0.05040  0.57750  Biso   1.000  C
  C32      1.0000 0.46890  0.05040  0.92250  Biso   1.000  C
  C33      1.0000 0.92890  0.45880  0.44340  Biso   1.000  C
  C34      1.0000 0.07110  0.45880  0.05660  Biso   1.000  C
  C35      1.0000 0.42890  0.95880  0.44340  Biso   1.000  C
  C36      1.0000 0.57110  0.95880  0.05660  Biso   1.000  C
  C37      1.0000 0.07110  0.54120  0.55660  Biso   1.000  C
  C38      1.0000 0.92890  0.54120  0.94340  Biso   1.000  C
  C39      1.0000 0.57110  0.04120  0.55660  Biso   1.000  C
  C40      1.0000 0.42890  0.04120  0.94340  Biso   1.000  C
  C41      1.0000 0.93010  0.54670  0.46850  Biso   1.000  C
  C42      1.0000 0.06990  0.54670  0.03150  Biso   1.000  C
  C43      1.0000 0.43010  0.04670  0.46850  Biso   1.000  C
  C44      1.0000 0.56990  0.04670  0.03150  Biso   1.000  C
  C45      1.0000 0.06990  0.45330  0.53150  Biso   1.000  C
  C46      1.0000 0.93010  0.45330  0.96850  Biso   1.000  C
  C47      1.0000 0.56990  0.95330  0.53150  Biso   1.000  C
  C48      1.0000 0.43010  0.95330  0.96850  Biso   1.000  C
  H57      1.0000 0.90420  0.55480  0.48320  Biso   1.000  H
  H58      1.0000 0.09580  0.55480  0.01680  Biso   1.000  H
  H59      1.0000 0.40420  0.05480  0.48320  Biso   1.000  H
  H60      1.0000 0.59580  0.05480  0.01680  Biso   1.000  H
  H61      1.0000 0.09580  0.44520  0.51680  Biso   1.000  H
  H62      1.0000 0.90420  0.44520  0.98320  Biso   1.000  H
  H63      1.0000 0.59580  0.94520  0.51680  Biso   1.000  H
  H64      1.0000 0.40420  0.94520  0.98320  Biso   1.000  H
  C49      1.0000 0.75870  0.04020  0.39180  Biso   1.000  C
  C50      1.0000 0.24130  0.04020  0.10820  Biso   1.000  C
  C51      1.0000 0.25870  0.54020  0.39180  Biso   1.000  C
  C52      1.0000 0.74130  0.54020  0.10820  Biso   1.000  C
  C53      1.0000 0.24130  0.95980  0.60820  Biso   1.000  C
  C54      1.0000 0.75870  0.95980  0.89180  Biso   1.000  C
  C55      1.0000 0.74130  0.45980  0.60820  Biso   1.000  C
  C56      1.0000 0.25870  0.45980  0.89180  Biso   1.000  C
  C57      1.0000 0.72230  0.95440  0.38220  Biso   1.000  C
  C58      1.0000 0.27770  0.95440  0.11780  Biso   1.000  C
  C59      1.0000 0.22230  0.45440  0.38220  Biso   1.000  C
  C60      1.0000 0.77770  0.45440  0.11780  Biso   1.000  C
  C61      1.0000 0.27770  0.04560  0.61780  Biso   1.000  C
  C62      1.0000 0.72230  0.04560  0.88220  Biso   1.000  C
  C63      1.0000 0.77770  0.54560  0.61780  Biso   1.000  C
  C64      1.0000 0.22230  0.54560  0.88220  Biso   1.000  C
  H65      1.0000 0.69530  0.94060  0.39550  Biso   1.000  H
  H66      1.0000 0.30470  0.94060  0.10450  Biso   1.000  H
  H67      1.0000 0.19530  0.44060  0.39550  Biso   1.000  H
  H68      1.0000 0.80470  0.44060  0.10450  Biso   1.000  H
  H69      1.0000 0.30470  0.05940  0.60450  Biso   1.000  H
  H70      1.0000 0.69530  0.05940  0.89550  Biso   1.000  H
  H71      1.0000 0.80470  0.55940  0.60450  Biso   1.000  H
  H72      1.0000 0.19530  0.55940  0.89550  Biso   1.000  H
  C65      1.0000 0.72880  0.89100  0.35150  Biso   1.000  C
  C66      1.0000 0.27120  0.89100  0.14850  Biso   1.000  C
  C67      1.0000 0.22880  0.39100  0.35150  Biso   1.000  C
  C68      1.0000 0.77120  0.39100  0.14850  Biso   1.000  C
  C69      1.0000 0.27120  0.10900  0.64850  Biso   1.000  C
  C70      1.0000 0.72880  0.10900  0.85150  Biso   1.000  C
  C71      1.0000 0.77120  0.60900  0.64850  Biso   1.000  C
  C72      1.0000 0.22880  0.60900  0.85150  Biso   1.000  C
  H73      1.0000 0.70500  0.83300  0.34380  Biso   1.000  H
  H74      1.0000 0.29500  0.83300  0.15620  Biso   1.000  H
  H75      1.0000 0.20500  0.33300  0.34380  Biso   1.000  H
  H76      1.0000 0.79500  0.33300  0.15620  Biso   1.000  H
  H77      1.0000 0.29500  0.16700  0.65620  Biso   1.000  H
  H78      1.0000 0.70500  0.16700  0.84380  Biso   1.000  H
  H79      1.0000 0.79500  0.66700  0.65620  Biso   1.000  H
  H80      1.0000 0.20500  0.66700  0.84380  Biso   1.000  H
  C73      1.0000 0.76960  0.91030  0.33150  Biso   1.000  C
  C74      1.0000 0.23040  0.91030  0.16850  Biso   1.000  C
  C75      1.0000 0.26960  0.41030  0.33150  Biso   1.000  C
  C76      1.0000 0.73040  0.41030  0.16850  Biso   1.000  C
  C77      1.0000 0.23040  0.08970  0.66850  Biso   1.000  C
  C78      1.0000 0.76960  0.08970  0.83150  Biso   1.000  C
  C79      1.0000 0.73040  0.58970  0.66850  Biso   1.000  C
  C80      1.0000 0.26960  0.58970  0.83150  Biso   1.000  C
  H81      1.0000 0.77180  0.86500  0.31090  Biso   1.000  H
  H82      1.0000 0.22820  0.86500  0.18910  Biso   1.000  H
  H83      1.0000 0.27180  0.36500  0.31090  Biso   1.000  H
  H84      1.0000 0.72820  0.36500  0.18910  Biso   1.000  H
  H85      1.0000 0.22820  0.13500  0.68910  Biso   1.000  H
  H86      1.0000 0.77180  0.13500  0.81090  Biso   1.000  H
  H87      1.0000 0.72820  0.63500  0.68910  Biso   1.000  H
  H88      1.0000 0.27180  0.63500  0.81090  Biso   1.000  H
  C81      1.0000 0.80640  0.99390  0.34120  Biso   1.000  C
  C82      1.0000 0.19360  0.99390  0.15880  Biso   1.000  C
  C83      1.0000 0.30640  0.49390  0.34120  Biso   1.000  C
  C84      1.0000 0.69360  0.49390  0.15880  Biso   1.000  C
  C85      1.0000 0.19360  0.00610  0.65880  Biso   1.000  C
  C86      1.0000 0.80640  0.00610  0.84120  Biso   1.000  C
  C87      1.0000 0.69360  0.50610  0.65880  Biso   1.000  C
  C88      1.0000 0.30640  0.50610  0.84120  Biso   1.000  C
  H89      1.0000 0.83420  0.00590  0.32840  Biso   1.000  H
  H90      1.0000 0.16580  0.00590  0.17160  Biso   1.000  H
  H91      1.0000 0.33420  0.50590  0.32840  Biso   1.000  H
  H92      1.0000 0.66580  0.50590  0.17160  Biso   1.000  H
  H93      1.0000 0.16580  0.99410  0.67160  Biso   1.000  H
  H94      1.0000 0.83420  0.99410  0.82840  Biso   1.000  H
  H95      1.0000 0.66580  0.49410  0.67160  Biso   1.000  H
  H96      1.0000 0.33420  0.49410  0.82840  Biso   1.000  H
  C89      1.0000 0.79890  0.06030  0.37200  Biso   1.000  C
  C90      1.0000 0.20110  0.06030  0.12800  Biso   1.000  C
  C91      1.0000 0.29890  0.56030  0.37200  Biso   1.000  C
  C92      1.0000 0.70110  0.56030  0.12800  Biso   1.000  C
  C93      1.0000 0.20110  0.93970  0.62800  Biso   1.000  C
  C94      1.0000 0.79890  0.93970  0.87200  Biso   1.000  C
  C95      1.0000 0.70110  0.43970  0.62800  Biso   1.000  C
  C96      1.0000 0.29890  0.43970  0.87200  Biso   1.000  C
  C97      1.0000 0.62210  0.39280  0.44880  Biso   1.000  C
  C98      1.0000 0.37790  0.39280  0.05120  Biso   1.000  C
  C99      1.0000 0.12210  0.89280  0.44880  Biso   1.000  C
  C100     1.0000 0.87790  0.89280  0.05120  Biso   1.000  C
  C101     1.0000 0.37790  0.60720  0.55120  Biso   1.000  C
  C102     1.0000 0.62210  0.60720  0.94880  Biso   1.000  C
  C103     1.0000 0.87790  0.10720  0.55120  Biso   1.000  C
  C104     1.0000 0.12210  0.10720  0.94880  Biso   1.000  C
  C105     1.0000 0.59470  0.48580  0.43190  Biso   1.000  C
  C106     1.0000 0.40530  0.48580  0.06810  Biso   1.000  C
  C107     1.0000 0.09470  0.98580  0.43190  Biso   1.000  C
  C108     1.0000 0.90530  0.98580  0.06810  Biso   1.000  C
  C109     1.0000 0.40530  0.51420  0.56810  Biso   1.000  C
  C110     1.0000 0.59470  0.51420  0.93190  Biso   1.000  C
  C111     1.0000 0.90530  0.01420  0.56810  Biso   1.000  C
  C112     1.0000 0.09470  0.01420  0.93190  Biso   1.000  C
  H97      1.0000 0.59630  0.50930  0.40700  Biso   1.000  H
  H98      1.0000 0.40370  0.50930  0.09300  Biso   1.000  H
  H99      1.0000 0.09630  0.00930  0.40700  Biso   1.000  H
  H100     1.0000 0.90370  0.00930  0.09300  Biso   1.000  H
  H101     1.0000 0.40370  0.49070  0.59300  Biso   1.000  H
  H102     1.0000 0.59630  0.49070  0.90700  Biso   1.000  H
  H103     1.0000 0.90370  0.99070  0.59300  Biso   1.000  H
  H104     1.0000 0.09630  0.99070  0.90700  Biso   1.000  H
  C113     1.0000 0.56520  0.54090  0.45370  Biso   1.000  C
  C114     1.0000 0.43480  0.54090  0.04630  Biso   1.000  C
  C115     1.0000 0.06520  0.04090  0.45370  Biso   1.000  C
  C116     1.0000 0.93480  0.04090  0.04630  Biso   1.000  C
  C117     1.0000 0.43480  0.45910  0.54630  Biso   1.000  C
  C118     1.0000 0.56520  0.45910  0.95370  Biso   1.000  C
  C119     1.0000 0.93480  0.95910  0.54630  Biso   1.000  C
  C120     1.0000 0.06520  0.95910  0.95370  Biso   1.000  C
  H105     1.0000 0.54680  0.60360  0.44360  Biso   1.000  H
  H106     1.0000 0.45320  0.60360  0.05640  Biso   1.000  H
  H107     1.0000 0.04680  0.10360  0.44360  Biso   1.000  H
  H108     1.0000 0.95320  0.10360  0.05640  Biso   1.000  H
  H109     1.0000 0.45320  0.39640  0.55640  Biso   1.000  H
  H110     1.0000 0.54680  0.39640  0.94360  Biso   1.000  H
  H111     1.0000 0.95320  0.89640  0.55640  Biso   1.000  H
  H112     1.0000 0.04680  0.89640  0.94360  Biso   1.000  H
  C121     1.0000 0.56240  0.50400  0.49140  Biso   1.000  C
  C122     1.0000 0.43760  0.50400  0.00860  Biso   1.000  C
  C123     1.0000 0.06240  0.00400  0.49140  Biso   1.000  C
  C124     1.0000 0.93760  0.00400  0.00860  Biso   1.000  C
  C125     1.0000 0.43760  0.49600  0.50860  Biso   1.000  C
  C126     1.0000 0.56240  0.49600  0.99140  Biso   1.000  C
  C127     1.0000 0.93760  0.99600  0.50860  Biso   1.000  C
  C128     1.0000 0.06240  0.99600  0.99140  Biso   1.000  C
  H113     1.0000 0.54210  0.54340  0.50530  Biso   1.000  H
  H114     1.0000 0.45790  0.54340  0.99470  Biso   1.000  H
  H115     1.0000 0.04210  0.04340  0.50530  Biso   1.000  H
  H116     1.0000 0.95790  0.04340  0.99470  Biso   1.000  H
  H117     1.0000 0.45790  0.45660  0.49470  Biso   1.000  H
  H118     1.0000 0.54210  0.45660  0.00530  Biso   1.000  H
  H119     1.0000 0.95790  0.95660  0.49470  Biso   1.000  H
  H120     1.0000 0.04210  0.95660  0.00530  Biso   1.000  H
  C129     1.0000 0.58820  0.41370  0.50780  Biso   1.000  C
  C130     1.0000 0.41180  0.41370  0.99220  Biso   1.000  C
  C131     1.0000 0.08820  0.91370  0.50780  Biso   1.000  C
  C132     1.0000 0.91180  0.91370  0.99220  Biso   1.000  C
  C133     1.0000 0.41180  0.58630  0.49220  Biso   1.000  C
  C134     1.0000 0.58820  0.58630  0.00780  Biso   1.000  C
  C135     1.0000 0.91180  0.08630  0.49220  Biso   1.000  C
  C136     1.0000 0.08820  0.08630  0.00780  Biso   1.000  C
  H121     1.0000 0.58580  0.39010  0.53250  Biso   1.000  H
  H122     1.0000 0.41420  0.39010  0.96750  Biso   1.000  H
  H123     1.0000 0.08580  0.89010  0.53250  Biso   1.000  H
  H124     1.0000 0.91420  0.89010  0.96750  Biso   1.000  H
  H125     1.0000 0.41420  0.60990  0.46750  Biso   1.000  H
  H126     1.0000 0.58580  0.60990  0.03250  Biso   1.000  H
  H127     1.0000 0.91420  0.10990  0.46750  Biso   1.000  H
  H128     1.0000 0.08580  0.10990  0.03250  Biso   1.000  H
  C137     1.0000 0.61940  0.35590  0.48570  Biso   1.000  C
  C138     1.0000 0.38060  0.35590  0.01430  Biso   1.000  C
  C139     1.0000 0.11940  0.85590  0.48570  Biso   1.000  C
  C140     1.0000 0.88060  0.85590  0.01430  Biso   1.000  C
  C141     1.0000 0.38060  0.64410  0.51430  Biso   1.000  C
  C142     1.0000 0.61940  0.64410  0.98570  Biso   1.000  C
  C143     1.0000 0.88060  0.14410  0.51430  Biso   1.000  C
  C144     1.0000 0.11940  0.14410  0.98570  Biso   1.000  C
  C145     1.0000 0.67630  0.09720  0.27550  Biso   1.000  C
  C146     1.0000 0.32370  0.09720  0.22450  Biso   1.000  C
  C147     1.0000 0.17630  0.59720  0.27550  Biso   1.000  C
  C148     1.0000 0.82370  0.59720  0.22450  Biso   1.000  C
  C149     1.0000 0.32370  0.90280  0.72450  Biso   1.000  C
  C150     1.0000 0.67630  0.90280  0.77550  Biso   1.000  C
  C151     1.0000 0.82370  0.40280  0.72450  Biso   1.000  C
  C152     1.0000 0.17630  0.40280  0.77550  Biso   1.000  C
  H129     1.0000 0.65200  0.04040  0.26690  Biso   1.000  H
  H130     1.0000 0.34800  0.04040  0.23310  Biso   1.000  H
  H131     1.0000 0.15200  0.54040  0.26690  Biso   1.000  H
  H132     1.0000 0.84800  0.54040  0.23310  Biso   1.000  H
  H133     1.0000 0.34800  0.95960  0.73310  Biso   1.000  H
  H134     1.0000 0.65200  0.95960  0.76690  Biso   1.000  H
  H135     1.0000 0.84800  0.45960  0.73310  Biso   1.000  H
  H136     1.0000 0.15200  0.45960  0.76690  Biso   1.000  H
  C153     1.0000 0.71570  0.11890  0.25490  Biso   1.000  C
  C154     1.0000 0.28430  0.11890  0.24510  Biso   1.000  C
  C155     1.0000 0.21570  0.61890  0.25490  Biso   1.000  C
  C156     1.0000 0.78430  0.61890  0.24510  Biso   1.000  C
  C157     1.0000 0.28430  0.88110  0.74510  Biso   1.000  C
  C158     1.0000 0.71570  0.88110  0.75490  Biso   1.000  C
  C159     1.0000 0.78430  0.38110  0.74510  Biso   1.000  C
  C160     1.0000 0.21570  0.38110  0.75490  Biso   1.000  C
  H137     1.0000 0.71740  0.07400  0.23400  Biso   1.000  H
  H138     1.0000 0.28260  0.07400  0.26600  Biso   1.000  H
  H139     1.0000 0.21740  0.57400  0.23400  Biso   1.000  H
  H140     1.0000 0.78260  0.57400  0.26600  Biso   1.000  H
  H141     1.0000 0.28260  0.92600  0.76600  Biso   1.000  H
  H142     1.0000 0.71740  0.92600  0.73400  Biso   1.000  H
  H143     1.0000 0.78260  0.42600  0.76600  Biso   1.000  H
  H144     1.0000 0.21740  0.42600  0.73400  Biso   1.000  H
  C161     1.0000 0.74700  0.26310  0.29670  Biso   1.000  C
  C162     1.0000 0.25300  0.26310  0.20330  Biso   1.000  C
  C163     1.0000 0.24700  0.76310  0.29670  Biso   1.000  C
  C164     1.0000 0.75300  0.76310  0.20330  Biso   1.000  C
  C165     1.0000 0.25300  0.73690  0.70330  Biso   1.000  C
  C166     1.0000 0.74700  0.73690  0.79670  Biso   1.000  C
  C167     1.0000 0.75300  0.23690  0.70330  Biso   1.000  C
  C168     1.0000 0.24700  0.23690  0.79670  Biso   1.000  C
  C169     1.0000 0.67140  0.15400  0.30730  Biso   1.000  C
  C170     1.0000 0.32860  0.15400  0.19270  Biso   1.000  C
  C171     1.0000 0.17140  0.65400  0.30730  Biso   1.000  C
  C172     1.0000 0.82860  0.65400  0.19270  Biso   1.000  C
  C173     1.0000 0.32860  0.84600  0.69270  Biso   1.000  C
  C174     1.0000 0.67140  0.84600  0.80730  Biso   1.000  C
  C175     1.0000 0.82860  0.34600  0.69270  Biso   1.000  C
  C176     1.0000 0.17140  0.34600  0.80730  Biso   1.000  C
  H145     1.0000 0.64540  0.13740  0.32120  Biso   1.000  H
  H146     1.0000 0.35460  0.13740  0.17880  Biso   1.000  H
  H147     1.0000 0.14540  0.63740  0.32120  Biso   1.000  H
  H148     1.0000 0.85460  0.63740  0.17880  Biso   1.000  H
  H149     1.0000 0.35460  0.86260  0.67880  Biso   1.000  H
  H150     1.0000 0.64540  0.86260  0.82120  Biso   1.000  H
  H151     1.0000 0.85460  0.36260  0.67880  Biso   1.000  H
  H152     1.0000 0.14540  0.36260  0.82120  Biso   1.000  H
  C177     1.0000 0.70830  0.23910  0.31730  Biso   1.000  C
  C178     1.0000 0.29170  0.23910  0.18270  Biso   1.000  C
  C179     1.0000 0.20830  0.73910  0.31730  Biso   1.000  C
  C180     1.0000 0.79170  0.73910  0.18270  Biso   1.000  C
  C181     1.0000 0.29170  0.76090  0.68270  Biso   1.000  C
  C182     1.0000 0.70830  0.76090  0.81730  Biso   1.000  C
  C183     1.0000 0.79170  0.26090  0.68270  Biso   1.000  C
  C184     1.0000 0.20830  0.26090  0.81730  Biso   1.000  C
  C185     1.0000 0.75130  0.20070  0.26340  Biso   1.000  C
  C186     1.0000 0.24870  0.20070  0.23660  Biso   1.000  C
  C187     1.0000 0.25130  0.70070  0.26340  Biso   1.000  C
  C188     1.0000 0.74870  0.70070  0.23660  Biso   1.000  C
  C189     1.0000 0.24870  0.79930  0.73660  Biso   1.000  C
  C190     1.0000 0.75130  0.79930  0.76340  Biso   1.000  C
  C191     1.0000 0.74870  0.29930  0.73660  Biso   1.000  C
  C192     1.0000 0.25130  0.29930  0.76340  Biso   1.000  C
  H153     1.0000 0.77680  0.21590  0.24890  Biso   1.000  H
  H154     1.0000 0.22320  0.21590  0.25110  Biso   1.000  H
  H155     1.0000 0.27680  0.71590  0.24890  Biso   1.000  H
  H156     1.0000 0.72320  0.71590  0.25110  Biso   1.000  H
  H157     1.0000 0.22320  0.78410  0.75110  Biso   1.000  H
  H158     1.0000 0.77680  0.78410  0.74890  Biso   1.000  H
  H159     1.0000 0.72320  0.28410  0.75110  Biso   1.000  H
  H160     1.0000 0.27680  0.28410  0.74890  Biso   1.000  H
  C193     1.0000 0.67520  0.70810  0.49070  Biso   1.000  C
  C194     1.0000 0.32480  0.70810  0.00930  Biso   1.000  C
  C195     1.0000 0.17520  0.20810  0.49070  Biso   1.000  C
  C196     1.0000 0.82480  0.20810  0.00930  Biso   1.000  C
  C197     1.0000 0.32480  0.29190  0.50930  Biso   1.000  C
  C198     1.0000 0.67520  0.29190  0.99070  Biso   1.000  C
  C199     1.0000 0.82480  0.79190  0.50930  Biso   1.000  C
  C200     1.0000 0.17520  0.79190  0.99070  Biso   1.000  C
  H161     1.0000 0.65690  0.74970  0.50540  Biso   1.000  H
  H162     1.0000 0.34310  0.74970  0.99460  Biso   1.000  H
  H163     1.0000 0.15690  0.24970  0.50540  Biso   1.000  H
  H164     1.0000 0.84310  0.24970  0.99460  Biso   1.000  H
  H165     1.0000 0.34310  0.25030  0.49460  Biso   1.000  H
  H166     1.0000 0.65690  0.25030  0.00540  Biso   1.000  H
  H167     1.0000 0.84310  0.75030  0.49460  Biso   1.000  H
  H168     1.0000 0.15690  0.75030  0.00540  Biso   1.000  H
  C201     1.0000 0.67210  0.73920  0.45100  Biso   1.000  C
  C202     1.0000 0.32790  0.73920  0.04900  Biso   1.000  C
  C203     1.0000 0.17210  0.23920  0.45100  Biso   1.000  C
  C204     1.0000 0.82790  0.23920  0.04900  Biso   1.000  C
  C205     1.0000 0.32790  0.26080  0.54900  Biso   1.000  C
  C206     1.0000 0.67210  0.26080  0.95100  Biso   1.000  C
  C207     1.0000 0.82790  0.76080  0.54900  Biso   1.000  C
  C208     1.0000 0.17210  0.76080  0.95100  Biso   1.000  C
  H169     1.0000 0.65230  0.80000  0.44030  Biso   1.000  H
  H170     1.0000 0.34770  0.80000  0.05970  Biso   1.000  H
  H171     1.0000 0.15230  0.30000  0.44030  Biso   1.000  H
  H172     1.0000 0.84770  0.30000  0.05970  Biso   1.000  H
  H173     1.0000 0.34770  0.20000  0.55970  Biso   1.000  H
  H174     1.0000 0.65230  0.20000  0.94030  Biso   1.000  H
  H175     1.0000 0.84770  0.70000  0.55970  Biso   1.000  H
  H176     1.0000 0.15230  0.70000  0.94030  Biso   1.000  H
  C209     1.0000 0.70360  0.62040  0.50790  Biso   1.000  C
  C210     1.0000 0.29640  0.62040  0.99210  Biso   1.000  C
  C211     1.0000 0.20360  0.12040  0.50790  Biso   1.000  C
  C212     1.0000 0.79640  0.12040  0.99210  Biso   1.000  C
  C213     1.0000 0.29640  0.37960  0.49210  Biso   1.000  C
  C214     1.0000 0.70360  0.37960  0.00790  Biso   1.000  C
  C215     1.0000 0.79640  0.87960  0.49210  Biso   1.000  C
  C216     1.0000 0.20360  0.87960  0.00790  Biso   1.000  C
  H177     1.0000 0.70560  0.60230  0.53400  Biso   1.000  H
  H178     1.0000 0.29440  0.60230  0.96600  Biso   1.000  H
  H179     1.0000 0.20560  0.10230  0.53400  Biso   1.000  H
  H180     1.0000 0.79440  0.10230  0.96600  Biso   1.000  H
  H181     1.0000 0.29440  0.39770  0.46600  Biso   1.000  H
  H182     1.0000 0.70560  0.39770  0.03400  Biso   1.000  H
  H183     1.0000 0.79440  0.89770  0.46600  Biso   1.000  H
  H184     1.0000 0.20560  0.89770  0.03400  Biso   1.000  H
  C217     1.0000 0.73030  0.55770  0.48460  Biso   1.000  C
  C218     1.0000 0.26970  0.55770  0.01540  Biso   1.000  C
  C219     1.0000 0.23030  0.05770  0.48460  Biso   1.000  C
  C220     1.0000 0.76970  0.05770  0.01540  Biso   1.000  C
  C221     1.0000 0.26970  0.44230  0.51540  Biso   1.000  C
  C222     1.0000 0.73030  0.44230  0.98460  Biso   1.000  C
  C223     1.0000 0.76970  0.94230  0.51540  Biso   1.000  C
  C224     1.0000 0.23030  0.94230  0.98460  Biso   1.000  C
  C225     1.0000 0.69870  0.67870  0.42900  Biso   1.000  C
  C226     1.0000 0.30130  0.67870  0.07100  Biso   1.000  C
  C227     1.0000 0.19870  0.17870  0.42900  Biso   1.000  C
  C228     1.0000 0.80130  0.17870  0.07100  Biso   1.000  C
  C229     1.0000 0.30130  0.32130  0.57100  Biso   1.000  C
  C230     1.0000 0.69870  0.32130  0.92900  Biso   1.000  C
  C231     1.0000 0.80130  0.82130  0.57100  Biso   1.000  C
  C232     1.0000 0.19870  0.82130  0.92900  Biso   1.000  C
  H185     1.0000 0.69760  0.69740  0.40310  Biso   1.000  H
  H186     1.0000 0.30240  0.69740  0.09690  Biso   1.000  H
  H187     1.0000 0.19760  0.19740  0.40310  Biso   1.000  H
  H188     1.0000 0.80240  0.19740  0.09690  Biso   1.000  H
  H189     1.0000 0.30240  0.30260  0.59690  Biso   1.000  H
  H190     1.0000 0.69760  0.30260  0.90310  Biso   1.000  H
  H191     1.0000 0.80240  0.80260  0.59690  Biso   1.000  H
  H192     1.0000 0.19760  0.80260  0.90310  Biso   1.000  H
  C233     1.0000 0.72720  0.58830  0.44650  Biso   1.000  C
  C234     1.0000 0.27280  0.58830  0.05350  Biso   1.000  C
  C235     1.0000 0.22720  0.08830  0.44650  Biso   1.000  C
  C236     1.0000 0.77280  0.08830  0.05350  Biso   1.000  C
  C237     1.0000 0.27280  0.41170  0.55350  Biso   1.000  C
  C238     1.0000 0.72720  0.41170  0.94650  Biso   1.000  C
  C239     1.0000 0.77280  0.91170  0.55350  Biso   1.000  C
  C240     1.0000 0.22720  0.91170  0.94650  Biso   1.000  C
  C241     1.0000 0.86240  0.67390  0.37990  Biso   1.000  C
  C242     1.0000 0.13760  0.67390  0.12010  Biso   1.000  C
  C243     1.0000 0.36240  0.17390  0.37990  Biso   1.000  C
  C244     1.0000 0.63760  0.17390  0.12010  Biso   1.000  C
  C245     1.0000 0.13760  0.32610  0.62010  Biso   1.000  C
  C246     1.0000 0.86240  0.32610  0.87990  Biso   1.000  C
  C247     1.0000 0.63760  0.82610  0.62010  Biso   1.000  C
  C248     1.0000 0.36240  0.82610  0.87990  Biso   1.000  C
  C249     1.0000 0.93010  0.84470  0.40250  Biso   1.000  C
  C250     1.0000 0.06990  0.84470  0.09750  Biso   1.000  C
  C251     1.0000 0.43010  0.34470  0.40250  Biso   1.000  C
  C252     1.0000 0.56990  0.34470  0.09750  Biso   1.000  C
  C253     1.0000 0.06990  0.15530  0.59750  Biso   1.000  C
  C254     1.0000 0.93010  0.15530  0.90250  Biso   1.000  C
  C255     1.0000 0.56990  0.65530  0.59750  Biso   1.000  C
  C256     1.0000 0.43010  0.65530  0.90250  Biso   1.000  C
  H193     1.0000 0.95310  0.90320  0.41130  Biso   1.000  H
  H194     1.0000 0.04690  0.90320  0.08870  Biso   1.000  H
  H195     1.0000 0.45310  0.40320  0.41130  Biso   1.000  H
  H196     1.0000 0.54690  0.40320  0.08870  Biso   1.000  H
  H197     1.0000 0.04690  0.09680  0.58870  Biso   1.000  H
  H198     1.0000 0.95310  0.09680  0.91130  Biso   1.000  H
  H199     1.0000 0.54690  0.59680  0.58870  Biso   1.000  H
  H200     1.0000 0.45310  0.59680  0.91130  Biso   1.000  H
  C257     1.0000 0.94320  0.78080  0.37490  Biso   1.000  C
  C258     1.0000 0.05680  0.78080  0.12510  Biso   1.000  C
  C259     1.0000 0.44320  0.28080  0.37490  Biso   1.000  C
  C260     1.0000 0.55680  0.28080  0.12510  Biso   1.000  C
  C261     1.0000 0.05680  0.21920  0.62510  Biso   1.000  C
  C262     1.0000 0.94320  0.21920  0.87490  Biso   1.000  C
  C263     1.0000 0.55680  0.71920  0.62510  Biso   1.000  C
  C264     1.0000 0.44320  0.71920  0.87490  Biso   1.000  C
  H201     1.0000 0.97280  0.79380  0.36390  Biso   1.000  H
  H202     1.0000 0.02720  0.79380  0.13610  Biso   1.000  H
  H203     1.0000 0.47280  0.29380  0.36390  Biso   1.000  H
  H204     1.0000 0.52720  0.29380  0.13610  Biso   1.000  H
  H205     1.0000 0.02720  0.20620  0.63610  Biso   1.000  H
  H206     1.0000 0.97280  0.20620  0.86390  Biso   1.000  H
  H207     1.0000 0.52720  0.70620  0.63610  Biso   1.000  H
  H208     1.0000 0.47280  0.70620  0.86390  Biso   1.000  H
  C265     1.0000 0.85080  0.74550  0.40760  Biso   1.000  C
  C266     1.0000 0.14920  0.74550  0.09240  Biso   1.000  C
  C267     1.0000 0.35080  0.24550  0.40760  Biso   1.000  C
  C268     1.0000 0.64920  0.24550  0.09240  Biso   1.000  C
  C269     1.0000 0.14920  0.25450  0.59240  Biso   1.000  C
  C270     1.0000 0.85080  0.25450  0.90760  Biso   1.000  C
  C271     1.0000 0.64920  0.75450  0.59240  Biso   1.000  C
  C272     1.0000 0.35080  0.75450  0.90760  Biso   1.000  C
  H209     1.0000 0.82060  0.73600  0.41820  Biso   1.000  H
  H210     1.0000 0.17940  0.73600  0.08180  Biso   1.000  H
  H211     1.0000 0.32060  0.23600  0.41820  Biso   1.000  H
  H212     1.0000 0.67940  0.23600  0.08180  Biso   1.000  H
  H213     1.0000 0.17940  0.26400  0.58180  Biso   1.000  H
  H214     1.0000 0.82060  0.26400  0.91820  Biso   1.000  H
  H215     1.0000 0.67940  0.76400  0.58180  Biso   1.000  H
  H216     1.0000 0.32060  0.76400  0.91820  Biso   1.000  H
  C273     1.0000 0.90580  0.68960  0.36440  Biso   1.000  C
  C274     1.0000 0.09420  0.68960  0.13560  Biso   1.000  C
  C275     1.0000 0.40580  0.18960  0.36440  Biso   1.000  C
  C276     1.0000 0.59420  0.18960  0.13560  Biso   1.000  C
  C277     1.0000 0.09420  0.31040  0.63560  Biso   1.000  C
  C278     1.0000 0.90580  0.31040  0.86440  Biso   1.000  C
  C279     1.0000 0.59420  0.81040  0.63560  Biso   1.000  C
  C280     1.0000 0.40580  0.81040  0.86440  Biso   1.000  C
  C281     1.0000 0.88690  0.83100  0.41830  Biso   1.000  C
  C282     1.0000 0.11310  0.83100  0.08170  Biso   1.000  C
  C283     1.0000 0.38690  0.33100  0.41830  Biso   1.000  C
  C284     1.0000 0.61310  0.33100  0.08170  Biso   1.000  C
  C285     1.0000 0.11310  0.16900  0.58170  Biso   1.000  C
  C286     1.0000 0.88690  0.16900  0.91830  Biso   1.000  C
  C287     1.0000 0.61310  0.66900  0.58170  Biso   1.000  C
  C288     1.0000 0.38690  0.66900  0.91830  Biso   1.000  C
  H217     1.0000 0.88110  0.88020  0.43680  Biso   1.000  H
  H218     1.0000 0.11890  0.88020  0.06320  Biso   1.000  H
  H219     1.0000 0.38110  0.38020  0.43680  Biso   1.000  H
  H220     1.0000 0.61890  0.38020  0.06320  Biso   1.000  H
  H221     1.0000 0.11890  0.11980  0.56320  Biso   1.000  H
  H222     1.0000 0.88110  0.11980  0.93680  Biso   1.000  H
  H223     1.0000 0.61890  0.61980  0.56320  Biso   1.000  H
  H224     1.0000 0.38110  0.61980  0.93680  Biso   1.000  H
  O161     1.0000 0.03140  0.60730  0.21580  Biso   1.000  O
  O162     1.0000 0.96860  0.60730  0.28420  Biso   1.000  O
  O163     1.0000 0.53140  0.10730  0.21580  Biso   1.000  O
  O164     1.0000 0.46860  0.10730  0.28420  Biso   1.000  O
  O165     1.0000 0.96860  0.39270  0.78420  Biso   1.000  O
  O166     1.0000 0.03140  0.39270  0.71580  Biso   1.000  O
  O167     1.0000 0.46860  0.89270  0.78420  Biso   1.000  O
  O168     1.0000 0.53140  0.89270  0.71580  Biso   1.000  O
