data_image0
_cell_length_a       16.504
_cell_length_b       25.01
_cell_length_c       26.843
_cell_angle_alpha    90
_cell_angle_beta     116.46
_cell_angle_gamma    90

_symmetry_space_group_name_H-M    "P 1"
_symmetry_int_tables_number       1

loop_
  _symmetry_equiv_pos_as_xyz
  'x, y, z'

loop_
  _atom_site_label
  _atom_site_occupancy
  _atom_site_fract_x
  _atom_site_fract_y
  _atom_site_fract_z
  _atom_site_thermal_displace_type
  _atom_site_B_iso_or_equiv
  _atom_site_type_symbol
  N1       1.0000 0.96220  0.14560  0.05210  Biso   1.000  N
  N2       1.0000 0.03780  0.64560  0.44790  Biso   1.000  N
  N3       1.0000 0.03780  0.85440  0.94790  Biso   1.000  N
  N4       1.0000 0.96220  0.35440  0.55210  Biso   1.000  N
  N5       1.0000 0.03930  0.16260  0.04590  Biso   1.000  N
  N6       1.0000 0.96070  0.66260  0.45410  Biso   1.000  N
  N7       1.0000 0.96070  0.83740  0.95410  Biso   1.000  N
  N8       1.0000 0.03930  0.33740  0.54590  Biso   1.000  N
  C1       1.0000 0.08880  0.19880  0.08970  Biso   1.000  C
  C2       1.0000 0.91120  0.69880  0.41030  Biso   1.000  C
  C3       1.0000 0.91120  0.80120  0.91030  Biso   1.000  C
  C4       1.0000 0.08880  0.30120  0.58970  Biso   1.000  C
  H1       1.0000 0.14230  0.21600  0.09560  Biso   1.000  H
  H2       1.0000 0.85770  0.71600  0.40440  Biso   1.000  H
  H3       1.0000 0.85770  0.78400  0.90440  Biso   1.000  H
  H4       1.0000 0.14230  0.28400  0.59560  Biso   1.000  H
  C5       1.0000 0.04230  0.20420  0.12300  Biso   1.000  C
  C6       1.0000 0.95770  0.70420  0.37700  Biso   1.000  C
  C7       1.0000 0.95770  0.79580  0.87700  Biso   1.000  C
  C8       1.0000 0.04230  0.29580  0.62300  Biso   1.000  C
  H5       1.0000 0.05990  0.22560  0.15450  Biso   1.000  H
  H6       1.0000 0.94010  0.72560  0.34550  Biso   1.000  H
  H7       1.0000 0.94010  0.77440  0.84550  Biso   1.000  H
  H8       1.0000 0.05990  0.27440  0.65450  Biso   1.000  H
  C9       1.0000 0.96400  0.17130  0.09970  Biso   1.000  C
  C10      1.0000 0.03600  0.67130  0.40030  Biso   1.000  C
  C11      1.0000 0.03600  0.82870  0.90030  Biso   1.000  C
  C12      1.0000 0.96400  0.32870  0.59970  Biso   1.000  C
  H9       1.0000 0.92150  0.16730  0.11330  Biso   1.000  H
  H10      1.0000 0.07850  0.66730  0.38670  Biso   1.000  H
  H11      1.0000 0.07850  0.83270  0.88670  Biso   1.000  H
  H12      1.0000 0.92150  0.33270  0.61330  Biso   1.000  H
  C13      1.0000 0.93050  0.11510  0.01380  Biso   1.000  C
  C14      1.0000 0.06950  0.61510  0.48620  Biso   1.000  C
  C15      1.0000 0.06950  0.88490  0.98620  Biso   1.000  C
  C16      1.0000 0.93050  0.38490  0.51380  Biso   1.000  C
  H13      1.0000 0.93680  0.13290  0.98360  Biso   1.000  H
  H14      1.0000 0.06320  0.63290  0.51640  Biso   1.000  H
  H15      1.0000 0.06320  0.86710  0.01640  Biso   1.000  H
  H16      1.0000 0.93680  0.36710  0.48360  Biso   1.000  H
  H17      1.0000 0.86620  0.11480  0.00340  Biso   1.000  H
  H18      1.0000 0.13380  0.61480  0.49660  Biso   1.000  H
  H19      1.0000 0.13380  0.88520  0.99660  Biso   1.000  H
  H20      1.0000 0.86620  0.38520  0.50340  Biso   1.000  H
  C17      1.0000 0.95300  0.06000  0.01020  Biso   1.000  C
  C18      1.0000 0.04700  0.56000  0.48980  Biso   1.000  C
  C19      1.0000 0.04700  0.94000  0.98980  Biso   1.000  C
  C20      1.0000 0.95300  0.44000  0.51020  Biso   1.000  C
  C21      1.0000 0.99300  0.01580  0.04610  Biso   1.000  C
  C22      1.0000 0.00700  0.51580  0.45390  Biso   1.000  C
  C23      1.0000 0.00700  0.98420  0.95390  Biso   1.000  C
  C24      1.0000 0.99300  0.48420  0.54610  Biso   1.000  C
  H21      1.0000 0.99540  0.01720  0.08130  Biso   1.000  H
  H22      1.0000 0.00460  0.51720  0.41870  Biso   1.000  H
  H23      1.0000 0.00460  0.98280  0.91870  Biso   1.000  H
  H24      1.0000 0.99540  0.48280  0.58130  Biso   1.000  H
  C25      1.0000 0.96640  0.03440  0.96830  Biso   1.000  C
  C26      1.0000 0.03360  0.53440  0.53170  Biso   1.000  C
  C27      1.0000 0.03360  0.96560  0.03170  Biso   1.000  C
  C28      1.0000 0.96640  0.46560  0.46830  Biso   1.000  C
  H25      1.0000 0.94120  0.05580  0.93670  Biso   1.000  H
  H26      1.0000 0.05880  0.55580  0.56330  Biso   1.000  H
  H27      1.0000 0.05880  0.94420  0.06330  Biso   1.000  H
  H28      1.0000 0.94120  0.44420  0.43670  Biso   1.000  H
  B1       1.0000 0.76550  0.25070  0.76220  Biso   1.000  B
  B2       1.0000 0.23450  0.75070  0.73780  Biso   1.000  B
  B3       1.0000 0.23450  0.74930  0.23780  Biso   1.000  B
  B4       1.0000 0.76550  0.24930  0.26220  Biso   1.000  B
  C29      1.0000 0.50060  0.44440  0.37050  Biso   1.000  C
  C30      1.0000 0.49940  0.94440  0.12950  Biso   1.000  C
  C31      1.0000 0.49940  0.55560  0.62950  Biso   1.000  C
  C32      1.0000 0.50060  0.05560  0.87050  Biso   1.000  C
  H29      1.0000 0.49650  0.45460  0.40260  Biso   1.000  H
  H30      1.0000 0.50350  0.95460  0.09740  Biso   1.000  H
  H31      1.0000 0.50350  0.54540  0.59740  Biso   1.000  H
  H32      1.0000 0.49650  0.04540  0.90260  Biso   1.000  H
  C33      1.0000 0.57720  0.42330  0.37070  Biso   1.000  C
  C34      1.0000 0.42280  0.92330  0.12930  Biso   1.000  C
  C35      1.0000 0.42280  0.57670  0.62930  Biso   1.000  C
  C36      1.0000 0.57720  0.07670  0.87070  Biso   1.000  C
  H33      1.0000 0.63270  0.41760  0.40140  Biso   1.000  H
  H34      1.0000 0.36730  0.91760  0.09860  Biso   1.000  H
  H35      1.0000 0.36730  0.58240  0.59860  Biso   1.000  H
  H36      1.0000 0.63270  0.08240  0.90140  Biso   1.000  H
  C37      1.0000 0.55450  0.41220  0.31590  Biso   1.000  C
  C38      1.0000 0.44550  0.91220  0.18410  Biso   1.000  C
  C39      1.0000 0.44550  0.58780  0.68410  Biso   1.000  C
  C40      1.0000 0.55450  0.08780  0.81590  Biso   1.000  C
  H37      1.0000 0.59150  0.39680  0.30190  Biso   1.000  H
  H38      1.0000 0.40850  0.89680  0.19810  Biso   1.000  H
  H39      1.0000 0.40850  0.60320  0.69810  Biso   1.000  H
  H40      1.0000 0.59150  0.10320  0.80190  Biso   1.000  H
  C41      1.0000 0.42070  0.43210  0.22550  Biso   1.000  C
  C42      1.0000 0.57930  0.93210  0.27450  Biso   1.000  C
  C43      1.0000 0.57930  0.56790  0.77450  Biso   1.000  C
  C44      1.0000 0.42070  0.06790  0.72550  Biso   1.000  C
  H41      1.0000 0.42770  0.46810  0.21440  Biso   1.000  H
  H42      1.0000 0.57230  0.96810  0.28560  Biso   1.000  H
  H43      1.0000 0.57230  0.53190  0.78560  Biso   1.000  H
  H44      1.0000 0.42770  0.03190  0.71440  Biso   1.000  H
  H45      1.0000 0.44890  0.40770  0.20980  Biso   1.000  H
  H46      1.0000 0.55110  0.90770  0.29020  Biso   1.000  H
  H47      1.0000 0.55110  0.59230  0.79020  Biso   1.000  H
  H48      1.0000 0.44890  0.09230  0.70980  Biso   1.000  H
  C45      1.0000 0.32270  0.41940  0.20240  Biso   1.000  C
  C46      1.0000 0.67730  0.91940  0.29760  Biso   1.000  C
  C47      1.0000 0.67730  0.58060  0.79760  Biso   1.000  C
  C48      1.0000 0.32270  0.08060  0.70240  Biso   1.000  C
  C49      1.0000 0.26090  0.46090  0.18880  Biso   1.000  C
  C50      1.0000 0.73910  0.96090  0.31120  Biso   1.000  C
  C51      1.0000 0.73910  0.53910  0.81120  Biso   1.000  C
  C52      1.0000 0.26090  0.03910  0.68880  Biso   1.000  C
  H49      1.0000 0.28090  0.49610  0.19540  Biso   1.000  H
  H50      1.0000 0.71910  0.99610  0.30460  Biso   1.000  H
  H51      1.0000 0.71910  0.50390  0.80460  Biso   1.000  H
  H52      1.0000 0.28090  0.00390  0.69540  Biso   1.000  H
  C53      1.0000 0.16950  0.44960  0.16540  Biso   1.000  C
  C54      1.0000 0.83050  0.94960  0.33460  Biso   1.000  C
  C55      1.0000 0.83050  0.55040  0.83460  Biso   1.000  C
  C56      1.0000 0.16950  0.05040  0.66540  Biso   1.000  C
  H53      1.0000 0.12890  0.47790  0.15580  Biso   1.000  H
  H54      1.0000 0.87110  0.97790  0.34420  Biso   1.000  H
  H55      1.0000 0.87110  0.52210  0.84420  Biso   1.000  H
  H56      1.0000 0.12890  0.02210  0.65580  Biso   1.000  H
  C57      1.0000 0.13630  0.39950  0.15590  Biso   1.000  C
  C58      1.0000 0.86370  0.89950  0.34410  Biso   1.000  C
  C59      1.0000 0.86370  0.60050  0.84410  Biso   1.000  C
  C60      1.0000 0.13630  0.10050  0.65590  Biso   1.000  C
  C61      1.0000 0.19770  0.35780  0.16790  Biso   1.000  C
  C62      1.0000 0.80230  0.85780  0.33210  Biso   1.000  C
  C63      1.0000 0.80230  0.64220  0.83210  Biso   1.000  C
  C64      1.0000 0.19770  0.14220  0.66790  Biso   1.000  C
  H57      1.0000 0.17590  0.32300  0.15930  Biso   1.000  H
  H58      1.0000 0.82410  0.82300  0.34070  Biso   1.000  H
  H59      1.0000 0.82410  0.67700  0.84070  Biso   1.000  H
  H60      1.0000 0.17590  0.17700  0.65930  Biso   1.000  H
  C65      1.0000 0.29130  0.36640  0.19280  Biso   1.000  C
  C66      1.0000 0.70870  0.86640  0.30720  Biso   1.000  C
  C67      1.0000 0.70870  0.63360  0.80720  Biso   1.000  C
  C68      1.0000 0.29130  0.13360  0.69280  Biso   1.000  C
  H61      1.0000 0.33150  0.33780  0.20270  Biso   1.000  H
  H62      1.0000 0.66850  0.83780  0.29730  Biso   1.000  H
  H63      1.0000 0.66850  0.66220  0.79730  Biso   1.000  H
  H64      1.0000 0.33150  0.16220  0.70270  Biso   1.000  H
  C69      1.0000 0.03570  0.38930  0.13240  Biso   1.000  C
  C70      1.0000 0.96430  0.88930  0.36760  Biso   1.000  C
  C71      1.0000 0.96430  0.61070  0.86760  Biso   1.000  C
  C72      1.0000 0.03570  0.11070  0.63240  Biso   1.000  C
  H65      1.0000 0.00390  0.42310  0.12130  Biso   1.000  H
  H66      1.0000 0.99610  0.92310  0.37870  Biso   1.000  H
  H67      1.0000 0.99610  0.57690  0.87870  Biso   1.000  H
  H68      1.0000 0.00390  0.07690  0.62130  Biso   1.000  H
  H69      1.0000 0.02290  0.37420  0.16140  Biso   1.000  H
  H70      1.0000 0.97710  0.87420  0.33860  Biso   1.000  H
  H71      1.0000 0.97710  0.62580  0.83860  Biso   1.000  H
  H72      1.0000 0.02290  0.12580  0.66140  Biso   1.000  H
  C73      1.0000 0.93410  0.31710  0.07220  Biso   1.000  C
  C74      1.0000 0.06590  0.81710  0.42780  Biso   1.000  C
  C75      1.0000 0.06590  0.68290  0.92780  Biso   1.000  C
  C76      1.0000 0.93410  0.18290  0.57220  Biso   1.000  C
  H73      1.0000 0.90660  0.30780  0.09460  Biso   1.000  H
  H74      1.0000 0.09340  0.80780  0.40540  Biso   1.000  H
  H75      1.0000 0.09340  0.69220  0.90540  Biso   1.000  H
  H76      1.0000 0.90660  0.19220  0.59460  Biso   1.000  H
  C77      1.0000 0.91480  0.29760  0.02080  Biso   1.000  C
  C78      1.0000 0.08520  0.79760  0.47920  Biso   1.000  C
  C79      1.0000 0.08520  0.70240  0.97920  Biso   1.000  C
  C80      1.0000 0.91480  0.20240  0.52080  Biso   1.000  C
  H77      1.0000 0.87040  0.27280  0.00040  Biso   1.000  H
  H78      1.0000 0.12960  0.77280  0.49960  Biso   1.000  H
  H79      1.0000 0.12960  0.72720  0.99960  Biso   1.000  H
  H80      1.0000 0.87040  0.22720  0.50040  Biso   1.000  H
  C81      1.0000 0.97390  0.32190  0.00550  Biso   1.000  C
  C82      1.0000 0.02610  0.82190  0.49450  Biso   1.000  C
  C83      1.0000 0.02610  0.67810  0.99450  Biso   1.000  C
  C84      1.0000 0.97390  0.17810  0.50550  Biso   1.000  C
  H81      1.0000 0.97600  0.31540  0.97200  Biso   1.000  H
  H82      1.0000 0.02400  0.81540  0.52800  Biso   1.000  H
  H83      1.0000 0.02400  0.68460  0.02800  Biso   1.000  H
  H84      1.0000 0.97600  0.18460  0.47200  Biso   1.000  H
  C85      1.0000 0.31270  0.41800  0.06810  Biso   1.000  C
  C86      1.0000 0.68730  0.91800  0.43190  Biso   1.000  C
  C87      1.0000 0.68730  0.58200  0.93190  Biso   1.000  C
  C88      1.0000 0.31270  0.08200  0.56810  Biso   1.000  C
  H85      1.0000 0.33610  0.39170  0.09540  Biso   1.000  H
  H86      1.0000 0.66390  0.89170  0.40460  Biso   1.000  H
  H87      1.0000 0.66390  0.60830  0.90460  Biso   1.000  H
  H88      1.0000 0.33610  0.10830  0.59540  Biso   1.000  H
  C89      1.0000 0.36310  0.45350  0.05360  Biso   1.000  C
  C90      1.0000 0.63690  0.95350  0.44640  Biso   1.000  C
  C91      1.0000 0.63690  0.54650  0.94640  Biso   1.000  C
  C92      1.0000 0.36310  0.04650  0.55360  Biso   1.000  C
  H89      1.0000 0.42580  0.45460  0.06780  Biso   1.000  H
  H90      1.0000 0.57420  0.95460  0.43220  Biso   1.000  H
  H91      1.0000 0.57420  0.54540  0.93220  Biso   1.000  H
  H92      1.0000 0.42580  0.04540  0.56780  Biso   1.000  H
  C93      1.0000 0.30430  0.48540  0.01560  Biso   1.000  C
  C94      1.0000 0.69570  0.98540  0.48440  Biso   1.000  C
  C95      1.0000 0.69570  0.51460  0.98440  Biso   1.000  C
  C96      1.0000 0.30430  0.01460  0.51560  Biso   1.000  C
  H93      1.0000 0.31880  0.51470  0.99980  Biso   1.000  H
  H94      1.0000 0.68120  0.01470  0.50020  Biso   1.000  H
  H95      1.0000 0.68120  0.48530  0.00020  Biso   1.000  H
  H96      1.0000 0.31880  0.98530  0.49980  Biso   1.000  H
  C97      1.0000 0.13300  0.48770  0.95820  Biso   1.000  C
  C98      1.0000 0.86700  0.98770  0.54180  Biso   1.000  C
  C99      1.0000 0.86700  0.51230  0.04180  Biso   1.000  C
  C100     1.0000 0.13300  0.01230  0.45820  Biso   1.000  C
  H97      1.0000 0.14200  0.52150  0.94370  Biso   1.000  H
  H98      1.0000 0.85800  0.02150  0.55630  Biso   1.000  H
  H99      1.0000 0.85800  0.47850  0.05630  Biso   1.000  H
  H100     1.0000 0.14200  0.97850  0.44370  Biso   1.000  H
  H101     1.0000 0.11140  0.46190  0.92800  Biso   1.000  H
  H102     1.0000 0.88860  0.96190  0.57200  Biso   1.000  H
  H103     1.0000 0.88860  0.53810  0.07200  Biso   1.000  H
  H104     1.0000 0.11140  0.03810  0.42800  Biso   1.000  H
  C101     1.0000 0.06300  0.49440  0.98010  Biso   1.000  C
  C102     1.0000 0.93700  0.99440  0.51990  Biso   1.000  C
  C103     1.0000 0.93700  0.50560  0.01990  Biso   1.000  C
  C104     1.0000 0.06300  0.00560  0.48010  Biso   1.000  C
  C105     1.0000 0.08200  0.52680  0.02310  Biso   1.000  C
  C106     1.0000 0.91800  0.02680  0.47690  Biso   1.000  C
  C107     1.0000 0.91800  0.47320  0.97690  Biso   1.000  C
  C108     1.0000 0.08200  0.97320  0.52310  Biso   1.000  C
  H105     1.0000 0.13610  0.54570  0.03860  Biso   1.000  H
  H106     1.0000 0.86390  0.04570  0.46140  Biso   1.000  H
  H107     1.0000 0.86390  0.45430  0.96140  Biso   1.000  H
  H108     1.0000 0.13610  0.95430  0.53860  Biso   1.000  H
  C109     1.0000 0.98260  0.46770  0.95430  Biso   1.000  C
  C110     1.0000 0.01740  0.96770  0.54570  Biso   1.000  C
  C111     1.0000 0.01740  0.53230  0.04570  Biso   1.000  C
  C112     1.0000 0.98260  0.03230  0.45430  Biso   1.000  C
  H109     1.0000 0.96970  0.44670  0.92310  Biso   1.000  H
  H110     1.0000 0.03030  0.94670  0.57690  Biso   1.000  H
  H111     1.0000 0.03030  0.55330  0.07690  Biso   1.000  H
  H112     1.0000 0.96970  0.05330  0.42310  Biso   1.000  H
  C113     1.0000 0.14800  0.48160  0.32220  Biso   1.000  C
  C114     1.0000 0.85200  0.98160  0.17780  Biso   1.000  C
  C115     1.0000 0.85200  0.51840  0.67780  Biso   1.000  C
  C116     1.0000 0.14800  0.01840  0.82220  Biso   1.000  C
  H113     1.0000 0.15330  0.51860  0.32400  Biso   1.000  H
  H114     1.0000 0.84670  0.01860  0.17600  Biso   1.000  H
  H115     1.0000 0.84670  0.48140  0.67600  Biso   1.000  H
  H116     1.0000 0.15330  0.98140  0.82400  Biso   1.000  H
  C117     1.0000 0.08070  0.45460  0.32670  Biso   1.000  C
  C118     1.0000 0.91930  0.95460  0.17330  Biso   1.000  C
  C119     1.0000 0.91930  0.54540  0.67330  Biso   1.000  C
  C120     1.0000 0.08070  0.04540  0.82670  Biso   1.000  C
  H117     1.0000 0.03270  0.46860  0.33180  Biso   1.000  H
  H118     1.0000 0.96730  0.96860  0.16820  Biso   1.000  H
  H119     1.0000 0.96730  0.53140  0.66820  Biso   1.000  H
  H120     1.0000 0.03270  0.03140  0.83180  Biso   1.000  H
  C121     1.0000 0.09900  0.40290  0.32200  Biso   1.000  C
  C122     1.0000 0.90100  0.90290  0.17800  Biso   1.000  C
  C123     1.0000 0.90100  0.59710  0.67800  Biso   1.000  C
  C124     1.0000 0.09900  0.09710  0.82200  Biso   1.000  C
  H121     1.0000 0.06460  0.37400  0.32330  Biso   1.000  H
  H122     1.0000 0.93540  0.87400  0.17670  Biso   1.000  H
  H123     1.0000 0.93540  0.62600  0.67670  Biso   1.000  H
  H124     1.0000 0.06460  0.12600  0.82330  Biso   1.000  H
  C125     1.0000 0.21850  0.35240  0.30810  Biso   1.000  C
  C126     1.0000 0.78150  0.85240  0.19190  Biso   1.000  C
  C127     1.0000 0.78150  0.64760  0.69190  Biso   1.000  C
  C128     1.0000 0.21850  0.14760  0.80810  Biso   1.000  C
  H125     1.0000 0.18120  0.32120  0.30410  Biso   1.000  H
  H126     1.0000 0.81880  0.82120  0.19590  Biso   1.000  H
  H127     1.0000 0.81880  0.67880  0.69590  Biso   1.000  H
  H128     1.0000 0.18120  0.17880  0.80410  Biso   1.000  H
  H129     1.0000 0.22500  0.35620  0.27410  Biso   1.000  H
  H130     1.0000 0.77500  0.85620  0.22590  Biso   1.000  H
  H131     1.0000 0.77500  0.64380  0.72590  Biso   1.000  H
  H132     1.0000 0.22500  0.14380  0.77410  Biso   1.000  H
  C129     1.0000 0.31070  0.34350  0.35600  Biso   1.000  C
  C130     1.0000 0.68930  0.84350  0.14400  Biso   1.000  C
  C131     1.0000 0.68930  0.65650  0.64400  Biso   1.000  C
  C132     1.0000 0.31070  0.15650  0.85600  Biso   1.000  C
  C133     1.0000 0.32780  0.35030  0.41030  Biso   1.000  C
  C134     1.0000 0.67220  0.85030  0.08970  Biso   1.000  C
  C135     1.0000 0.67220  0.64970  0.58970  Biso   1.000  C
  C136     1.0000 0.32780  0.14970  0.91030  Biso   1.000  C
  H133     1.0000 0.28230  0.36380  0.41820  Biso   1.000  H
  H134     1.0000 0.71770  0.86380  0.08180  Biso   1.000  H
  H135     1.0000 0.71770  0.63620  0.58180  Biso   1.000  H
  H136     1.0000 0.28230  0.13620  0.91820  Biso   1.000  H
  C137     1.0000 0.41120  0.33770  0.45400  Biso   1.000  C
  C138     1.0000 0.58880  0.83770  0.04600  Biso   1.000  C
  C139     1.0000 0.58880  0.66230  0.54600  Biso   1.000  C
  C140     1.0000 0.41120  0.16230  0.95400  Biso   1.000  C
  H137     1.0000 0.42170  0.34310  0.49070  Biso   1.000  H
  H138     1.0000 0.57830  0.84310  0.00930  Biso   1.000  H
  H139     1.0000 0.57830  0.65690  0.50930  Biso   1.000  H
  H140     1.0000 0.42170  0.15690  0.99070  Biso   1.000  H
  C141     1.0000 0.47790  0.31710  0.44210  Biso   1.000  C
  C142     1.0000 0.52210  0.81710  0.05790  Biso   1.000  C
  C143     1.0000 0.52210  0.68290  0.55790  Biso   1.000  C
  C144     1.0000 0.47790  0.18290  0.94210  Biso   1.000  C
  C145     1.0000 0.46400  0.31030  0.38860  Biso   1.000  C
  C146     1.0000 0.53600  0.81030  0.11140  Biso   1.000  C
  C147     1.0000 0.53600  0.68970  0.61140  Biso   1.000  C
  C148     1.0000 0.46400  0.18970  0.88860  Biso   1.000  C
  H141     1.0000 0.51020  0.29770  0.38080  Biso   1.000  H
  H142     1.0000 0.48980  0.79770  0.11920  Biso   1.000  H
  H143     1.0000 0.48980  0.70230  0.61920  Biso   1.000  H
  H144     1.0000 0.51020  0.20230  0.88080  Biso   1.000  H
  C149     1.0000 0.37960  0.32260  0.34580  Biso   1.000  C
  C150     1.0000 0.62040  0.82260  0.15420  Biso   1.000  C
  C151     1.0000 0.62040  0.67740  0.65420  Biso   1.000  C
  C152     1.0000 0.37960  0.17740  0.84580  Biso   1.000  C
  H145     1.0000 0.36900  0.31650  0.30920  Biso   1.000  H
  H146     1.0000 0.63100  0.81650  0.19080  Biso   1.000  H
  H147     1.0000 0.63100  0.68350  0.69080  Biso   1.000  H
  H148     1.0000 0.36900  0.18350  0.80920  Biso   1.000  H
  C153     1.0000 0.57160  0.30390  0.48930  Biso   1.000  C
  C154     1.0000 0.42840  0.80390  0.01070  Biso   1.000  C
  C155     1.0000 0.42840  0.69610  0.51070  Biso   1.000  C
  C156     1.0000 0.57160  0.19610  0.98930  Biso   1.000  C
  H149     1.0000 0.57420  0.31580  0.52440  Biso   1.000  H
  H150     1.0000 0.42580  0.81580  0.97560  Biso   1.000  H
  H151     1.0000 0.42580  0.68420  0.47560  Biso   1.000  H
  H152     1.0000 0.57420  0.18420  0.02440  Biso   1.000  H
  H153     1.0000 0.61740  0.32320  0.48330  Biso   1.000  H
  H154     1.0000 0.38260  0.82320  0.01670  Biso   1.000  H
  H155     1.0000 0.38260  0.67680  0.51670  Biso   1.000  H
  H156     1.0000 0.61740  0.17680  0.98330  Biso   1.000  H
  C157     1.0000 0.65670  0.22210  0.48430  Biso   1.000  C
  C158     1.0000 0.34330  0.72210  0.01570  Biso   1.000  C
  C159     1.0000 0.34330  0.77790  0.51570  Biso   1.000  C
  C160     1.0000 0.65670  0.27790  0.98430  Biso   1.000  C
  H157     1.0000 0.69740  0.23790  0.47350  Biso   1.000  H
  H158     1.0000 0.30260  0.73790  0.02650  Biso   1.000  H
  H159     1.0000 0.30260  0.76210  0.52650  Biso   1.000  H
  H160     1.0000 0.69740  0.26210  0.97350  Biso   1.000  H
  C161     1.0000 0.65230  0.17010  0.49470  Biso   1.000  C
  C162     1.0000 0.34770  0.67010  0.00530  Biso   1.000  C
  C163     1.0000 0.34770  0.82990  0.50530  Biso   1.000  C
  C164     1.0000 0.65230  0.32990  0.99470  Biso   1.000  C
  H161     1.0000 0.69060  0.14300  0.49420  Biso   1.000  H
  H162     1.0000 0.30940  0.64300  0.00580  Biso   1.000  H
  H163     1.0000 0.30940  0.85700  0.50580  Biso   1.000  H
  H164     1.0000 0.69060  0.35700  0.99420  Biso   1.000  H
  C165     1.0000 0.58090  0.16510  0.50600  Biso   1.000  C
  C166     1.0000 0.41910  0.66510  0.99400  Biso   1.000  C
  C167     1.0000 0.41910  0.83490  0.49400  Biso   1.000  C
  C168     1.0000 0.58090  0.33490  0.00600  Biso   1.000  C
  H165     1.0000 0.56100  0.13250  0.51320  Biso   1.000  H
  H166     1.0000 0.43900  0.63250  0.98680  Biso   1.000  H
  H167     1.0000 0.43900  0.86750  0.48680  Biso   1.000  H
  H168     1.0000 0.56100  0.36750  0.01320  Biso   1.000  H
  C169     1.0000 0.30910  0.22720  0.55890  Biso   1.000  C
  C170     1.0000 0.69090  0.72720  0.94110  Biso   1.000  C
  C171     1.0000 0.69090  0.77280  0.44110  Biso   1.000  C
  C172     1.0000 0.30910  0.27280  0.05890  Biso   1.000  C
  H169     1.0000 0.35350  0.23270  0.59510  Biso   1.000  H
  H170     1.0000 0.64650  0.73270  0.90490  Biso   1.000  H
  H171     1.0000 0.64650  0.76730  0.40490  Biso   1.000  H
  H172     1.0000 0.35350  0.26730  0.09510  Biso   1.000  H
  C173     1.0000 0.21940  0.22160  0.54410  Biso   1.000  C
  C174     1.0000 0.78060  0.72160  0.95590  Biso   1.000  C
  C175     1.0000 0.78060  0.77840  0.45590  Biso   1.000  C
  C176     1.0000 0.21940  0.27840  0.04410  Biso   1.000  C
  H173     1.0000 0.19250  0.22110  0.56800  Biso   1.000  H
  H174     1.0000 0.80750  0.72110  0.93200  Biso   1.000  H
  H175     1.0000 0.80750  0.77890  0.43200  Biso   1.000  H
  H176     1.0000 0.19250  0.27890  0.06800  Biso   1.000  H
  C177     1.0000 0.17680  0.21680  0.48830  Biso   1.000  C
  C178     1.0000 0.82320  0.71680  0.01170  Biso   1.000  C
  C179     1.0000 0.82320  0.78320  0.51170  Biso   1.000  C
  C180     1.0000 0.17680  0.28320  0.98830  Biso   1.000  C
  H177     1.0000 0.11480  0.21360  0.46610  Biso   1.000  H
  H178     1.0000 0.88520  0.71360  0.03390  Biso   1.000  H
  H179     1.0000 0.88520  0.78640  0.53390  Biso   1.000  H
  H180     1.0000 0.11480  0.28640  0.96610  Biso   1.000  H
  C181     1.0000 0.22540  0.21640  0.41430  Biso   1.000  C
  C182     1.0000 0.77460  0.71640  0.08570  Biso   1.000  C
  C183     1.0000 0.77460  0.78360  0.58570  Biso   1.000  C
  C184     1.0000 0.22540  0.28360  0.91430  Biso   1.000  C
  H181     1.0000 0.16230  0.20820  0.39070  Biso   1.000  H
  H182     1.0000 0.83770  0.70820  0.10930  Biso   1.000  H
  H183     1.0000 0.83770  0.79180  0.60930  Biso   1.000  H
  H184     1.0000 0.16230  0.29180  0.89070  Biso   1.000  H
  H185     1.0000 0.23750  0.25170  0.40410  Biso   1.000  H
  H186     1.0000 0.76250  0.75170  0.09590  Biso   1.000  H
  H187     1.0000 0.76250  0.74830  0.59590  Biso   1.000  H
  H188     1.0000 0.23750  0.24830  0.90410  Biso   1.000  H
  C185     1.0000 0.28460  0.17560  0.40340  Biso   1.000  C
  C186     1.0000 0.71540  0.67560  0.09660  Biso   1.000  C
  C187     1.0000 0.71540  0.82440  0.59660  Biso   1.000  C
  C188     1.0000 0.28460  0.32440  0.90340  Biso   1.000  C
  C189     1.0000 0.33800  0.19170  0.37980  Biso   1.000  C
  C190     1.0000 0.66200  0.69170  0.12020  Biso   1.000  C
  C191     1.0000 0.66200  0.80830  0.62020  Biso   1.000  C
  C192     1.0000 0.33800  0.30830  0.87980  Biso   1.000  C
  H189     1.0000 0.33730  0.22740  0.36990  Biso   1.000  H
  H190     1.0000 0.66270  0.72740  0.13010  Biso   1.000  H
  H191     1.0000 0.66270  0.77260  0.63010  Biso   1.000  H
  H192     1.0000 0.33730  0.27260  0.86990  Biso   1.000  H
  C193     1.0000 0.39490  0.15520  0.36990  Biso   1.000  C
  C194     1.0000 0.60510  0.65520  0.13010  Biso   1.000  C
  C195     1.0000 0.60510  0.84480  0.63010  Biso   1.000  C
  C196     1.0000 0.39490  0.34480  0.86990  Biso   1.000  C
  H193     1.0000 0.43140  0.16640  0.35370  Biso   1.000  H
  H194     1.0000 0.56860  0.66640  0.14630  Biso   1.000  H
  H195     1.0000 0.56860  0.83360  0.64630  Biso   1.000  H
  H196     1.0000 0.43140  0.33360  0.85370  Biso   1.000  H
  C197     1.0000 0.39490  0.10200  0.38510  Biso   1.000  C
  C198     1.0000 0.60510  0.60200  0.11490  Biso   1.000  C
  C199     1.0000 0.60510  0.89800  0.61490  Biso   1.000  C
  C200     1.0000 0.39490  0.39800  0.88510  Biso   1.000  C
  C201     1.0000 0.34010  0.08690  0.40790  Biso   1.000  C
  C202     1.0000 0.65990  0.58690  0.09210  Biso   1.000  C
  C203     1.0000 0.65990  0.91310  0.59210  Biso   1.000  C
  C204     1.0000 0.34010  0.41310  0.90790  Biso   1.000  C
  H197     1.0000 0.33810  0.05110  0.41670  Biso   1.000  H
  H198     1.0000 0.66190  0.55110  0.08330  Biso   1.000  H
  H199     1.0000 0.66190  0.94890  0.58330  Biso   1.000  H
  H200     1.0000 0.33810  0.44890  0.91670  Biso   1.000  H
  C205     1.0000 0.28690  0.12340  0.41840  Biso   1.000  C
  C206     1.0000 0.71310  0.62340  0.08160  Biso   1.000  C
  C207     1.0000 0.71310  0.87660  0.58160  Biso   1.000  C
  C208     1.0000 0.28690  0.37660  0.91840  Biso   1.000  C
  H201     1.0000 0.25230  0.11220  0.43590  Biso   1.000  H
  H202     1.0000 0.74770  0.61220  0.06410  Biso   1.000  H
  H203     1.0000 0.74770  0.88780  0.56410  Biso   1.000  H
  H204     1.0000 0.25230  0.38780  0.93590  Biso   1.000  H
  C209     1.0000 0.45680  0.06230  0.37760  Biso   1.000  C
  C210     1.0000 0.54320  0.56230  0.12240  Biso   1.000  C
  C211     1.0000 0.54320  0.93770  0.62240  Biso   1.000  C
  C212     1.0000 0.45680  0.43770  0.87760  Biso   1.000  C
  H205     1.0000 0.44100  0.02700  0.38550  Biso   1.000  H
  H206     1.0000 0.55900  0.52700  0.11450  Biso   1.000  H
  H207     1.0000 0.55900  0.97300  0.61450  Biso   1.000  H
  H208     1.0000 0.44100  0.47300  0.88550  Biso   1.000  H
  H209     1.0000 0.51800  0.06980  0.40540  Biso   1.000  H
  H210     1.0000 0.48200  0.56980  0.09460  Biso   1.000  H
  H211     1.0000 0.48200  0.93020  0.59460  Biso   1.000  H
  H212     1.0000 0.51800  0.43020  0.90540  Biso   1.000  H
  C213     1.0000 0.51510  0.07590  0.30470  Biso   1.000  C
  C214     1.0000 0.48490  0.57590  0.19530  Biso   1.000  C
  C215     1.0000 0.48490  0.92410  0.69530  Biso   1.000  C
  C216     1.0000 0.51510  0.42410  0.80470  Biso   1.000  C
  H213     1.0000 0.56780  0.09490  0.32570  Biso   1.000  H
  H214     1.0000 0.43220  0.59490  0.17430  Biso   1.000  H
  H215     1.0000 0.43220  0.90510  0.67430  Biso   1.000  H
  H216     1.0000 0.56780  0.40510  0.82570  Biso   1.000  H
  C217     1.0000 0.48780  0.06110  0.25080  Biso   1.000  C
  C218     1.0000 0.51220  0.56110  0.24920  Biso   1.000  C
  C219     1.0000 0.51220  0.93890  0.74920  Biso   1.000  C
  C220     1.0000 0.48780  0.43890  0.75080  Biso   1.000  C
  H217     1.0000 0.51700  0.06650  0.22860  Biso   1.000  H
  H218     1.0000 0.48300  0.56650  0.27140  Biso   1.000  H
  H219     1.0000 0.48300  0.93350  0.77140  Biso   1.000  H
  H220     1.0000 0.51700  0.43350  0.72860  Biso   1.000  H
  C221     1.0000 0.40650  0.03610  0.23740  Biso   1.000  C
  C222     1.0000 0.59350  0.53610  0.26260  Biso   1.000  C
  C223     1.0000 0.59350  0.96390  0.76260  Biso   1.000  C
  C224     1.0000 0.40650  0.46390  0.73740  Biso   1.000  C
  H221     1.0000 0.36910  0.02250  0.20240  Biso   1.000  H
  H222     1.0000 0.63090  0.52250  0.29760  Biso   1.000  H
  H223     1.0000 0.63090  0.97750  0.79760  Biso   1.000  H
  H224     1.0000 0.36910  0.47750  0.70240  Biso   1.000  H
  C225     1.0000 0.20700  0.05920  0.97810  Biso   1.000  C
  C226     1.0000 0.79300  0.55920  0.52190  Biso   1.000  C
  C227     1.0000 0.79300  0.94080  0.02190  Biso   1.000  C
  C228     1.0000 0.20700  0.44080  0.47810  Biso   1.000  C
  H225     1.0000 0.16050  0.05510  0.94240  Biso   1.000  H
  H226     1.0000 0.83950  0.55510  0.55760  Biso   1.000  H
  H227     1.0000 0.83950  0.94490  0.05760  Biso   1.000  H
  H228     1.0000 0.16050  0.44490  0.44240  Biso   1.000  H
  C229     1.0000 0.28100  0.02780  0.00000  Biso   1.000  C
  C230     1.0000 0.71900  0.52780  0.50000  Biso   1.000  C
  C231     1.0000 0.71900  0.97220  0.00000  Biso   1.000  C
  C232     1.0000 0.28100  0.47220  0.50000  Biso   1.000  C
  H229     1.0000 0.29500  0.99840  0.98450  Biso   1.000  H
  H230     1.0000 0.70500  0.49840  0.51550  Biso   1.000  H
  H231     1.0000 0.70500  0.00160  0.01550  Biso   1.000  H
  H232     1.0000 0.29500  0.50160  0.48450  Biso   1.000  H
  C233     1.0000 0.32980  0.04970  0.05180  Biso   1.000  C
  C234     1.0000 0.67020  0.54970  0.44820  Biso   1.000  C
  C235     1.0000 0.67020  0.95030  0.94820  Biso   1.000  C
  C236     1.0000 0.32980  0.45030  0.55180  Biso   1.000  C
  H233     1.0000 0.38540  0.03720  0.07820  Biso   1.000  H
  H234     1.0000 0.61460  0.53720  0.42180  Biso   1.000  H
  H235     1.0000 0.61460  0.96280  0.92180  Biso   1.000  H
  H236     1.0000 0.38540  0.46280  0.57820  Biso   1.000  H
  C237     1.0000 0.31570  0.12600  0.10460  Biso   1.000  C
  C238     1.0000 0.68430  0.62600  0.39540  Biso   1.000  C
  C239     1.0000 0.68430  0.87400  0.89540  Biso   1.000  C
  C240     1.0000 0.31570  0.37400  0.60460  Biso   1.000  C
  H237     1.0000 0.30780  0.16230  0.09040  Biso   1.000  H
  H238     1.0000 0.69220  0.66230  0.40960  Biso   1.000  H
  H239     1.0000 0.69220  0.83770  0.90960  Biso   1.000  H
  H240     1.0000 0.30780  0.33770  0.59040  Biso   1.000  H
  H241     1.0000 0.38010  0.12050  0.12720  Biso   1.000  H
  H242     1.0000 0.61990  0.62050  0.37280  Biso   1.000  H
  H243     1.0000 0.61990  0.87950  0.87280  Biso   1.000  H
  H244     1.0000 0.38010  0.37950  0.62720  Biso   1.000  H
  C241     1.0000 0.27090  0.12190  0.14130  Biso   1.000  C
  C242     1.0000 0.72910  0.62190  0.35870  Biso   1.000  C
  C243     1.0000 0.72910  0.87810  0.85870  Biso   1.000  C
  C244     1.0000 0.27090  0.37810  0.64130  Biso   1.000  C
  C245     1.0000 0.20720  0.08250  0.13700  Biso   1.000  C
  C246     1.0000 0.79280  0.58250  0.36300  Biso   1.000  C
  C247     1.0000 0.79280  0.91750  0.86300  Biso   1.000  C
  C248     1.0000 0.20720  0.41750  0.63700  Biso   1.000  C
  H245     1.0000 0.19130  0.05650  0.10950  Biso   1.000  H
  H246     1.0000 0.80870  0.55650  0.39050  Biso   1.000  H
  H247     1.0000 0.80870  0.94350  0.89050  Biso   1.000  H
  H248     1.0000 0.19130  0.44350  0.60950  Biso   1.000  H
  C249     1.0000 0.16780  0.08180  0.17280  Biso   1.000  C
  C250     1.0000 0.83220  0.58180  0.32720  Biso   1.000  C
  C251     1.0000 0.83220  0.91820  0.82720  Biso   1.000  C
  C252     1.0000 0.16780  0.41820  0.67280  Biso   1.000  C
  H249     1.0000 0.12570  0.05540  0.16900  Biso   1.000  H
  H250     1.0000 0.87430  0.55540  0.33100  Biso   1.000  H
  H251     1.0000 0.87430  0.94460  0.83100  Biso   1.000  H
  H252     1.0000 0.12570  0.44460  0.66900  Biso   1.000  H
  C253     1.0000 0.19100  0.12060  0.21510  Biso   1.000  C
  C254     1.0000 0.80900  0.62060  0.28490  Biso   1.000  C
  C255     1.0000 0.80900  0.87940  0.78490  Biso   1.000  C
  C256     1.0000 0.19100  0.37940  0.71510  Biso   1.000  C
  C257     1.0000 0.25470  0.15920  0.21930  Biso   1.000  C
  C258     1.0000 0.74530  0.65920  0.28070  Biso   1.000  C
  C259     1.0000 0.74530  0.84080  0.78070  Biso   1.000  C
  C260     1.0000 0.25470  0.34080  0.71930  Biso   1.000  C
  H253     1.0000 0.27120  0.18520  0.24680  Biso   1.000  H
  H254     1.0000 0.72880  0.68520  0.25320  Biso   1.000  H
  H255     1.0000 0.72880  0.81480  0.75320  Biso   1.000  H
  H256     1.0000 0.27120  0.31480  0.74680  Biso   1.000  H
  C261     1.0000 0.29410  0.15940  0.18290  Biso   1.000  C
  C262     1.0000 0.70590  0.65940  0.31710  Biso   1.000  C
  C263     1.0000 0.70590  0.84060  0.81710  Biso   1.000  C
  C264     1.0000 0.29410  0.34060  0.68290  Biso   1.000  C
  H257     1.0000 0.33680  0.18540  0.18680  Biso   1.000  H
  H258     1.0000 0.66320  0.68540  0.31320  Biso   1.000  H
  H259     1.0000 0.66320  0.81460  0.81320  Biso   1.000  H
  H260     1.0000 0.33680  0.31460  0.68680  Biso   1.000  H
  C265     1.0000 0.14440  0.12510  0.25240  Biso   1.000  C
  C266     1.0000 0.85560  0.62510  0.24760  Biso   1.000  C
  C267     1.0000 0.85560  0.87490  0.74760  Biso   1.000  C
  C268     1.0000 0.14440  0.37490  0.75240  Biso   1.000  C
  H261     1.0000 0.18660  0.14100  0.28730  Biso   1.000  H
  H262     1.0000 0.81340  0.64100  0.21270  Biso   1.000  H
  H263     1.0000 0.81340  0.85900  0.71270  Biso   1.000  H
  H264     1.0000 0.18660  0.35900  0.78730  Biso   1.000  H
  H265     1.0000 0.09390  0.14960  0.23510  Biso   1.000  H
  H266     1.0000 0.90610  0.64960  0.26490  Biso   1.000  H
  H267     1.0000 0.90610  0.85040  0.76490  Biso   1.000  H
  H268     1.0000 0.09390  0.35040  0.73510  Biso   1.000  H
  C269     1.0000 0.03470  0.07060  0.27030  Biso   1.000  C
  C270     1.0000 0.96530  0.57060  0.22970  Biso   1.000  C
  C271     1.0000 0.96530  0.92940  0.72970  Biso   1.000  C
  C272     1.0000 0.03470  0.42940  0.77030  Biso   1.000  C
  H269     1.0000 0.98810  0.09550  0.25990  Biso   1.000  H
  H270     1.0000 0.01190  0.59550  0.24010  Biso   1.000  H
  H271     1.0000 0.01190  0.90450  0.74010  Biso   1.000  H
  H272     1.0000 0.98810  0.40450  0.75990  Biso   1.000  H
  C273     1.0000 0.03680  0.02160  0.29370  Biso   1.000  C
  C274     1.0000 0.96320  0.52160  0.20630  Biso   1.000  C
  C275     1.0000 0.96320  0.97840  0.70630  Biso   1.000  C
  C276     1.0000 0.03680  0.47840  0.79370  Biso   1.000  C
  H273     1.0000 0.99380  0.00620  0.30290  Biso   1.000  H
  H274     1.0000 0.00620  0.50620  0.19710  Biso   1.000  H
  H275     1.0000 0.00620  0.99380  0.69710  Biso   1.000  H
  H276     1.0000 0.99380  0.49380  0.80290  Biso   1.000  H
  C277     1.0000 0.11850  0.00050  0.30050  Biso   1.000  C
  C278     1.0000 0.88150  0.50050  0.19950  Biso   1.000  C
  C279     1.0000 0.88150  0.99950  0.69950  Biso   1.000  C
  C280     1.0000 0.11850  0.49950  0.80050  Biso   1.000  C
  H277     1.0000 0.13910  0.96670  0.31510  Biso   1.000  H
  H278     1.0000 0.86090  0.46670  0.18490  Biso   1.000  H
  H279     1.0000 0.86090  0.03330  0.68490  Biso   1.000  H
  H280     1.0000 0.13910  0.53330  0.81510  Biso   1.000  H
  Cu1      1.0000 0.31097  0.46304  0.30381  Biso   1.000  Cu
  Cu2      1.0000 0.68903  0.96304  0.19619  Biso   1.000  Cu
  Cu3      1.0000 0.68903  0.53696  0.69619  Biso   1.000  Cu
  Cu4      1.0000 0.31097  0.03696  0.80381  Biso   1.000  Cu
  Cu5      1.0000 0.12293  0.39588  0.04099  Biso   1.000  Cu
  Cu6      1.0000 0.87707  0.89588  0.45901  Biso   1.000  Cu
  Cu7      1.0000 0.87707  0.60412  0.95901  Biso   1.000  Cu
  Cu8      1.0000 0.12293  0.10412  0.54099  Biso   1.000  Cu
  Cu9      1.0000 0.43572  0.22289  0.51206  Biso   1.000  Cu
  Cu10     1.0000 0.56428  0.72289  0.98794  Biso   1.000  Cu
  Cu11     1.0000 0.56428  0.77711  0.48794  Biso   1.000  Cu
  Cu12     1.0000 0.43572  0.27711  0.01206  Biso   1.000  Cu
  Cu13     1.0000 0.11016  0.13860  0.00734  Biso   1.000  Cu
  Cu14     1.0000 0.88984  0.63860  0.49266  Biso   1.000  Cu
  Cu15     1.0000 0.88984  0.86140  0.99266  Biso   1.000  Cu
  Cu16     1.0000 0.11016  0.36140  0.50734  Biso   1.000  Cu
  Cu17     1.0000 0.27253  0.02308  0.27741  Biso   1.000  Cu
  Cu18     1.0000 0.72747  0.52308  0.22259  Biso   1.000  Cu
  Cu19     1.0000 0.72747  0.97692  0.72259  Biso   1.000  Cu
  Cu20     1.0000 0.27253  0.47692  0.77741  Biso   1.000  Cu
  N9       1.0000 0.43260  0.44880  0.31960  Biso   1.000  N
  N10      1.0000 0.56740  0.94880  0.18040  Biso   1.000  N
  N11      1.0000 0.56740  0.55120  0.68040  Biso   1.000  N
  N12      1.0000 0.43260  0.05120  0.81960  Biso   1.000  N
  N13      1.0000 0.46740  0.42840  0.28620  Biso   1.000  N
  N14      1.0000 0.53260  0.92840  0.21380  Biso   1.000  N
  N15      1.0000 0.53260  0.57160  0.71380  Biso   1.000  N
  N16      1.0000 0.46740  0.07160  0.78620  Biso   1.000  N
  N17      1.0000 0.02830  0.35580  0.04350  Biso   1.000  N
  N18      1.0000 0.97170  0.85580  0.45650  Biso   1.000  N
  N19      1.0000 0.97170  0.64420  0.95650  Biso   1.000  N
  N20      1.0000 0.02830  0.14420  0.54350  Biso   1.000  N
  N21      1.0000 0.00070  0.35240  0.08380  Biso   1.000  N
  N22      1.0000 0.99930  0.85240  0.41620  Biso   1.000  N
  N23      1.0000 0.99930  0.64760  0.91620  Biso   1.000  N
  N24      1.0000 0.00070  0.14760  0.58380  Biso   1.000  N
  N25      1.0000 0.22480  0.42790  0.03650  Biso   1.000  N
  N26      1.0000 0.77520  0.92790  0.46350  Biso   1.000  N
  N27      1.0000 0.77520  0.57210  0.96350  Biso   1.000  N
  N28      1.0000 0.22480  0.07210  0.53650  Biso   1.000  N
  N29      1.0000 0.22060  0.46900  0.00360  Biso   1.000  N
  N30      1.0000 0.77940  0.96900  0.49640  Biso   1.000  N
  N31      1.0000 0.77940  0.53100  0.99640  Biso   1.000  N
  N32      1.0000 0.22060  0.03100  0.50360  Biso   1.000  N
  N33      1.0000 0.20670  0.44890  0.31490  Biso   1.000  N
  N34      1.0000 0.79330  0.94890  0.18510  Biso   1.000  N
  N35      1.0000 0.79330  0.55110  0.68510  Biso   1.000  N
  N36      1.0000 0.20670  0.05110  0.81490  Biso   1.000  N
  N37      1.0000 0.17270  0.39970  0.31530  Biso   1.000  N
  N38      1.0000 0.82730  0.89970  0.18470  Biso   1.000  N
  N39      1.0000 0.82730  0.60030  0.68470  Biso   1.000  N
  N40      1.0000 0.17270  0.10030  0.81530  Biso   1.000  N
  N41      1.0000 0.54230  0.21140  0.50590  Biso   1.000  N
  N42      1.0000 0.45770  0.71140  0.99410  Biso   1.000  N
  N43      1.0000 0.45770  0.78860  0.49410  Biso   1.000  N
  N44      1.0000 0.54230  0.28860  0.00590  Biso   1.000  N
  N45      1.0000 0.59100  0.24740  0.49250  Biso   1.000  N
  N46      1.0000 0.40900  0.74740  0.00750  Biso   1.000  N
  N47      1.0000 0.40900  0.75260  0.50750  Biso   1.000  N
  N48      1.0000 0.59100  0.25260  0.99250  Biso   1.000  N
  N49      1.0000 0.32440  0.22400  0.51530  Biso   1.000  N
  N50      1.0000 0.67560  0.72400  0.98470  Biso   1.000  N
  N51      1.0000 0.67560  0.77600  0.48470  Biso   1.000  N
  N52      1.0000 0.32440  0.27600  0.01530  Biso   1.000  N
  N53      1.0000 0.24030  0.21760  0.47150  Biso   1.000  N
  N54      1.0000 0.75970  0.71760  0.02850  Biso   1.000  N
  N55      1.0000 0.75970  0.78240  0.52850  Biso   1.000  N
  N56      1.0000 0.24030  0.28240  0.97150  Biso   1.000  N
  N57      1.0000 0.45780  0.05990  0.32330  Biso   1.000  N
  N58      1.0000 0.54220  0.55990  0.17670  Biso   1.000  N
  N59      1.0000 0.54220  0.94010  0.67670  Biso   1.000  N
  N60      1.0000 0.45780  0.44010  0.82330  Biso   1.000  N
  N61      1.0000 0.38780  0.03380  0.28050  Biso   1.000  N
  N62      1.0000 0.61220  0.53380  0.21950  Biso   1.000  N
  N63      1.0000 0.61220  0.96620  0.71950  Biso   1.000  N
  N64      1.0000 0.38780  0.46620  0.78050  Biso   1.000  N
  N65      1.0000 0.20940  0.09660  0.01330  Biso   1.000  N
  N66      1.0000 0.79060  0.59660  0.48670  Biso   1.000  N
  N67      1.0000 0.79060  0.90340  0.98670  Biso   1.000  N
  N68      1.0000 0.20940  0.40340  0.51330  Biso   1.000  N
  N69      1.0000 0.28710  0.09080  0.05860  Biso   1.000  N
  N70      1.0000 0.71290  0.59080  0.44140  Biso   1.000  N
  N71      1.0000 0.71290  0.90920  0.94140  Biso   1.000  N
  N72      1.0000 0.28710  0.40920  0.55860  Biso   1.000  N
  N73      1.0000 0.16340  0.03310  0.28410  Biso   1.000  N
  N74      1.0000 0.83660  0.53310  0.21590  Biso   1.000  N
  N75      1.0000 0.83660  0.96690  0.71590  Biso   1.000  N
  N76      1.0000 0.16340  0.46690  0.78410  Biso   1.000  N
  N77      1.0000 0.11130  0.07670  0.26470  Biso   1.000  N
  N78      1.0000 0.88870  0.57670  0.23530  Biso   1.000  N
  N79      1.0000 0.88870  0.92330  0.73530  Biso   1.000  N
  N80      1.0000 0.11130  0.42330  0.76470  Biso   1.000  N
  O1       1.0000 0.75400  0.12640  0.85150  Biso   1.000  O
  O2       1.0000 0.24600  0.62640  0.64850  Biso   1.000  O
  O3       1.0000 0.24600  0.87360  0.14850  Biso   1.000  O
  O4       1.0000 0.75400  0.37360  0.35150  Biso   1.000  O
  O5       1.0000 0.98170  0.20770  0.81390  Biso   1.000  O
  O6       1.0000 0.01830  0.70770  0.68610  Biso   1.000  O
  O7       1.0000 0.01830  0.79230  0.18610  Biso   1.000  O
  O8       1.0000 0.98170  0.29230  0.31390  Biso   1.000  O
  O9       1.0000 0.96710  0.31050  0.79350  Biso   1.000  O
  O10      1.0000 0.03290  0.81050  0.70650  Biso   1.000  O
  O11      1.0000 0.03290  0.68950  0.20650  Biso   1.000  O
  O12      1.0000 0.96710  0.18950  0.29350  Biso   1.000  O
  O13      1.0000 0.71450  0.39700  0.80100  Biso   1.000  O
  O14      1.0000 0.28550  0.89700  0.69900  Biso   1.000  O
  O15      1.0000 0.28550  0.60300  0.19900  Biso   1.000  O
  O16      1.0000 0.71450  0.10300  0.30100  Biso   1.000  O
  O17      1.0000 0.78990  0.35780  0.69300  Biso   1.000  O
  O18      1.0000 0.21010  0.85780  0.80700  Biso   1.000  O
  O19      1.0000 0.21010  0.64220  0.30700  Biso   1.000  O
  O20      1.0000 0.78990  0.14220  0.19300  Biso   1.000  O
  O21      1.0000 0.86340  0.35800  0.88490  Biso   1.000  O
  O22      1.0000 0.13660  0.85800  0.61510  Biso   1.000  O
  O23      1.0000 0.13660  0.64200  0.11510  Biso   1.000  O
  O24      1.0000 0.86340  0.14200  0.38490  Biso   1.000  O
  O25      1.0000 0.07750  0.25000  0.76110  Biso   1.000  O
  O26      1.0000 0.92250  0.75000  0.73890  Biso   1.000  O
  O27      1.0000 0.92250  0.75000  0.23890  Biso   1.000  O
  O28      1.0000 0.07750  0.25000  0.26110  Biso   1.000  O
  O29      1.0000 0.76420  0.27270  0.88740  Biso   1.000  O
  O30      1.0000 0.23580  0.77270  0.61260  Biso   1.000  O
  O31      1.0000 0.23580  0.72730  0.11260  Biso   1.000  O
  O32      1.0000 0.76420  0.22730  0.38740  Biso   1.000  O
  O33      1.0000 0.66170  0.24530  0.72770  Biso   1.000  O
  O34      1.0000 0.33830  0.74530  0.77230  Biso   1.000  O
  O35      1.0000 0.33830  0.75470  0.27230  Biso   1.000  O
  O36      1.0000 0.66170  0.25470  0.22770  Biso   1.000  O
  O37      1.0000 0.78840  0.04670  0.79250  Biso   1.000  O
  O38      1.0000 0.21160  0.54670  0.70750  Biso   1.000  O
  O39      1.0000 0.21160  0.95330  0.20750  Biso   1.000  O
  O40      1.0000 0.78840  0.45330  0.29250  Biso   1.000  O
  O41      1.0000 0.87100  0.39840  0.79450  Biso   1.000  O
  O42      1.0000 0.12900  0.89840  0.70550  Biso   1.000  O
  O43      1.0000 0.12900  0.60160  0.20550  Biso   1.000  O
  O44      1.0000 0.87100  0.10160  0.29450  Biso   1.000  O
  O45      1.0000 0.50440  0.29310  0.69670  Biso   1.000  O
  O46      1.0000 0.49560  0.79310  0.80330  Biso   1.000  O
  O47      1.0000 0.49560  0.70690  0.30330  Biso   1.000  O
  O48      1.0000 0.50440  0.20690  0.19670  Biso   1.000  O
  O49      1.0000 0.66850  0.13020  0.74130  Biso   1.000  O
  O50      1.0000 0.33150  0.63020  0.75870  Biso   1.000  O
  O51      1.0000 0.33150  0.86980  0.25870  Biso   1.000  O
  O52      1.0000 0.66850  0.36980  0.24130  Biso   1.000  O
  O53      1.0000 0.95620  0.27310  0.88100  Biso   1.000  O
  O54      1.0000 0.04380  0.77310  0.61900  Biso   1.000  O
  O55      1.0000 0.04380  0.72690  0.11900  Biso   1.000  O
  O56      1.0000 0.95620  0.22690  0.38100  Biso   1.000  O
  O57      1.0000 0.05610  0.18000  0.92680  Biso   1.000  O
  O58      1.0000 0.94390  0.68000  0.57320  Biso   1.000  O
  O59      1.0000 0.94390  0.82000  0.07320  Biso   1.000  O
  O60      1.0000 0.05610  0.32000  0.42680  Biso   1.000  O
  O61      1.0000 0.63390  0.20910  0.82340  Biso   1.000  O
  O62      1.0000 0.36610  0.70910  0.67660  Biso   1.000  O
  O63      1.0000 0.36610  0.79090  0.17660  Biso   1.000  O
  O64      1.0000 0.63390  0.29090  0.32340  Biso   1.000  O
  O65      1.0000 0.66040  0.29200  0.62870  Biso   1.000  O
  O66      1.0000 0.33960  0.79200  0.87130  Biso   1.000  O
  O67      1.0000 0.33960  0.70800  0.37130  Biso   1.000  O
  O68      1.0000 0.66040  0.20800  0.12870  Biso   1.000  O
  O69      1.0000 0.71090  0.37480  0.90040  Biso   1.000  O
  O70      1.0000 0.28910  0.87480  0.59960  Biso   1.000  O
  O71      1.0000 0.28910  0.62520  0.09960  Biso   1.000  O
  O72      1.0000 0.71090  0.12520  0.40040  Biso   1.000  O
  O73      1.0000 0.82220  0.12850  0.73520  Biso   1.000  O
  O74      1.0000 0.17780  0.62850  0.76480  Biso   1.000  O
  O75      1.0000 0.17780  0.87150  0.26480  Biso   1.000  O
  O76      1.0000 0.82220  0.37150  0.23520  Biso   1.000  O
  O77      1.0000 0.46130  0.25550  0.77670  Biso   1.000  O
  O78      1.0000 0.53870  0.75550  0.72330  Biso   1.000  O
  O79      1.0000 0.53870  0.74450  0.22330  Biso   1.000  O
  O80      1.0000 0.46130  0.24450  0.27670  Biso   1.000  O
  O81      1.0000 0.78670  0.30710  0.78850  Biso   1.000  O
  O82      1.0000 0.21330  0.80710  0.71150  Biso   1.000  O
  O83      1.0000 0.21330  0.69290  0.21150  Biso   1.000  O
  O84      1.0000 0.78670  0.19290  0.28850  Biso   1.000  O
  O85      1.0000 0.92900  0.18670  0.70530  Biso   1.000  O
  O86      1.0000 0.07100  0.68670  0.79470  Biso   1.000  O
  O87      1.0000 0.07100  0.81330  0.29470  Biso   1.000  O
  O88      1.0000 0.92900  0.31330  0.20530  Biso   1.000  O
  O89      1.0000 0.67690  0.16730  0.65330  Biso   1.000  O
  O90      1.0000 0.32310  0.66730  0.84670  Biso   1.000  O
  O91      1.0000 0.32310  0.83270  0.34670  Biso   1.000  O
  O92      1.0000 0.67690  0.33270  0.15330  Biso   1.000  O
  O93      1.0000 0.88320  0.19410  0.91590  Biso   1.000  O
  O94      1.0000 0.11680  0.69410  0.58410  Biso   1.000  O
  O95      1.0000 0.11680  0.80590  0.08410  Biso   1.000  O
  O96      1.0000 0.88320  0.30590  0.41590  Biso   1.000  O
  O97      1.0000 0.52100  0.18910  0.71780  Biso   1.000  O
  O98      1.0000 0.47900  0.68910  0.78220  Biso   1.000  O
  O99      1.0000 0.47900  0.81090  0.28220  Biso   1.000  O
  O100     1.0000 0.52100  0.31090  0.21780  Biso   1.000  O
  O101     1.0000 0.81000  0.24460  0.72390  Biso   1.000  O
  O102     1.0000 0.19000  0.74460  0.77610  Biso   1.000  O
  O103     1.0000 0.19000  0.75540  0.27610  Biso   1.000  O
  O104     1.0000 0.81000  0.25540  0.22390  Biso   1.000  O
  O105     1.0000 0.80060  0.20860  0.80780  Biso   1.000  O
  O106     1.0000 0.19940  0.70860  0.69220  Biso   1.000  O
  O107     1.0000 0.19940  0.79140  0.19220  Biso   1.000  O
  O108     1.0000 0.80060  0.29140  0.30780  Biso   1.000  O
  O109     1.0000 0.51960  0.11770  0.63940  Biso   1.000  O
  O110     1.0000 0.48040  0.61770  0.86060  Biso   1.000  O
  O111     1.0000 0.48040  0.88230  0.36060  Biso   1.000  O
  O112     1.0000 0.51960  0.38230  0.13940  Biso   1.000  O
  O113     1.0000 0.80510  0.11730  0.62840  Biso   1.000  O
  O114     1.0000 0.19490  0.61730  0.87160  Biso   1.000  O
  O115     1.0000 0.19490  0.88270  0.37160  Biso   1.000  O
  O116     1.0000 0.80510  0.38270  0.12840  Biso   1.000  O
  O117     1.0000 0.91390  0.29220  0.68540  Biso   1.000  O
  O118     1.0000 0.08610  0.79220  0.81460  Biso   1.000  O
  O119     1.0000 0.08610  0.70780  0.31460  Biso   1.000  O
  O120     1.0000 0.91390  0.20780  0.18540  Biso   1.000  O
  O121     1.0000 0.03050  0.37410  0.88800  Biso   1.000  O
  O122     1.0000 0.96950  0.87410  0.61200  Biso   1.000  O
  O123     1.0000 0.96950  0.62590  0.11200  Biso   1.000  O
  O124     1.0000 0.03050  0.12590  0.38800  Biso   1.000  O
  O125     1.0000 0.91160  0.12690  0.84770  Biso   1.000  O
  O126     1.0000 0.08840  0.62690  0.65230  Biso   1.000  O
  O127     1.0000 0.08840  0.87310  0.15230  Biso   1.000  O
  O128     1.0000 0.91160  0.37310  0.34770  Biso   1.000  O
  O129     1.0000 0.63280  0.35720  0.69630  Biso   1.000  O
  O130     1.0000 0.36720  0.85720  0.80370  Biso   1.000  O
  O131     1.0000 0.36720  0.64280  0.30370  Biso   1.000  O
  O132     1.0000 0.63280  0.14280  0.19630  Biso   1.000  O
  O133     1.0000 0.72490  0.45200  0.71550  Biso   1.000  O
  O134     1.0000 0.27510  0.95200  0.78450  Biso   1.000  O
  O135     1.0000 0.27510  0.54800  0.28450  Biso   1.000  O
  O136     1.0000 0.72490  0.04800  0.21550  Biso   1.000  O
  O137     1.0000 0.62190  0.31220  0.80540  Biso   1.000  O
  O138     1.0000 0.37810  0.81220  0.69460  Biso   1.000  O
  O139     1.0000 0.37810  0.68780  0.19460  Biso   1.000  O
  O140     1.0000 0.62190  0.18780  0.30540  Biso   1.000  O
  O141     1.0000 0.48700  0.33060  0.59490  Biso   1.000  O
  O142     1.0000 0.51300  0.83060  0.90510  Biso   1.000  O
  O143     1.0000 0.51300  0.66940  0.40510  Biso   1.000  O
  O144     1.0000 0.48700  0.16940  0.09490  Biso   1.000  O
  O145     1.0000 0.52940  0.22680  0.62730  Biso   1.000  O
  O146     1.0000 0.47060  0.72680  0.87270  Biso   1.000  O
  O147     1.0000 0.47060  0.77320  0.37270  Biso   1.000  O
  O148     1.0000 0.52940  0.27320  0.12730  Biso   1.000  O
  O149     1.0000 0.77580  0.33290  0.58950  Biso   1.000  O
  O150     1.0000 0.22420  0.83290  0.91050  Biso   1.000  O
  O151     1.0000 0.22420  0.66710  0.41050  Biso   1.000  O
  O152     1.0000 0.77580  0.16710  0.08950  Biso   1.000  O
  O153     1.0000 0.78180  0.22710  0.62090  Biso   1.000  O
  O154     1.0000 0.21820  0.72710  0.87910  Biso   1.000  O
  O155     1.0000 0.21820  0.77290  0.37910  Biso   1.000  O
  O156     1.0000 0.78180  0.27290  0.12090  Biso   1.000  O
  O157     1.0000 0.73330  0.18070  0.93430  Biso   1.000  O
  O158     1.0000 0.26670  0.68070  0.56570  Biso   1.000  O
  O159     1.0000 0.26670  0.81930  0.06570  Biso   1.000  O
  O160     1.0000 0.73330  0.31930  0.43430  Biso   1.000  O
  O161     1.0000 0.63540  0.05110  0.59560  Biso   1.000  O
  O162     1.0000 0.36460  0.55110  0.90440  Biso   1.000  O
  O163     1.0000 0.36460  0.94890  0.40440  Biso   1.000  O
  O164     1.0000 0.63540  0.44890  0.09560  Biso   1.000  O
  H281     1.0000 0.60080  0.06980  0.60440  Biso   1.000  H
  H282     1.0000 0.39920  0.56980  0.89560  Biso   1.000  H
  H283     1.0000 0.39920  0.93020  0.39560  Biso   1.000  H
  H284     1.0000 0.60080  0.43020  0.10440  Biso   1.000  H
  H285     1.0000 0.68610  0.06700  0.60770  Biso   1.000  H
  H286     1.0000 0.31390  0.56700  0.89230  Biso   1.000  H
  H287     1.0000 0.31390  0.93300  0.39230  Biso   1.000  H
  H288     1.0000 0.68610  0.43300  0.10770  Biso   1.000  H
  W1       1.0000 0.75196  0.19684  0.87820  Biso   1.000  W
  W2       1.0000 0.24804  0.69684  0.62180  Biso   1.000  W
  W3       1.0000 0.24804  0.80316  0.12180  Biso   1.000  W
  W4       1.0000 0.75196  0.30316  0.37820  Biso   1.000  W
  W5       1.0000 0.78478  0.29914  0.64683  Biso   1.000  W
  W6       1.0000 0.21522  0.79914  0.85317  Biso   1.000  W
  W7       1.0000 0.21522  0.70086  0.35317  Biso   1.000  W
  W8       1.0000 0.78478  0.20086  0.14683  Biso   1.000  W
  W9       1.0000 0.95112  0.19826  0.87447  Biso   1.000  W
  W10      1.0000 0.04888  0.69826  0.62553  Biso   1.000  W
  W11      1.0000 0.04888  0.80174  0.12553  Biso   1.000  W
  W12      1.0000 0.95112  0.30174  0.37447  Biso   1.000  W
  W13      1.0000 0.56774  0.29835  0.65139  Biso   1.000  W
  W14      1.0000 0.43226  0.79835  0.84861  Biso   1.000  W
  W15      1.0000 0.43226  0.70165  0.34861  Biso   1.000  W
  W16      1.0000 0.56774  0.20165  0.15139  Biso   1.000  W
  W17      1.0000 0.79016  0.11469  0.79286  Biso   1.000  W
  W18      1.0000 0.20984  0.61469  0.70714  Biso   1.000  W
  W19      1.0000 0.20984  0.88531  0.20714  Biso   1.000  W
  W20      1.0000 0.79016  0.38531  0.29286  Biso   1.000  W
  W21      1.0000 0.73849  0.34064  0.85460  Biso   1.000  W
  W22      1.0000 0.26151  0.84064  0.64540  Biso   1.000  W
  W23      1.0000 0.26151  0.65936  0.14540  Biso   1.000  W
  W24      1.0000 0.73849  0.15936  0.35460  Biso   1.000  W
  W25      1.0000 0.80075  0.16845  0.66967  Biso   1.000  W
  W26      1.0000 0.19925  0.66845  0.83033  Biso   1.000  W
  W27      1.0000 0.19925  0.83155  0.33033  Biso   1.000  W
  W28      1.0000 0.80075  0.33155  0.16967  Biso   1.000  W
  W29      1.0000 0.58655  0.16870  0.67894  Biso   1.000  W
  W30      1.0000 0.41345  0.66870  0.82106  Biso   1.000  W
  W31      1.0000 0.41345  0.83130  0.32106  Biso   1.000  W
  W32      1.0000 0.58655  0.33130  0.17894  Biso   1.000  W
  W33      1.0000 0.96789  0.24829  0.75143  Biso   1.000  W
  W34      1.0000 0.03211  0.74829  0.74857  Biso   1.000  W
  W35      1.0000 0.03211  0.75171  0.24857  Biso   1.000  W
  W36      1.0000 0.96789  0.25171  0.25143  Biso   1.000  W
  W37      1.0000 0.74591  0.38857  0.74131  Biso   1.000  W
  W38      1.0000 0.25409  0.88857  0.75869  Biso   1.000  W
  W39      1.0000 0.25409  0.61143  0.25869  Biso   1.000  W
  W40      1.0000 0.74591  0.11143  0.24131  Biso   1.000  W
  W41      1.0000 0.93277  0.34132  0.84471  Biso   1.000  W
  W42      1.0000 0.06723  0.84132  0.65529  Biso   1.000  W
  W43      1.0000 0.06723  0.65868  0.15529  Biso   1.000  W
  W44      1.0000 0.93277  0.15868  0.34471  Biso   1.000  W
  W45      1.0000 0.55313  0.25385  0.76386  Biso   1.000  W
  W46      1.0000 0.44687  0.75385  0.73614  Biso   1.000  W
  W47      1.0000 0.44687  0.74615  0.23614  Biso   1.000  W
  W48      1.0000 0.55313  0.24615  0.26386  Biso   1.000  W
