data_image0
_cell_length_a       15.3011
_cell_length_b       20.084
_cell_length_c       25.52
_cell_angle_alpha    90
_cell_angle_beta     90
_cell_angle_gamma    90

_symmetry_space_group_name_H-M    "P 1"
_symmetry_int_tables_number       1

loop_
  _symmetry_equiv_pos_as_xyz
  'x, y, z'

loop_
  _atom_site_label
  _atom_site_occupancy
  _atom_site_fract_x
  _atom_site_fract_y
  _atom_site_fract_z
  _atom_site_thermal_displace_type
  _atom_site_B_iso_or_equiv
  _atom_site_type_symbol
  Cu1      1.0000 0.76798  0.00631  0.78628  Biso   1.000  Cu
  Cu2      1.0000 0.73202  0.99369  0.28628  Biso   1.000  Cu
  Cu3      1.0000 0.26798  0.49369  0.21372  Biso   1.000  Cu
  Cu4      1.0000 0.23202  0.50631  0.71372  Biso   1.000  Cu
  Cu5      1.0000 0.57485  0.79433  0.54872  Biso   1.000  Cu
  Cu6      1.0000 0.92515  0.20567  0.04872  Biso   1.000  Cu
  Cu7      1.0000 0.07485  0.70567  0.45128  Biso   1.000  Cu
  Cu8      1.0000 0.42515  0.29433  0.95128  Biso   1.000  Cu
  Cu9      1.0000 0.92963  0.16750  0.53783  Biso   1.000  Cu
  Cu10     1.0000 0.57037  0.83250  0.03783  Biso   1.000  Cu
  Cu11     1.0000 0.42963  0.33250  0.46217  Biso   1.000  Cu
  Cu12     1.0000 0.07037  0.66750  0.96217  Biso   1.000  Cu
  O1       1.0000 0.98070  0.05110  0.62760  Biso   1.000  O
  O2       1.0000 0.51930  0.94890  0.12760  Biso   1.000  O
  O3       1.0000 0.48070  0.44890  0.37240  Biso   1.000  O
  O4       1.0000 0.01930  0.55110  0.87240  Biso   1.000  O
  O5       1.0000 0.78180  0.00500  0.69500  Biso   1.000  O
  O6       1.0000 0.71820  0.99500  0.19500  Biso   1.000  O
  O7       1.0000 0.28180  0.49500  0.30500  Biso   1.000  O
  O8       1.0000 0.21820  0.50500  0.80500  Biso   1.000  O
  H1       1.0000 0.73820  0.02350  0.67420  Biso   1.000  H
  H2       1.0000 0.76180  0.97650  0.17420  Biso   1.000  H
  H3       1.0000 0.23820  0.47650  0.32580  Biso   1.000  H
  H4       1.0000 0.26180  0.52350  0.82580  Biso   1.000  H
  H5       1.0000 0.83090  0.98600  0.67950  Biso   1.000  H
  H6       1.0000 0.66910  0.01400  0.17950  Biso   1.000  H
  H7       1.0000 0.33090  0.51400  0.32050  Biso   1.000  H
  H8       1.0000 0.16910  0.48600  0.82050  Biso   1.000  H
  O9       1.0000 0.00390  0.15200  0.59850  Biso   1.000  O
  O10      1.0000 0.49610  0.84800  0.09850  Biso   1.000  O
  O11      1.0000 0.50390  0.34800  0.40150  Biso   1.000  O
  O12      1.0000 0.99610  0.65200  0.90150  Biso   1.000  O
  O13      1.0000 0.65610  0.05180  0.77760  Biso   1.000  O
  O14      1.0000 0.84390  0.94820  0.27760  Biso   1.000  O
  O15      1.0000 0.15610  0.44820  0.22240  Biso   1.000  O
  O16      1.0000 0.34390  0.55180  0.72240  Biso   1.000  O
  O17      1.0000 0.63340  0.04560  0.86350  Biso   1.000  O
  O18      1.0000 0.86660  0.95440  0.36350  Biso   1.000  O
  O19      1.0000 0.13340  0.45440  0.13650  Biso   1.000  O
  O20      1.0000 0.36660  0.54560  0.63650  Biso   1.000  O
  O21      1.0000 0.26440  0.15310  0.78740  Biso   1.000  O
  O22      1.0000 0.23560  0.84690  0.28740  Biso   1.000  O
  O23      1.0000 0.76440  0.34690  0.21260  Biso   1.000  O
  O24      1.0000 0.73560  0.65310  0.71260  Biso   1.000  O
  O25      1.0000 0.50310  0.79420  0.60830  Biso   1.000  O
  O26      1.0000 0.99690  0.20580  0.10830  Biso   1.000  O
  O27      1.0000 0.00310  0.70580  0.39170  Biso   1.000  O
  O28      1.0000 0.49690  0.29420  0.89170  Biso   1.000  O
  O29      1.0000 0.51890  0.89950  0.62910  Biso   1.000  O
  O30      1.0000 0.98110  0.10050  0.12910  Biso   1.000  O
  O31      1.0000 0.01890  0.60050  0.37090  Biso   1.000  O
  O32      1.0000 0.48110  0.39950  0.87090  Biso   1.000  O
  O33      1.0000 0.87980  0.95850  0.78250  Biso   1.000  O
  O34      1.0000 0.62020  0.04150  0.28250  Biso   1.000  O
  O35      1.0000 0.37980  0.54150  0.21750  Biso   1.000  O
  O36      1.0000 0.12020  0.45850  0.71750  Biso   1.000  O
  O37      1.0000 0.89100  0.94930  0.87020  Biso   1.000  O
  O38      1.0000 0.60900  0.05070  0.37020  Biso   1.000  O
  O39      1.0000 0.39100  0.55070  0.12980  Biso   1.000  O
  O40      1.0000 0.10900  0.44930  0.62980  Biso   1.000  O
  O41      1.0000 0.24710  0.81330  0.80190  Biso   1.000  O
  O42      1.0000 0.25290  0.18670  0.30190  Biso   1.000  O
  O43      1.0000 0.74710  0.68670  0.19810  Biso   1.000  O
  O44      1.0000 0.75290  0.31330  0.69810  Biso   1.000  O
  O45      1.0000 0.88730  0.22720  0.48260  Biso   1.000  O
  O46      1.0000 0.61270  0.77280  0.98260  Biso   1.000  O
  O47      1.0000 0.38730  0.27280  0.51740  Biso   1.000  O
  O48      1.0000 0.11270  0.72720  0.01740  Biso   1.000  O
  O49      1.0000 0.98480  0.29040  0.52110  Biso   1.000  O
  O50      1.0000 0.51520  0.70960  0.02110  Biso   1.000  O
  O51      1.0000 0.48480  0.20960  0.47890  Biso   1.000  O
  O52      1.0000 0.01520  0.79040  0.97890  Biso   1.000  O
  O53      1.0000 0.62950  0.75020  0.48920  Biso   1.000  O
  O54      1.0000 0.87050  0.24980  0.98920  Biso   1.000  O
  O55      1.0000 0.12950  0.74980  0.51080  Biso   1.000  O
  O56      1.0000 0.37050  0.25020  0.01080  Biso   1.000  O
  O57      1.0000 0.54940  0.67860  0.52920  Biso   1.000  O
  O58      1.0000 0.95060  0.32140  0.02920  Biso   1.000  O
  O59      1.0000 0.04940  0.82140  0.47080  Biso   1.000  O
  O60      1.0000 0.45060  0.17860  0.97080  Biso   1.000  O
  O61      1.0000 0.78350  0.49880  0.37530  Biso   1.000  O
  O62      1.0000 0.71650  0.50120  0.87530  Biso   1.000  O
  O63      1.0000 0.28350  0.00120  0.62470  Biso   1.000  O
  O64      1.0000 0.21650  0.99880  0.12470  Biso   1.000  O
  N1       1.0000 0.31150  0.30960  0.91640  Biso   1.000  N
  N2       1.0000 0.18850  0.69040  0.41640  Biso   1.000  N
  N3       1.0000 0.81150  0.19040  0.08360  Biso   1.000  N
  N4       1.0000 0.68850  0.80960  0.58360  Biso   1.000  N
  N5       1.0000 0.83430  0.09170  0.80050  Biso   1.000  N
  N6       1.0000 0.66570  0.90830  0.30050  Biso   1.000  N
  N7       1.0000 0.33430  0.40830  0.19950  Biso   1.000  N
  N8       1.0000 0.16570  0.59170  0.69950  Biso   1.000  N
  N9       1.0000 0.70280  0.92200  0.79670  Biso   1.000  N
  N10      1.0000 0.79720  0.07800  0.29670  Biso   1.000  N
  N11      1.0000 0.20280  0.57800  0.20330  Biso   1.000  N
  N12      1.0000 0.29720  0.42200  0.70330  Biso   1.000  N
  N13      1.0000 0.18410  0.67750  0.92330  Biso   1.000  N
  N14      1.0000 0.31590  0.32250  0.42330  Biso   1.000  N
  N15      1.0000 0.68410  0.82250  0.07670  Biso   1.000  N
  N16      1.0000 0.81590  0.17750  0.57670  Biso   1.000  N
  N17      1.0000 0.49270  0.84580  0.50150  Biso   1.000  N
  N18      1.0000 0.00730  0.15420  0.00150  Biso   1.000  N
  N19      1.0000 0.99270  0.65420  0.49850  Biso   1.000  N
  N20      1.0000 0.50730  0.34580  0.99850  Biso   1.000  N
  N21      1.0000 0.02050  0.13220  0.48810  Biso   1.000  N
  N22      1.0000 0.47950  0.86780  0.98810  Biso   1.000  N
  N23      1.0000 0.52050  0.36780  0.51190  Biso   1.000  N
  N24      1.0000 0.97950  0.63220  0.01190  Biso   1.000  N
  C1       1.0000 0.23580  0.33020  0.94570  Biso   1.000  C
  C2       1.0000 0.26420  0.66980  0.44570  Biso   1.000  C
  C3       1.0000 0.73580  0.16980  0.05430  Biso   1.000  C
  C4       1.0000 0.76420  0.83020  0.55430  Biso   1.000  C
  H9       1.0000 0.24230  0.33030  0.98190  Biso   1.000  H
  H10      1.0000 0.25770  0.66970  0.48190  Biso   1.000  H
  H11      1.0000 0.74230  0.16970  0.01810  Biso   1.000  H
  H12      1.0000 0.75770  0.83030  0.51810  Biso   1.000  H
  C5       1.0000 0.15820  0.34910  0.92820  Biso   1.000  C
  C6       1.0000 0.34180  0.65090  0.42820  Biso   1.000  C
  C7       1.0000 0.65820  0.15090  0.07180  Biso   1.000  C
  C8       1.0000 0.84180  0.84910  0.57180  Biso   1.000  C
  H13      1.0000 0.11420  0.36480  0.95000  Biso   1.000  H
  H14      1.0000 0.38580  0.63520  0.45000  Biso   1.000  H
  H15      1.0000 0.61420  0.13520  0.05000  Biso   1.000  H
  H16      1.0000 0.88580  0.86480  0.55000  Biso   1.000  H
  C9       1.0000 0.14880  0.34330  0.87480  Biso   1.000  C
  C10      1.0000 0.35120  0.65670  0.37480  Biso   1.000  C
  C11      1.0000 0.64880  0.15670  0.12520  Biso   1.000  C
  C12      1.0000 0.85120  0.84330  0.62520  Biso   1.000  C
  C13      1.0000 0.21290  0.32290  0.84500  Biso   1.000  C
  C14      1.0000 0.28710  0.67710  0.34500  Biso   1.000  C
  C15      1.0000 0.71290  0.17710  0.15500  Biso   1.000  C
  C16      1.0000 0.78710  0.82290  0.65500  Biso   1.000  C
  H17      1.0000 0.20400  0.31750  0.80920  Biso   1.000  H
  H18      1.0000 0.29600  0.68250  0.30920  Biso   1.000  H
  H19      1.0000 0.70400  0.18250  0.19080  Biso   1.000  H
  H20      1.0000 0.79600  0.81750  0.69080  Biso   1.000  H
  C17      1.0000 0.29430  0.30910  0.86670  Biso   1.000  C
  C18      1.0000 0.20570  0.69090  0.36670  Biso   1.000  C
  C19      1.0000 0.79430  0.19090  0.13330  Biso   1.000  C
  C20      1.0000 0.70570  0.80910  0.63330  Biso   1.000  C
  H21      1.0000 0.33960  0.29890  0.84380  Biso   1.000  H
  H22      1.0000 0.16040  0.70110  0.34380  Biso   1.000  H
  H23      1.0000 0.83960  0.20110  0.15620  Biso   1.000  H
  H24      1.0000 0.66040  0.79890  0.65620  Biso   1.000  H
  C21      1.0000 0.90780  0.10600  0.77570  Biso   1.000  C
  C22      1.0000 0.59220  0.89400  0.27570  Biso   1.000  C
  C23      1.0000 0.40780  0.39400  0.22430  Biso   1.000  C
  C24      1.0000 0.09220  0.60600  0.72430  Biso   1.000  C
  H25      1.0000 0.92550  0.07890  0.74810  Biso   1.000  H
  H26      1.0000 0.57450  0.92110  0.24810  Biso   1.000  H
  H27      1.0000 0.42550  0.42110  0.25190  Biso   1.000  H
  H28      1.0000 0.07450  0.57890  0.75190  Biso   1.000  H
  C25      1.0000 0.95620  0.15680  0.78870  Biso   1.000  C
  C26      1.0000 0.54380  0.84320  0.28870  Biso   1.000  C
  C27      1.0000 0.45620  0.34320  0.21130  Biso   1.000  C
  C28      1.0000 0.04380  0.65680  0.71130  Biso   1.000  C
  H29      1.0000 0.00280  0.16650  0.76660  Biso   1.000  H
  H30      1.0000 0.49720  0.83350  0.26660  Biso   1.000  H
  H31      1.0000 0.50280  0.33350  0.23340  Biso   1.000  H
  H32      1.0000 0.99720  0.66650  0.73340  Biso   1.000  H
  C29      1.0000 0.94610  0.19510  0.82900  Biso   1.000  C
  C30      1.0000 0.55390  0.80490  0.32900  Biso   1.000  C
  C31      1.0000 0.44610  0.30490  0.17100  Biso   1.000  C
  C32      1.0000 0.05390  0.69510  0.67100  Biso   1.000  C
  C33      1.0000 0.87190  0.17710  0.85480  Biso   1.000  C
  C34      1.0000 0.62810  0.82290  0.35480  Biso   1.000  C
  C35      1.0000 0.37190  0.32290  0.14520  Biso   1.000  C
  C36      1.0000 0.12810  0.67710  0.64520  Biso   1.000  C
  H33      1.0000 0.85750  0.20060  0.88500  Biso   1.000  H
  H34      1.0000 0.64250  0.79940  0.38500  Biso   1.000  H
  H35      1.0000 0.35750  0.29940  0.11500  Biso   1.000  H
  H36      1.0000 0.14250  0.70060  0.61500  Biso   1.000  H
  C37      1.0000 0.81780  0.12750  0.83970  Biso   1.000  C
  C38      1.0000 0.68220  0.87250  0.33970  Biso   1.000  C
  C39      1.0000 0.31780  0.37250  0.16030  Biso   1.000  C
  C40      1.0000 0.18220  0.62750  0.66030  Biso   1.000  C
  H37      1.0000 0.76700  0.11970  0.85880  Biso   1.000  H
  H38      1.0000 0.73300  0.88030  0.35880  Biso   1.000  H
  H39      1.0000 0.26700  0.38030  0.14120  Biso   1.000  H
  H40      1.0000 0.23300  0.61970  0.64120  Biso   1.000  H
  C41      1.0000 0.00650  0.24560  0.84950  Biso   1.000  C
  C42      1.0000 0.49350  0.75440  0.34950  Biso   1.000  C
  C43      1.0000 0.50650  0.25440  0.15050  Biso   1.000  C
  C44      1.0000 0.99350  0.74560  0.65050  Biso   1.000  C
  H41      1.0000 0.99860  0.24750  0.88720  Biso   1.000  H
  H42      1.0000 0.50140  0.75250  0.38720  Biso   1.000  H
  H43      1.0000 0.49860  0.25250  0.11280  Biso   1.000  H
  H44      1.0000 0.00140  0.74750  0.61280  Biso   1.000  H
  H45      1.0000 0.06550  0.22990  0.84320  Biso   1.000  H
  H46      1.0000 0.43450  0.77010  0.34320  Biso   1.000  H
  H47      1.0000 0.56550  0.27010  0.15680  Biso   1.000  H
  H48      1.0000 0.93450  0.72990  0.65680  Biso   1.000  H
  C45      1.0000 0.00140  0.30800  0.83120  Biso   1.000  C
  C46      1.0000 0.49860  0.69200  0.33120  Biso   1.000  C
  C47      1.0000 0.50140  0.19200  0.16880  Biso   1.000  C
  C48      1.0000 0.99860  0.80800  0.66880  Biso   1.000  C
  H49      1.0000 0.94130  0.32230  0.83570  Biso   1.000  H
  H50      1.0000 0.55870  0.67770  0.33570  Biso   1.000  H
  H51      1.0000 0.44130  0.17770  0.16430  Biso   1.000  H
  H52      1.0000 0.05870  0.82230  0.66430  Biso   1.000  H
  H53      1.0000 0.01190  0.30580  0.79370  Biso   1.000  H
  H54      1.0000 0.48810  0.69420  0.29370  Biso   1.000  H
  H55      1.0000 0.51190  0.19420  0.20630  Biso   1.000  H
  H56      1.0000 0.98810  0.80580  0.70630  Biso   1.000  H
  C49      1.0000 0.05960  0.36360  0.85280  Biso   1.000  C
  C50      1.0000 0.44040  0.63640  0.35280  Biso   1.000  C
  C51      1.0000 0.55960  0.13640  0.14720  Biso   1.000  C
  C52      1.0000 0.94040  0.86360  0.64720  Biso   1.000  C
  H57      1.0000 0.02750  0.38630  0.88030  Biso   1.000  H
  H58      1.0000 0.47250  0.61370  0.38030  Biso   1.000  H
  H59      1.0000 0.52750  0.11370  0.11970  Biso   1.000  H
  H60      1.0000 0.97250  0.88630  0.61970  Biso   1.000  H
  H61      1.0000 0.06930  0.39570  0.82490  Biso   1.000  H
  H62      1.0000 0.43070  0.60430  0.32490  Biso   1.000  H
  H63      1.0000 0.56930  0.10430  0.17510  Biso   1.000  H
  H64      1.0000 0.93070  0.89570  0.67510  Biso   1.000  H
  C53      1.0000 0.65180  0.89660  0.75810  Biso   1.000  C
  C54      1.0000 0.84820  0.10340  0.25810  Biso   1.000  C
  C55      1.0000 0.15180  0.60340  0.24190  Biso   1.000  C
  C56      1.0000 0.34820  0.39660  0.74190  Biso   1.000  C
  H65      1.0000 0.64460  0.92040  0.72720  Biso   1.000  H
  H66      1.0000 0.85540  0.07960  0.22720  Biso   1.000  H
  H67      1.0000 0.14460  0.57960  0.27280  Biso   1.000  H
  H68      1.0000 0.35540  0.42040  0.77280  Biso   1.000  H
  C57      1.0000 0.61020  0.83570  0.76420  Biso   1.000  C
  C58      1.0000 0.88980  0.16430  0.26420  Biso   1.000  C
  C59      1.0000 0.11020  0.66430  0.23580  Biso   1.000  C
  C60      1.0000 0.38980  0.33570  0.73580  Biso   1.000  C
  H69      1.0000 0.57890  0.81790  0.73640  Biso   1.000  H
  H70      1.0000 0.92110  0.18210  0.23640  Biso   1.000  H
  H71      1.0000 0.07890  0.68210  0.26360  Biso   1.000  H
  H72      1.0000 0.42110  0.31790  0.76360  Biso   1.000  H
  C61      1.0000 0.61430  0.80200  0.80990  Biso   1.000  C
  C62      1.0000 0.88570  0.19800  0.30990  Biso   1.000  C
  C63      1.0000 0.11430  0.69800  0.19010  Biso   1.000  C
  C64      1.0000 0.38570  0.30200  0.69010  Biso   1.000  C
  C65      1.0000 0.65840  0.82760  0.84770  Biso   1.000  C
  C66      1.0000 0.84160  0.17240  0.34770  Biso   1.000  C
  C67      1.0000 0.15840  0.67240  0.15230  Biso   1.000  C
  C68      1.0000 0.34160  0.32760  0.65230  Biso   1.000  C
  H73      1.0000 0.66110  0.80530  0.87960  Biso   1.000  H
  H74      1.0000 0.83890  0.19470  0.37960  Biso   1.000  H
  H75      1.0000 0.16110  0.69470  0.12040  Biso   1.000  H
  H76      1.0000 0.33890  0.30530  0.62040  Biso   1.000  H
  C69      1.0000 0.70200  0.88740  0.84210  Biso   1.000  C
  C70      1.0000 0.79800  0.11260  0.34210  Biso   1.000  C
  C71      1.0000 0.20200  0.61260  0.15790  Biso   1.000  C
  C72      1.0000 0.29800  0.38740  0.65790  Biso   1.000  C
  H77      1.0000 0.73210  0.90460  0.87080  Biso   1.000  H
  H78      1.0000 0.76790  0.09540  0.37080  Biso   1.000  H
  H79      1.0000 0.23210  0.59540  0.12920  Biso   1.000  H
  H80      1.0000 0.26790  0.40460  0.62920  Biso   1.000  H
  C73      1.0000 0.19750  0.65950  0.87150  Biso   1.000  C
  C74      1.0000 0.30250  0.34050  0.37150  Biso   1.000  C
  C75      1.0000 0.69750  0.84050  0.12850  Biso   1.000  C
  C76      1.0000 0.80250  0.15950  0.62850  Biso   1.000  C
  H81      1.0000 0.14770  0.64700  0.85310  Biso   1.000  H
  H82      1.0000 0.35230  0.35300  0.35310  Biso   1.000  H
  H83      1.0000 0.64770  0.85300  0.14690  Biso   1.000  H
  H84      1.0000 0.85230  0.14700  0.64690  Biso   1.000  H
  C77      1.0000 0.26860  0.65770  0.84540  Biso   1.000  C
  C78      1.0000 0.23140  0.34230  0.34540  Biso   1.000  C
  C79      1.0000 0.76860  0.84230  0.15460  Biso   1.000  C
  C80      1.0000 0.73140  0.15770  0.65460  Biso   1.000  C
  H85      1.0000 0.26950  0.64490  0.81040  Biso   1.000  H
  H86      1.0000 0.23050  0.35510  0.31040  Biso   1.000  H
  H87      1.0000 0.76950  0.85510  0.18960  Biso   1.000  H
  H88      1.0000 0.73050  0.14490  0.68960  Biso   1.000  H
  C81      1.0000 0.34640  0.67630  0.87220  Biso   1.000  C
  C82      1.0000 0.15360  0.32370  0.37220  Biso   1.000  C
  C83      1.0000 0.84640  0.82370  0.12780  Biso   1.000  C
  C84      1.0000 0.65360  0.17630  0.62780  Biso   1.000  C
  C85      1.0000 0.33380  0.69520  0.92420  Biso   1.000  C
  C86      1.0000 0.16620  0.30480  0.42420  Biso   1.000  C
  C87      1.0000 0.83380  0.80480  0.07580  Biso   1.000  C
  C88      1.0000 0.66620  0.19520  0.57580  Biso   1.000  C
  H89      1.0000 0.38170  0.70920  0.94380  Biso   1.000  H
  H90      1.0000 0.11830  0.29080  0.44380  Biso   1.000  H
  H91      1.0000 0.88170  0.79080  0.05620  Biso   1.000  H
  H92      1.0000 0.61830  0.20920  0.55620  Biso   1.000  H
  C89      1.0000 0.25320  0.69390  0.94740  Biso   1.000  C
  C90      1.0000 0.24680  0.30610  0.44740  Biso   1.000  C
  C91      1.0000 0.75320  0.80610  0.05260  Biso   1.000  C
  C92      1.0000 0.74680  0.19390  0.55260  Biso   1.000  C
  H93      1.0000 0.24890  0.70560  0.98260  Biso   1.000  H
  H94      1.0000 0.25110  0.29440  0.48260  Biso   1.000  H
  H95      1.0000 0.74890  0.79440  0.01740  Biso   1.000  H
  H96      1.0000 0.75110  0.20560  0.51740  Biso   1.000  H
  C93      1.0000 0.56140  0.73720  0.81450  Biso   1.000  C
  C94      1.0000 0.93860  0.26280  0.31450  Biso   1.000  C
  C95      1.0000 0.06140  0.76280  0.18550  Biso   1.000  C
  C96      1.0000 0.43860  0.23720  0.68550  Biso   1.000  C
  H97      1.0000 0.54800  0.72160  0.77950  Biso   1.000  H
  H98      1.0000 0.95200  0.27840  0.27950  Biso   1.000  H
  H99      1.0000 0.04800  0.77840  0.22050  Biso   1.000  H
  H100     1.0000 0.45200  0.22160  0.72050  Biso   1.000  H
  H101     1.0000 0.59800  0.70390  0.83100  Biso   1.000  H
  H102     1.0000 0.90200  0.29610  0.33100  Biso   1.000  H
  H103     1.0000 0.09800  0.79610  0.16900  Biso   1.000  H
  H104     1.0000 0.40200  0.20390  0.66900  Biso   1.000  H
  C97      1.0000 0.47870  0.74210  0.84440  Biso   1.000  C
  C98      1.0000 0.02130  0.25790  0.34440  Biso   1.000  C
  C99      1.0000 0.97870  0.75790  0.15560  Biso   1.000  C
  C100     1.0000 0.52130  0.24210  0.65560  Biso   1.000  C
  H105     1.0000 0.43910  0.77280  0.82720  Biso   1.000  H
  H106     1.0000 0.06090  0.22720  0.32720  Biso   1.000  H
  H107     1.0000 0.93910  0.72720  0.17280  Biso   1.000  H
  H108     1.0000 0.56090  0.27280  0.67280  Biso   1.000  H
  H109     1.0000 0.49030  0.75850  0.87950  Biso   1.000  H
  H110     1.0000 0.00970  0.24150  0.37950  Biso   1.000  H
  H111     1.0000 0.99030  0.74150  0.12050  Biso   1.000  H
  H112     1.0000 0.50970  0.25850  0.62050  Biso   1.000  H
  C101     1.0000 0.43770  0.67330  0.84720  Biso   1.000  C
  C102     1.0000 0.06230  0.32670  0.34720  Biso   1.000  C
  C103     1.0000 0.93770  0.82670  0.15280  Biso   1.000  C
  C104     1.0000 0.56230  0.17330  0.65280  Biso   1.000  C
  H113     1.0000 0.47480  0.64410  0.86770  Biso   1.000  H
  H114     1.0000 0.02520  0.35590  0.36770  Biso   1.000  H
  H115     1.0000 0.97480  0.85590  0.13230  Biso   1.000  H
  H116     1.0000 0.52520  0.14410  0.63230  Biso   1.000  H
  H117     1.0000 0.43310  0.65490  0.81210  Biso   1.000  H
  H118     1.0000 0.06690  0.34510  0.31210  Biso   1.000  H
  H119     1.0000 0.93310  0.84510  0.18790  Biso   1.000  H
  H120     1.0000 0.56690  0.15490  0.68790  Biso   1.000  H
  C105     1.0000 0.40840  0.82310  0.48920  Biso   1.000  C
  C106     1.0000 0.09160  0.17690  0.98920  Biso   1.000  C
  C107     1.0000 0.90840  0.67690  0.51080  Biso   1.000  C
  C108     1.0000 0.59160  0.32310  0.01080  Biso   1.000  C
  H121     1.0000 0.38650  0.78470  0.50480  Biso   1.000  H
  H122     1.0000 0.11350  0.21530  0.00480  Biso   1.000  H
  H123     1.0000 0.88650  0.71530  0.49520  Biso   1.000  H
  H124     1.0000 0.61350  0.28470  0.99520  Biso   1.000  H
  C109     1.0000 0.36120  0.85620  0.45580  Biso   1.000  C
  C110     1.0000 0.13880  0.14380  0.95580  Biso   1.000  C
  C111     1.0000 0.86120  0.64380  0.54420  Biso   1.000  C
  C112     1.0000 0.63880  0.35620  0.04420  Biso   1.000  C
  H125     1.0000 0.30520  0.84060  0.44860  Biso   1.000  H
  H126     1.0000 0.19480  0.15940  0.94860  Biso   1.000  H
  H127     1.0000 0.80520  0.65940  0.55140  Biso   1.000  H
  H128     1.0000 0.69480  0.34060  0.05140  Biso   1.000  H
  C113     1.0000 0.38940  0.91380  0.42980  Biso   1.000  C
  C114     1.0000 0.11060  0.08620  0.92980  Biso   1.000  C
  C115     1.0000 0.88940  0.58620  0.57020  Biso   1.000  C
  C116     1.0000 0.61060  0.41380  0.07020  Biso   1.000  C
  C117     1.0000 0.47150  0.93490  0.44190  Biso   1.000  C
  C118     1.0000 0.02850  0.06510  0.94190  Biso   1.000  C
  C119     1.0000 0.97150  0.56510  0.55810  Biso   1.000  C
  C120     1.0000 0.52850  0.43490  0.05810  Biso   1.000  C
  H129     1.0000 0.49430  0.97340  0.42700  Biso   1.000  H
  H130     1.0000 0.00570  0.02660  0.92700  Biso   1.000  H
  H131     1.0000 0.99430  0.52660  0.57300  Biso   1.000  H
  H132     1.0000 0.50570  0.47340  0.07300  Biso   1.000  H
  C121     1.0000 0.52130  0.89700  0.47780  Biso   1.000  C
  C122     1.0000 0.97870  0.10300  0.97780  Biso   1.000  C
  C123     1.0000 0.02130  0.60300  0.52220  Biso   1.000  C
  C124     1.0000 0.47870  0.39700  0.02220  Biso   1.000  C
  H133     1.0000 0.57850  0.91030  0.48440  Biso   1.000  H
  H134     1.0000 0.92150  0.08970  0.98440  Biso   1.000  H
  H135     1.0000 0.07850  0.58970  0.51560  Biso   1.000  H
  H136     1.0000 0.42150  0.41030  0.01560  Biso   1.000  H
  C125     1.0000 0.99760  0.09100  0.44990  Biso   1.000  C
  C126     1.0000 0.50240  0.90900  0.94990  Biso   1.000  C
  C127     1.0000 0.49760  0.40900  0.55010  Biso   1.000  C
  C128     1.0000 0.00240  0.59100  0.05010  Biso   1.000  C
  H137     1.0000 0.93850  0.08160  0.44560  Biso   1.000  H
  H138     1.0000 0.56150  0.91840  0.94560  Biso   1.000  H
  H139     1.0000 0.43850  0.41840  0.55440  Biso   1.000  H
  H140     1.0000 0.06150  0.58160  0.05440  Biso   1.000  H
  C129     1.0000 0.05220  0.06320  0.41830  Biso   1.000  C
  C130     1.0000 0.44780  0.93680  0.91830  Biso   1.000  C
  C131     1.0000 0.55220  0.43680  0.58170  Biso   1.000  C
  C132     1.0000 0.94780  0.56320  0.08170  Biso   1.000  C
  H141     1.0000 0.03100  0.03620  0.39160  Biso   1.000  H
  H142     1.0000 0.46900  0.96380  0.89160  Biso   1.000  H
  H143     1.0000 0.53100  0.46380  0.60840  Biso   1.000  H
  H144     1.0000 0.96900  0.53620  0.10840  Biso   1.000  H
  C133     1.0000 0.14280  0.07230  0.42300  Biso   1.000  C
  C134     1.0000 0.35720  0.92770  0.92300  Biso   1.000  C
  C135     1.0000 0.64280  0.42770  0.57700  Biso   1.000  C
  C136     1.0000 0.85720  0.57230  0.07700  Biso   1.000  C
  C137     1.0000 0.16580  0.11480  0.46180  Biso   1.000  C
  C138     1.0000 0.33420  0.88520  0.96180  Biso   1.000  C
  C139     1.0000 0.66580  0.38520  0.53820  Biso   1.000  C
  C140     1.0000 0.83420  0.61480  0.03820  Biso   1.000  C
  H145     1.0000 0.22440  0.12510  0.46670  Biso   1.000  H
  H146     1.0000 0.27560  0.87490  0.96670  Biso   1.000  H
  H147     1.0000 0.72440  0.37490  0.53330  Biso   1.000  H
  H148     1.0000 0.77560  0.62510  0.03330  Biso   1.000  H
  C141     1.0000 0.10330  0.14320  0.49420  Biso   1.000  C
  C142     1.0000 0.39670  0.85680  0.99420  Biso   1.000  C
  C143     1.0000 0.60330  0.35680  0.50580  Biso   1.000  C
  C144     1.0000 0.89670  0.64320  0.00580  Biso   1.000  C
  H149     1.0000 0.12140  0.17110  0.52110  Biso   1.000  H
  H150     1.0000 0.37860  0.82890  0.02110  Biso   1.000  H
  H151     1.0000 0.62140  0.32890  0.47890  Biso   1.000  H
  H152     1.0000 0.87860  0.67110  0.97890  Biso   1.000  H
  C145     1.0000 0.33360  0.95150  0.39180  Biso   1.000  C
  C146     1.0000 0.16640  0.04850  0.89180  Biso   1.000  C
  C147     1.0000 0.83360  0.54850  0.60820  Biso   1.000  C
  C148     1.0000 0.66640  0.45150  0.10820  Biso   1.000  C
  H153     1.0000 0.30510  0.92070  0.36800  Biso   1.000  H
  H154     1.0000 0.19490  0.07930  0.86800  Biso   1.000  H
  H155     1.0000 0.80510  0.57930  0.63200  Biso   1.000  H
  H156     1.0000 0.69490  0.42070  0.13200  Biso   1.000  H
  H157     1.0000 0.36950  0.98160  0.37130  Biso   1.000  H
  H158     1.0000 0.13050  0.01840  0.87130  Biso   1.000  H
  H159     1.0000 0.86950  0.51840  0.62870  Biso   1.000  H
  H160     1.0000 0.63050  0.48160  0.12870  Biso   1.000  H
  C149     1.0000 0.26310  0.99210  0.42320  Biso   1.000  C
  C150     1.0000 0.23690  0.00790  0.92320  Biso   1.000  C
  C151     1.0000 0.76310  0.50790  0.57680  Biso   1.000  C
  C152     1.0000 0.73690  0.49210  0.07680  Biso   1.000  C
  H161     1.0000 0.22670  0.96110  0.44260  Biso   1.000  H
  H162     1.0000 0.27330  0.03890  0.94260  Biso   1.000  H
  H163     1.0000 0.72670  0.53890  0.55740  Biso   1.000  H
  H164     1.0000 0.77330  0.46110  0.05740  Biso   1.000  H
  H165     1.0000 0.29270  0.02020  0.44850  Biso   1.000  H
  H166     1.0000 0.20730  0.97980  0.94850  Biso   1.000  H
  H167     1.0000 0.79270  0.47980  0.55150  Biso   1.000  H
  H168     1.0000 0.70730  0.52020  0.05150  Biso   1.000  H
  C153     1.0000 0.20620  0.03430  0.39020  Biso   1.000  C
  C154     1.0000 0.29380  0.96570  0.89020  Biso   1.000  C
  C155     1.0000 0.70620  0.46570  0.60980  Biso   1.000  C
  C156     1.0000 0.79380  0.53430  0.10980  Biso   1.000  C
  H169     1.0000 0.17460  0.00660  0.36550  Biso   1.000  H
  H170     1.0000 0.32540  0.99340  0.86550  Biso   1.000  H
  H171     1.0000 0.67460  0.49340  0.63450  Biso   1.000  H
  H172     1.0000 0.82540  0.50660  0.13450  Biso   1.000  H
  H173     1.0000 0.24190  0.06520  0.37030  Biso   1.000  H
  H174     1.0000 0.25810  0.93480  0.87030  Biso   1.000  H
  H175     1.0000 0.74190  0.43480  0.62970  Biso   1.000  H
  H176     1.0000 0.75810  0.56520  0.12970  Biso   1.000  H
  C157     1.0000 0.08130  0.11990  0.67100  Biso   1.000  C
  C158     1.0000 0.41870  0.88010  0.17100  Biso   1.000  C
  C159     1.0000 0.58130  0.38010  0.32900  Biso   1.000  C
  C160     1.0000 0.91870  0.61990  0.82900  Biso   1.000  C
  C161     1.0000 0.11600  0.06310  0.70040  Biso   1.000  C
  C162     1.0000 0.38400  0.93690  0.20040  Biso   1.000  C
  C163     1.0000 0.61600  0.43690  0.29960  Biso   1.000  C
  C164     1.0000 0.88400  0.56310  0.79960  Biso   1.000  C
  H177     1.0000 0.09770  0.01940  0.69500  Biso   1.000  H
  H178     1.0000 0.40230  0.98060  0.19500  Biso   1.000  H
  H179     1.0000 0.59770  0.48060  0.30500  Biso   1.000  H
  H180     1.0000 0.90230  0.51940  0.80500  Biso   1.000  H
  C165     1.0000 0.18330  0.08230  0.73950  Biso   1.000  C
  C166     1.0000 0.31670  0.91770  0.23950  Biso   1.000  C
  C167     1.0000 0.68330  0.41770  0.26050  Biso   1.000  C
  C168     1.0000 0.81670  0.58230  0.76050  Biso   1.000  C
  H181     1.0000 0.20730  0.04910  0.76040  Biso   1.000  H
  H182     1.0000 0.29270  0.95090  0.26040  Biso   1.000  H
  H183     1.0000 0.70730  0.45090  0.23960  Biso   1.000  H
  H184     1.0000 0.79270  0.54910  0.73960  Biso   1.000  H
  C169     1.0000 0.20970  0.14130  0.74610  Biso   1.000  C
  C170     1.0000 0.29030  0.85870  0.24610  Biso   1.000  C
  C171     1.0000 0.70970  0.35870  0.25390  Biso   1.000  C
  C172     1.0000 0.79030  0.64130  0.75390  Biso   1.000  C
  C173     1.0000 0.17860  0.19240  0.71940  Biso   1.000  C
  C174     1.0000 0.32140  0.80760  0.21940  Biso   1.000  C
  C175     1.0000 0.67860  0.30760  0.28060  Biso   1.000  C
  C176     1.0000 0.82140  0.69240  0.78060  Biso   1.000  C
  H185     1.0000 0.19950  0.23500  0.72630  Biso   1.000  H
  H186     1.0000 0.30050  0.76500  0.22630  Biso   1.000  H
  H187     1.0000 0.69950  0.26500  0.27370  Biso   1.000  H
  H188     1.0000 0.80050  0.73500  0.77370  Biso   1.000  H
  C177     1.0000 0.11460  0.18330  0.68080  Biso   1.000  C
  C178     1.0000 0.38540  0.81670  0.18080  Biso   1.000  C
  C179     1.0000 0.61460  0.31670  0.31920  Biso   1.000  C
  C180     1.0000 0.88540  0.68330  0.81920  Biso   1.000  C
  H189     1.0000 0.09430  0.21950  0.66170  Biso   1.000  H
  H190     1.0000 0.40570  0.78050  0.16170  Biso   1.000  H
  H191     1.0000 0.59430  0.28050  0.33830  Biso   1.000  H
  H192     1.0000 0.90570  0.71950  0.83830  Biso   1.000  H
  C181     1.0000 0.01560  0.10430  0.62690  Biso   1.000  C
  C182     1.0000 0.48440  0.89570  0.12690  Biso   1.000  C
  C183     1.0000 0.51560  0.39570  0.37310  Biso   1.000  C
  C184     1.0000 0.98440  0.60430  0.87310  Biso   1.000  C
  C185     1.0000 0.51420  0.08060  0.80930  Biso   1.000  C
  C186     1.0000 0.98580  0.91940  0.30930  Biso   1.000  C
  C187     1.0000 0.01420  0.41940  0.19070  Biso   1.000  C
  C188     1.0000 0.48580  0.58060  0.69070  Biso   1.000  C
  C189     1.0000 0.47240  0.11230  0.84670  Biso   1.000  C
  C190     1.0000 0.02760  0.88770  0.34670  Biso   1.000  C
  C191     1.0000 0.97240  0.38770  0.15330  Biso   1.000  C
  C192     1.0000 0.52760  0.61230  0.65330  Biso   1.000  C
  H193     1.0000 0.49990  0.11810  0.87890  Biso   1.000  H
  H194     1.0000 0.00010  0.88190  0.37890  Biso   1.000  H
  H195     1.0000 0.99990  0.38190  0.12110  Biso   1.000  H
  H196     1.0000 0.50010  0.61810  0.62110  Biso   1.000  H
  C193     1.0000 0.38760  0.13800  0.83990  Biso   1.000  C
  C194     1.0000 0.11240  0.86200  0.33990  Biso   1.000  C
  C195     1.0000 0.88760  0.36200  0.16010  Biso   1.000  C
  C196     1.0000 0.61240  0.63800  0.66010  Biso   1.000  C
  H197     1.0000 0.36020  0.16210  0.86640  Biso   1.000  H
  H198     1.0000 0.13980  0.83790  0.36640  Biso   1.000  H
  H199     1.0000 0.86020  0.33790  0.13360  Biso   1.000  H
  H200     1.0000 0.63980  0.66210  0.63360  Biso   1.000  H
  C197     1.0000 0.34580  0.12590  0.79200  Biso   1.000  C
  C198     1.0000 0.15420  0.87410  0.29200  Biso   1.000  C
  C199     1.0000 0.84580  0.37410  0.20800  Biso   1.000  C
  C200     1.0000 0.65420  0.62590  0.70800  Biso   1.000  C
  C201     1.0000 0.38670  0.09210  0.75370  Biso   1.000  C
  C202     1.0000 0.11330  0.90790  0.25370  Biso   1.000  C
  C203     1.0000 0.88670  0.40790  0.24630  Biso   1.000  C
  C204     1.0000 0.61330  0.59210  0.74630  Biso   1.000  C
  H201     1.0000 0.35790  0.08330  0.72240  Biso   1.000  H
  H202     1.0000 0.14210  0.91670  0.22240  Biso   1.000  H
  H203     1.0000 0.85790  0.41670  0.27760  Biso   1.000  H
  H204     1.0000 0.64210  0.58330  0.77760  Biso   1.000  H
  C205     1.0000 0.47300  0.07030  0.76100  Biso   1.000  C
  C206     1.0000 0.02700  0.92970  0.26100  Biso   1.000  C
  C207     1.0000 0.97300  0.42970  0.23900  Biso   1.000  C
  C208     1.0000 0.52700  0.57030  0.73900  Biso   1.000  C
  H205     1.0000 0.50260  0.04900  0.73390  Biso   1.000  H
  H206     1.0000 0.99740  0.95100  0.23390  Biso   1.000  H
  H207     1.0000 0.00260  0.45100  0.26610  Biso   1.000  H
  H208     1.0000 0.49740  0.54900  0.76610  Biso   1.000  H
  C209     1.0000 0.60990  0.05800  0.81990  Biso   1.000  C
  C210     1.0000 0.89010  0.94200  0.31990  Biso   1.000  C
  C211     1.0000 0.10990  0.44200  0.18010  Biso   1.000  C
  C212     1.0000 0.39010  0.55800  0.68010  Biso   1.000  C
  C213     1.0000 0.42310  0.83790  0.67990  Biso   1.000  C
  C214     1.0000 0.07690  0.16210  0.17990  Biso   1.000  C
  C215     1.0000 0.92310  0.66210  0.32010  Biso   1.000  C
  C216     1.0000 0.57690  0.33790  0.82010  Biso   1.000  C
  C217     1.0000 0.40330  0.89230  0.71330  Biso   1.000  C
  C218     1.0000 0.09670  0.10770  0.21330  Biso   1.000  C
  C219     1.0000 0.90330  0.60770  0.28670  Biso   1.000  C
  C220     1.0000 0.59670  0.39230  0.78670  Biso   1.000  C
  H209     1.0000 0.43050  0.93330  0.70850  Biso   1.000  H
  H210     1.0000 0.06950  0.06670  0.20850  Biso   1.000  H
  H211     1.0000 0.93050  0.56670  0.29150  Biso   1.000  H
  H212     1.0000 0.56950  0.43330  0.79150  Biso   1.000  H
  C221     1.0000 0.34290  0.88330  0.75290  Biso   1.000  C
  C222     1.0000 0.15710  0.11670  0.25290  Biso   1.000  C
  C223     1.0000 0.84290  0.61670  0.24710  Biso   1.000  C
  C224     1.0000 0.65710  0.38330  0.74710  Biso   1.000  C
  H213     1.0000 0.33030  0.91850  0.77530  Biso   1.000  H
  H214     1.0000 0.16970  0.08150  0.27530  Biso   1.000  H
  H215     1.0000 0.83030  0.58150  0.22470  Biso   1.000  H
  H216     1.0000 0.66970  0.41850  0.72470  Biso   1.000  H
  C225     1.0000 0.30080  0.82300  0.75990  Biso   1.000  C
  C226     1.0000 0.19920  0.17700  0.25990  Biso   1.000  C
  C227     1.0000 0.80080  0.67700  0.24010  Biso   1.000  C
  C228     1.0000 0.69920  0.32300  0.74010  Biso   1.000  C
  C229     1.0000 0.32060  0.77320  0.72800  Biso   1.000  C
  C230     1.0000 0.17940  0.22680  0.22800  Biso   1.000  C
  C231     1.0000 0.82060  0.72680  0.27200  Biso   1.000  C
  C232     1.0000 0.67940  0.27320  0.77200  Biso   1.000  C
  H217     1.0000 0.29030  0.73340  0.73190  Biso   1.000  H
  H218     1.0000 0.20970  0.26660  0.23190  Biso   1.000  H
  H219     1.0000 0.79030  0.76660  0.26810  Biso   1.000  H
  H220     1.0000 0.70970  0.23340  0.76810  Biso   1.000  H
  C233     1.0000 0.38340  0.77660  0.68920  Biso   1.000  C
  C234     1.0000 0.11660  0.22340  0.18920  Biso   1.000  C
  C235     1.0000 0.88340  0.72340  0.31080  Biso   1.000  C
  C236     1.0000 0.61660  0.27660  0.81080  Biso   1.000  C
  H221     1.0000 0.39870  0.73910  0.66980  Biso   1.000  H
  H222     1.0000 0.10130  0.26090  0.16980  Biso   1.000  H
  H223     1.0000 0.89870  0.76090  0.33020  Biso   1.000  H
  H224     1.0000 0.60130  0.23910  0.83020  Biso   1.000  H
  C237     1.0000 0.48620  0.84560  0.63480  Biso   1.000  C
  C238     1.0000 0.01380  0.15440  0.13480  Biso   1.000  C
  C239     1.0000 0.98620  0.65440  0.36520  Biso   1.000  C
  C240     1.0000 0.51380  0.34560  0.86520  Biso   1.000  C
  C241     1.0000 0.00840  0.90790  0.81920  Biso   1.000  C
  C242     1.0000 0.49160  0.09210  0.31920  Biso   1.000  C
  C243     1.0000 0.50840  0.59210  0.18080  Biso   1.000  C
  C244     1.0000 0.99160  0.40790  0.68080  Biso   1.000  C
  C245     1.0000 0.04510  0.86750  0.85810  Biso   1.000  C
  C246     1.0000 0.45490  0.13250  0.35810  Biso   1.000  C
  C247     1.0000 0.54510  0.63250  0.14190  Biso   1.000  C
  C248     1.0000 0.95490  0.36750  0.64190  Biso   1.000  C
  H225     1.0000 0.01400  0.85900  0.88860  Biso   1.000  H
  H226     1.0000 0.48600  0.14100  0.38860  Biso   1.000  H
  H227     1.0000 0.51400  0.64100  0.11140  Biso   1.000  H
  H228     1.0000 0.98600  0.35900  0.61140  Biso   1.000  H
  C249     1.0000 0.12390  0.84140  0.85180  Biso   1.000  C
  C250     1.0000 0.37610  0.15860  0.35180  Biso   1.000  C
  C251     1.0000 0.62390  0.65860  0.14820  Biso   1.000  C
  C252     1.0000 0.87610  0.34140  0.64820  Biso   1.000  C
  H229     1.0000 0.15010  0.81890  0.87950  Biso   1.000  H
  H230     1.0000 0.34990  0.18110  0.37950  Biso   1.000  H
  H231     1.0000 0.65010  0.68110  0.12050  Biso   1.000  H
  H232     1.0000 0.84990  0.31890  0.62050  Biso   1.000  H
  C253     1.0000 0.16710  0.84710  0.80520  Biso   1.000  C
  C254     1.0000 0.33290  0.15290  0.30520  Biso   1.000  C
  C255     1.0000 0.66710  0.65290  0.19480  Biso   1.000  C
  C256     1.0000 0.83290  0.34710  0.69480  Biso   1.000  C
  C257     1.0000 0.13170  0.88810  0.76440  Biso   1.000  C
  C258     1.0000 0.36830  0.11190  0.26440  Biso   1.000  C
  C259     1.0000 0.63170  0.61190  0.23560  Biso   1.000  C
  C260     1.0000 0.86830  0.38810  0.73560  Biso   1.000  C
  H233     1.0000 0.16190  0.89390  0.73310  Biso   1.000  H
  H234     1.0000 0.33810  0.10610  0.23310  Biso   1.000  H
  H235     1.0000 0.66190  0.60610  0.26690  Biso   1.000  H
  H236     1.0000 0.83810  0.39390  0.76690  Biso   1.000  H
  C261     1.0000 0.05330  0.91830  0.77230  Biso   1.000  C
  C262     1.0000 0.44670  0.08170  0.27230  Biso   1.000  C
  C263     1.0000 0.55330  0.58170  0.22770  Biso   1.000  C
  C264     1.0000 0.94670  0.41830  0.72770  Biso   1.000  C
  H237     1.0000 0.02980  0.94580  0.74660  Biso   1.000  H
  H238     1.0000 0.47020  0.05420  0.24660  Biso   1.000  H
  H239     1.0000 0.52980  0.55420  0.25340  Biso   1.000  H
  H240     1.0000 0.97020  0.44580  0.75340  Biso   1.000  H
  C265     1.0000 0.91520  0.94100  0.82300  Biso   1.000  C
  C266     1.0000 0.58480  0.05900  0.32300  Biso   1.000  C
  C267     1.0000 0.41520  0.55900  0.17700  Biso   1.000  C
  C268     1.0000 0.08480  0.44100  0.67700  Biso   1.000  C
  C269     1.0000 0.88880  0.33940  0.46000  Biso   1.000  C
  C270     1.0000 0.61120  0.66060  0.96000  Biso   1.000  C
  C271     1.0000 0.38880  0.16060  0.54000  Biso   1.000  C
  C272     1.0000 0.11120  0.83940  0.04000  Biso   1.000  C
  C273     1.0000 0.92710  0.40150  0.46140  Biso   1.000  C
  C274     1.0000 0.57290  0.59850  0.96140  Biso   1.000  C
  C275     1.0000 0.42710  0.09850  0.53860  Biso   1.000  C
  C276     1.0000 0.07290  0.90150  0.03860  Biso   1.000  C
  H241     1.0000 0.97680  0.40780  0.48180  Biso   1.000  H
  H242     1.0000 0.52320  0.59220  0.98180  Biso   1.000  H
  H243     1.0000 0.47680  0.09220  0.51820  Biso   1.000  H
  H244     1.0000 0.02320  0.90780  0.01820  Biso   1.000  H
  C277     1.0000 0.89380  0.45540  0.43310  Biso   1.000  C
  C278     1.0000 0.60620  0.54460  0.93310  Biso   1.000  C
  C279     1.0000 0.39380  0.04460  0.56690  Biso   1.000  C
  C280     1.0000 0.10620  0.95540  0.06690  Biso   1.000  C
  H245     1.0000 0.91990  0.49720  0.43340  Biso   1.000  H
  H246     1.0000 0.58010  0.50280  0.93340  Biso   1.000  H
  H247     1.0000 0.41990  0.00280  0.56660  Biso   1.000  H
  H248     1.0000 0.08010  0.99720  0.06660  Biso   1.000  H
  C281     1.0000 0.81970  0.44200  0.40480  Biso   1.000  C
  C282     1.0000 0.68030  0.55800  0.90480  Biso   1.000  C
  C283     1.0000 0.31970  0.05800  0.59520  Biso   1.000  C
  C284     1.0000 0.18030  0.94200  0.09520  Biso   1.000  C
  C285     1.0000 0.78120  0.38450  0.40130  Biso   1.000  C
  C286     1.0000 0.71880  0.61550  0.90130  Biso   1.000  C
  C287     1.0000 0.28120  0.11550  0.59870  Biso   1.000  C
  C288     1.0000 0.21880  0.88450  0.09870  Biso   1.000  C
  H249     1.0000 0.73200  0.37870  0.38040  Biso   1.000  H
  H250     1.0000 0.76800  0.62130  0.88040  Biso   1.000  H
  H251     1.0000 0.23200  0.12130  0.61960  Biso   1.000  H
  H252     1.0000 0.26800  0.87870  0.11960  Biso   1.000  H
  C289     1.0000 0.81500  0.33420  0.42890  Biso   1.000  C
  C290     1.0000 0.68500  0.66580  0.92890  Biso   1.000  C
  C291     1.0000 0.31500  0.16580  0.57110  Biso   1.000  C
  C292     1.0000 0.18500  0.83420  0.07110  Biso   1.000  C
  H253     1.0000 0.78720  0.29310  0.42710  Biso   1.000  H
  H254     1.0000 0.71280  0.70690  0.92710  Biso   1.000  H
  H255     1.0000 0.28720  0.20690  0.57290  Biso   1.000  H
  H256     1.0000 0.21280  0.79310  0.07290  Biso   1.000  H
  C293     1.0000 0.92310  0.28460  0.48940  Biso   1.000  C
  C294     1.0000 0.57690  0.71540  0.98940  Biso   1.000  C
  C295     1.0000 0.42310  0.21540  0.51060  Biso   1.000  C
  C296     1.0000 0.07690  0.78460  0.01060  Biso   1.000  C
  C297     1.0000 0.64900  0.63880  0.46070  Biso   1.000  C
  C298     1.0000 0.85100  0.36120  0.96070  Biso   1.000  C
  C299     1.0000 0.14900  0.86120  0.53930  Biso   1.000  C
  C300     1.0000 0.35100  0.13880  0.03930  Biso   1.000  C
  C301     1.0000 0.71050  0.65750  0.42740  Biso   1.000  C
  C302     1.0000 0.78950  0.34250  0.92740  Biso   1.000  C
  C303     1.0000 0.21050  0.84250  0.57260  Biso   1.000  C
  C304     1.0000 0.28950  0.15750  0.07260  Biso   1.000  C
  H257     1.0000 0.72460  0.70240  0.42440  Biso   1.000  H
  H258     1.0000 0.77540  0.29760  0.92440  Biso   1.000  H
  H259     1.0000 0.22460  0.79760  0.57560  Biso   1.000  H
  H260     1.0000 0.27540  0.20240  0.07560  Biso   1.000  H
  C305     1.0000 0.75540  0.60990  0.39630  Biso   1.000  C
  C306     1.0000 0.74460  0.39010  0.89630  Biso   1.000  C
  C307     1.0000 0.25540  0.89010  0.60370  Biso   1.000  C
  C308     1.0000 0.24460  0.10990  0.10370  Biso   1.000  C
  H261     1.0000 0.79610  0.62260  0.37110  Biso   1.000  H
  H262     1.0000 0.70390  0.37740  0.87110  Biso   1.000  H
  H263     1.0000 0.29610  0.87740  0.62890  Biso   1.000  H
  H264     1.0000 0.20390  0.12260  0.12890  Biso   1.000  H
  C309     1.0000 0.73490  0.54270  0.40530  Biso   1.000  C
  C310     1.0000 0.76510  0.45730  0.90530  Biso   1.000  C
  C311     1.0000 0.23490  0.95730  0.59470  Biso   1.000  C
  C312     1.0000 0.26510  0.04270  0.09470  Biso   1.000  C
  C313     1.0000 0.67000  0.52600  0.43650  Biso   1.000  C
  C314     1.0000 0.83000  0.47400  0.93650  Biso   1.000  C
  C315     1.0000 0.17000  0.97400  0.56350  Biso   1.000  C
  C316     1.0000 0.33000  0.02600  0.06350  Biso   1.000  C
  H265     1.0000 0.65290  0.48170  0.43980  Biso   1.000  H
  H266     1.0000 0.84710  0.51830  0.93980  Biso   1.000  H
  H267     1.0000 0.15290  0.01830  0.56020  Biso   1.000  H
  H268     1.0000 0.34710  0.98170  0.06020  Biso   1.000  H
  C317     1.0000 0.62800  0.57510  0.46410  Biso   1.000  C
  C318     1.0000 0.87200  0.42490  0.96410  Biso   1.000  C
  C319     1.0000 0.12800  0.92490  0.53590  Biso   1.000  C
  C320     1.0000 0.37200  0.07510  0.03590  Biso   1.000  C
  H269     1.0000 0.58240  0.56300  0.48630  Biso   1.000  H
  H270     1.0000 0.91760  0.43700  0.98630  Biso   1.000  H
  H271     1.0000 0.08240  0.93700  0.51370  Biso   1.000  H
  H272     1.0000 0.41760  0.06300  0.01370  Biso   1.000  H
  C321     1.0000 0.60330  0.68960  0.49410  Biso   1.000  C
  C322     1.0000 0.89670  0.31040  0.99410  Biso   1.000  C
  C323     1.0000 0.10330  0.81040  0.50590  Biso   1.000  C
  C324     1.0000 0.39670  0.18960  0.00590  Biso   1.000  C
