data_image0
_cell_length_a       30.937
_cell_length_b       31.173
_cell_length_c       9.019
_cell_angle_alpha    90
_cell_angle_beta     90
_cell_angle_gamma    90

_symmetry_space_group_name_H-M    "P 1"
_symmetry_int_tables_number       1

loop_
  _symmetry_equiv_pos_as_xyz
  'x, y, z'

loop_
  _atom_site_label
  _atom_site_occupancy
  _atom_site_fract_x
  _atom_site_fract_y
  _atom_site_fract_z
  _atom_site_thermal_displace_type
  _atom_site_B_iso_or_equiv
  _atom_site_type_symbol
  Fe1      1.0000 0.15132  0.02298  0.69660  Biso   1.000  Fe
  Fe2      1.0000 0.84868  0.97702  0.69660  Biso   1.000  Fe
  Fe3      1.0000 0.40132  0.22702  0.94660  Biso   1.000  Fe
  Fe4      1.0000 0.09868  0.27298  0.94660  Biso   1.000  Fe
  Fe5      1.0000 0.15132  0.52298  0.19660  Biso   1.000  Fe
  Fe6      1.0000 0.84868  0.47702  0.19660  Biso   1.000  Fe
  Fe7      1.0000 0.40132  0.72702  0.44660  Biso   1.000  Fe
  Fe8      1.0000 0.09868  0.77298  0.44660  Biso   1.000  Fe
  Fe9      1.0000 0.65132  0.02298  0.19660  Biso   1.000  Fe
  Fe10     1.0000 0.34868  0.97702  0.19660  Biso   1.000  Fe
  Fe11     1.0000 0.90132  0.22702  0.44660  Biso   1.000  Fe
  Fe12     1.0000 0.59868  0.27298  0.44660  Biso   1.000  Fe
  Fe13     1.0000 0.65132  0.52298  0.69660  Biso   1.000  Fe
  Fe14     1.0000 0.34868  0.47702  0.69660  Biso   1.000  Fe
  Fe15     1.0000 0.90132  0.72702  0.94660  Biso   1.000  Fe
  Fe16     1.0000 0.59868  0.77298  0.94660  Biso   1.000  Fe
  Cu1      1.0000 0.26773  0.09940  0.41976  Biso   1.000  Cu
  Cu2      1.0000 0.73227  0.90060  0.41976  Biso   1.000  Cu
  Cu3      1.0000 0.51773  0.15060  0.66976  Biso   1.000  Cu
  Cu4      1.0000 0.98227  0.34940  0.66976  Biso   1.000  Cu
  Cu5      1.0000 0.26773  0.59940  0.91976  Biso   1.000  Cu
  Cu6      1.0000 0.73227  0.40060  0.91976  Biso   1.000  Cu
  Cu7      1.0000 0.51773  0.65060  0.16976  Biso   1.000  Cu
  Cu8      1.0000 0.98227  0.84940  0.16976  Biso   1.000  Cu
  Cu9      1.0000 0.76773  0.09940  0.91976  Biso   1.000  Cu
  Cu10     1.0000 0.23227  0.90060  0.91976  Biso   1.000  Cu
  Cu11     1.0000 0.01773  0.15060  0.16976  Biso   1.000  Cu
  Cu12     1.0000 0.48227  0.34940  0.16976  Biso   1.000  Cu
  Cu13     1.0000 0.76773  0.59940  0.41976  Biso   1.000  Cu
  Cu14     1.0000 0.23227  0.40060  0.41976  Biso   1.000  Cu
  Cu15     1.0000 0.01773  0.65060  0.66976  Biso   1.000  Cu
  Cu16     1.0000 0.48227  0.84940  0.66976  Biso   1.000  Cu
  N1       1.0000 0.15946  0.05524  0.88160  Biso   1.000  N
  N2       1.0000 0.84054  0.94476  0.88160  Biso   1.000  N
  N3       1.0000 0.40946  0.19476  0.13160  Biso   1.000  N
  N4       1.0000 0.09054  0.30524  0.13160  Biso   1.000  N
  N5       1.0000 0.15946  0.55524  0.38160  Biso   1.000  N
  N6       1.0000 0.84054  0.44476  0.38160  Biso   1.000  N
  N7       1.0000 0.40946  0.69476  0.63160  Biso   1.000  N
  N8       1.0000 0.09054  0.80524  0.63160  Biso   1.000  N
  N9       1.0000 0.65946  0.05524  0.38160  Biso   1.000  N
  N10      1.0000 0.34054  0.94476  0.38160  Biso   1.000  N
  N11      1.0000 0.90946  0.19476  0.63160  Biso   1.000  N
  N12      1.0000 0.59054  0.30524  0.63160  Biso   1.000  N
  N13      1.0000 0.65946  0.55524  0.88160  Biso   1.000  N
  N14      1.0000 0.34054  0.44476  0.88160  Biso   1.000  N
  N15      1.0000 0.90946  0.69476  0.13160  Biso   1.000  N
  N16      1.0000 0.59054  0.80524  0.13160  Biso   1.000  N
  N17      1.0000 0.11005  0.07103  0.65870  Biso   1.000  N
  N18      1.0000 0.88995  0.92897  0.65870  Biso   1.000  N
  N19      1.0000 0.36005  0.17897  0.90870  Biso   1.000  N
  N20      1.0000 0.13995  0.32103  0.90870  Biso   1.000  N
  N21      1.0000 0.11005  0.57103  0.15870  Biso   1.000  N
  N22      1.0000 0.88995  0.42897  0.15870  Biso   1.000  N
  N23      1.0000 0.36005  0.67897  0.40870  Biso   1.000  N
  N24      1.0000 0.13995  0.82103  0.40870  Biso   1.000  N
  N25      1.0000 0.61005  0.07103  0.15870  Biso   1.000  N
  N26      1.0000 0.38995  0.92897  0.15870  Biso   1.000  N
  N27      1.0000 0.86005  0.17897  0.40870  Biso   1.000  N
  N28      1.0000 0.63995  0.32103  0.40870  Biso   1.000  N
  N29      1.0000 0.61005  0.57103  0.65870  Biso   1.000  N
  N30      1.0000 0.38995  0.42897  0.65870  Biso   1.000  N
  N31      1.0000 0.86005  0.67897  0.90870  Biso   1.000  N
  N32      1.0000 0.63995  0.82103  0.90870  Biso   1.000  N
  N33      1.0000 0.10011  0.99025  0.76780  Biso   1.000  N
  N34      1.0000 0.89989  0.00975  0.76780  Biso   1.000  N
  N35      1.0000 0.35011  0.25975  0.01780  Biso   1.000  N
  N36      1.0000 0.14989  0.24025  0.01780  Biso   1.000  N
  N37      1.0000 0.10011  0.49025  0.26780  Biso   1.000  N
  N38      1.0000 0.89989  0.50975  0.26780  Biso   1.000  N
  N39      1.0000 0.35011  0.75975  0.51780  Biso   1.000  N
  N40      1.0000 0.14989  0.74025  0.51780  Biso   1.000  N
  N41      1.0000 0.60011  0.99025  0.26780  Biso   1.000  N
  N42      1.0000 0.39989  0.00975  0.26780  Biso   1.000  N
  N43      1.0000 0.85011  0.25975  0.51780  Biso   1.000  N
  N44      1.0000 0.64989  0.24025  0.51780  Biso   1.000  N
  N45      1.0000 0.60011  0.49025  0.76780  Biso   1.000  N
  N46      1.0000 0.39989  0.50975  0.76780  Biso   1.000  N
  N47      1.0000 0.85011  0.75975  0.01780  Biso   1.000  N
  N48      1.0000 0.64989  0.74025  0.01780  Biso   1.000  N
  N49      1.0000 0.13680  0.99140  0.51480  Biso   1.000  N
  N50      1.0000 0.86320  0.00860  0.51480  Biso   1.000  N
  N51      1.0000 0.38680  0.25860  0.76480  Biso   1.000  N
  N52      1.0000 0.11320  0.24140  0.76480  Biso   1.000  N
  N53      1.0000 0.13680  0.49140  0.01480  Biso   1.000  N
  N54      1.0000 0.86320  0.50860  0.01480  Biso   1.000  N
  N55      1.0000 0.38680  0.75860  0.26480  Biso   1.000  N
  N56      1.0000 0.11320  0.74140  0.26480  Biso   1.000  N
  N57      1.0000 0.63680  0.99140  0.01480  Biso   1.000  N
  N58      1.0000 0.36320  0.00860  0.01480  Biso   1.000  N
  N59      1.0000 0.88680  0.25860  0.26480  Biso   1.000  N
  N60      1.0000 0.61320  0.24140  0.26480  Biso   1.000  N
  N61      1.0000 0.63680  0.49140  0.51480  Biso   1.000  N
  N62      1.0000 0.36320  0.50860  0.51480  Biso   1.000  N
  N63      1.0000 0.88680  0.75860  0.76480  Biso   1.000  N
  N64      1.0000 0.61320  0.74140  0.76480  Biso   1.000  N
  N65      1.0000 0.22510  0.07240  0.55610  Biso   1.000  N
  N66      1.0000 0.77490  0.92760  0.55610  Biso   1.000  N
  N67      1.0000 0.47510  0.17760  0.80610  Biso   1.000  N
  N68      1.0000 0.02490  0.32240  0.80610  Biso   1.000  N
  N69      1.0000 0.22510  0.57240  0.05610  Biso   1.000  N
  N70      1.0000 0.77490  0.42760  0.05610  Biso   1.000  N
  N71      1.0000 0.47510  0.67760  0.30610  Biso   1.000  N
  N72      1.0000 0.02490  0.82240  0.30610  Biso   1.000  N
  N73      1.0000 0.72510  0.07240  0.05610  Biso   1.000  N
  N74      1.0000 0.27490  0.92760  0.05610  Biso   1.000  N
  N75      1.0000 0.97510  0.17760  0.30610  Biso   1.000  N
  N76      1.0000 0.52490  0.32240  0.30610  Biso   1.000  N
  N77      1.0000 0.72510  0.57240  0.55610  Biso   1.000  N
  N78      1.0000 0.27490  0.42760  0.55610  Biso   1.000  N
  N79      1.0000 0.97510  0.67760  0.80610  Biso   1.000  N
  N80      1.0000 0.52490  0.82240  0.80610  Biso   1.000  N
  N81      1.0000 0.20750  0.94880  0.80460  Biso   1.000  N
  N82      1.0000 0.79250  0.05120  0.80460  Biso   1.000  N
  N83      1.0000 0.45750  0.30120  0.05460  Biso   1.000  N
  N84      1.0000 0.04250  0.19880  0.05460  Biso   1.000  N
  N85      1.0000 0.20750  0.44880  0.30460  Biso   1.000  N
  N86      1.0000 0.79250  0.55120  0.30460  Biso   1.000  N
  N87      1.0000 0.45750  0.80120  0.55460  Biso   1.000  N
  N88      1.0000 0.04250  0.69880  0.55460  Biso   1.000  N
  N89      1.0000 0.70750  0.94880  0.30460  Biso   1.000  N
  N90      1.0000 0.29250  0.05120  0.30460  Biso   1.000  N
  N91      1.0000 0.95750  0.30120  0.55460  Biso   1.000  N
  N92      1.0000 0.54250  0.19880  0.55460  Biso   1.000  N
  N93      1.0000 0.70750  0.44880  0.80460  Biso   1.000  N
  N94      1.0000 0.29250  0.55120  0.80460  Biso   1.000  N
  N95      1.0000 0.95750  0.80120  0.05460  Biso   1.000  N
  N96      1.0000 0.54250  0.69880  0.05460  Biso   1.000  N
  N97      1.0000 0.29380  0.19380  0.42890  Biso   1.000  N
  N98      1.0000 0.70620  0.80620  0.42890  Biso   1.000  N
  N99      1.0000 0.54380  0.05620  0.67890  Biso   1.000  N
  N100     1.0000 0.95620  0.44380  0.67890  Biso   1.000  N
  N101     1.0000 0.29380  0.69380  0.92890  Biso   1.000  N
  N102     1.0000 0.70620  0.30620  0.92890  Biso   1.000  N
  N103     1.0000 0.54380  0.55620  0.17890  Biso   1.000  N
  N104     1.0000 0.95620  0.94380  0.17890  Biso   1.000  N
  N105     1.0000 0.79380  0.19380  0.92890  Biso   1.000  N
  N106     1.0000 0.20620  0.80620  0.92890  Biso   1.000  N
  N107     1.0000 0.04380  0.05620  0.17890  Biso   1.000  N
  N108     1.0000 0.45620  0.44380  0.17890  Biso   1.000  N
  N109     1.0000 0.79380  0.69380  0.42890  Biso   1.000  N
  N110     1.0000 0.20620  0.30620  0.42890  Biso   1.000  N
  N111     1.0000 0.04380  0.55620  0.67890  Biso   1.000  N
  N112     1.0000 0.45620  0.94380  0.67890  Biso   1.000  N
  C1       1.0000 0.18880  0.04750  0.98680  Biso   1.000  C
  C2       1.0000 0.81120  0.95250  0.98680  Biso   1.000  C
  C3       1.0000 0.43880  0.20250  0.23680  Biso   1.000  C
  C4       1.0000 0.06120  0.29750  0.23680  Biso   1.000  C
  C5       1.0000 0.18880  0.54750  0.48680  Biso   1.000  C
  C6       1.0000 0.81120  0.45250  0.48680  Biso   1.000  C
  C7       1.0000 0.43880  0.70250  0.73680  Biso   1.000  C
  C8       1.0000 0.06120  0.79750  0.73680  Biso   1.000  C
  C9       1.0000 0.68880  0.04750  0.48680  Biso   1.000  C
  C10      1.0000 0.31120  0.95250  0.48680  Biso   1.000  C
  C11      1.0000 0.93880  0.20250  0.73680  Biso   1.000  C
  C12      1.0000 0.56120  0.29750  0.73680  Biso   1.000  C
  C13      1.0000 0.68880  0.54750  0.98680  Biso   1.000  C
  C14      1.0000 0.31120  0.45250  0.98680  Biso   1.000  C
  C15      1.0000 0.93880  0.70250  0.23680  Biso   1.000  C
  C16      1.0000 0.56120  0.79750  0.23680  Biso   1.000  C
  H1       1.0000 0.20790  0.02500  0.97200  Biso   1.000  H
  H2       1.0000 0.79210  0.97500  0.97200  Biso   1.000  H
  H3       1.0000 0.45790  0.22500  0.22200  Biso   1.000  H
  H4       1.0000 0.04210  0.27500  0.22200  Biso   1.000  H
  H5       1.0000 0.20790  0.52500  0.47200  Biso   1.000  H
  H6       1.0000 0.79210  0.47500  0.47200  Biso   1.000  H
  H7       1.0000 0.45790  0.72500  0.72200  Biso   1.000  H
  H8       1.0000 0.04210  0.77500  0.72200  Biso   1.000  H
  H9       1.0000 0.70790  0.02500  0.47200  Biso   1.000  H
  H10      1.0000 0.29210  0.97500  0.47200  Biso   1.000  H
  H11      1.0000 0.95790  0.22500  0.72200  Biso   1.000  H
  H12      1.0000 0.54210  0.27500  0.72200  Biso   1.000  H
  H13      1.0000 0.70790  0.52500  0.97200  Biso   1.000  H
  H14      1.0000 0.29210  0.47500  0.97200  Biso   1.000  H
  H15      1.0000 0.95790  0.72500  0.22200  Biso   1.000  H
  H16      1.0000 0.54210  0.77500  0.22200  Biso   1.000  H
  C17      1.0000 0.19230  0.07060  0.11470  Biso   1.000  C
  C18      1.0000 0.80770  0.92940  0.11470  Biso   1.000  C
  C19      1.0000 0.44230  0.17940  0.36470  Biso   1.000  C
  C20      1.0000 0.05770  0.32060  0.36470  Biso   1.000  C
  C21      1.0000 0.19230  0.57060  0.61470  Biso   1.000  C
  C22      1.0000 0.80770  0.42940  0.61470  Biso   1.000  C
  C23      1.0000 0.44230  0.67940  0.86470  Biso   1.000  C
  C24      1.0000 0.05770  0.82060  0.86470  Biso   1.000  C
  C25      1.0000 0.69230  0.07060  0.61470  Biso   1.000  C
  C26      1.0000 0.30770  0.92940  0.61470  Biso   1.000  C
  C27      1.0000 0.94230  0.17940  0.86470  Biso   1.000  C
  C28      1.0000 0.55770  0.32060  0.86470  Biso   1.000  C
  C29      1.0000 0.69230  0.57060  0.11470  Biso   1.000  C
  C30      1.0000 0.30770  0.42940  0.11470  Biso   1.000  C
  C31      1.0000 0.94230  0.67940  0.36470  Biso   1.000  C
  C32      1.0000 0.55770  0.82060  0.36470  Biso   1.000  C
  H17      1.0000 0.21310  0.06370  0.18530  Biso   1.000  H
  H18      1.0000 0.78690  0.93630  0.18530  Biso   1.000  H
  H19      1.0000 0.46310  0.18630  0.43530  Biso   1.000  H
  H20      1.0000 0.03690  0.31370  0.43530  Biso   1.000  H
  H21      1.0000 0.21310  0.56370  0.68530  Biso   1.000  H
  H22      1.0000 0.78690  0.43630  0.68530  Biso   1.000  H
  H23      1.0000 0.46310  0.68630  0.93530  Biso   1.000  H
  H24      1.0000 0.03690  0.81370  0.93530  Biso   1.000  H
  H25      1.0000 0.71310  0.06370  0.68530  Biso   1.000  H
  H26      1.0000 0.28690  0.93630  0.68530  Biso   1.000  H
  H27      1.0000 0.96310  0.18630  0.93530  Biso   1.000  H
  H28      1.0000 0.53690  0.31370  0.93530  Biso   1.000  H
  H29      1.0000 0.71310  0.56370  0.18530  Biso   1.000  H
  H30      1.0000 0.28690  0.43630  0.18530  Biso   1.000  H
  H31      1.0000 0.96310  0.68630  0.43530  Biso   1.000  H
  H32      1.0000 0.53690  0.81370  0.43530  Biso   1.000  H
  C33      1.0000 0.16430  0.10480  0.13700  Biso   1.000  C
  C34      1.0000 0.83570  0.89520  0.13700  Biso   1.000  C
  C35      1.0000 0.41430  0.14520  0.38700  Biso   1.000  C
  C36      1.0000 0.08570  0.35480  0.38700  Biso   1.000  C
  C37      1.0000 0.16430  0.60480  0.63700  Biso   1.000  C
  C38      1.0000 0.83570  0.39520  0.63700  Biso   1.000  C
  C39      1.0000 0.41430  0.64520  0.88700  Biso   1.000  C
  C40      1.0000 0.08570  0.85480  0.88700  Biso   1.000  C
  C41      1.0000 0.66430  0.10480  0.63700  Biso   1.000  C
  C42      1.0000 0.33570  0.89520  0.63700  Biso   1.000  C
  C43      1.0000 0.91430  0.14520  0.88700  Biso   1.000  C
  C44      1.0000 0.58570  0.35480  0.88700  Biso   1.000  C
  C45      1.0000 0.66430  0.60480  0.13700  Biso   1.000  C
  C46      1.0000 0.33570  0.39520  0.13700  Biso   1.000  C
  C47      1.0000 0.91430  0.64520  0.38700  Biso   1.000  C
  C48      1.0000 0.58570  0.85480  0.38700  Biso   1.000  C
  H33      1.0000 0.16600  0.12130  0.22280  Biso   1.000  H
  H34      1.0000 0.83400  0.87870  0.22280  Biso   1.000  H
  H35      1.0000 0.41600  0.12870  0.47280  Biso   1.000  H
  H36      1.0000 0.08400  0.37130  0.47280  Biso   1.000  H
  H37      1.0000 0.16600  0.62130  0.72280  Biso   1.000  H
  H38      1.0000 0.83400  0.37870  0.72280  Biso   1.000  H
  H39      1.0000 0.41600  0.62870  0.97280  Biso   1.000  H
  H40      1.0000 0.08400  0.87130  0.97280  Biso   1.000  H
  H41      1.0000 0.66600  0.12130  0.72280  Biso   1.000  H
  H42      1.0000 0.33400  0.87870  0.72280  Biso   1.000  H
  H43      1.0000 0.91600  0.12870  0.97280  Biso   1.000  H
  H44      1.0000 0.58400  0.37130  0.97280  Biso   1.000  H
  H45      1.0000 0.66600  0.62130  0.22280  Biso   1.000  H
  H46      1.0000 0.33400  0.37870  0.22280  Biso   1.000  H
  H47      1.0000 0.91600  0.62870  0.47280  Biso   1.000  H
  H48      1.0000 0.58400  0.87130  0.47280  Biso   1.000  H
  C49      1.0000 0.13380  0.11390  0.02870  Biso   1.000  C
  C50      1.0000 0.86620  0.88610  0.02870  Biso   1.000  C
  C51      1.0000 0.38380  0.13610  0.27870  Biso   1.000  C
  C52      1.0000 0.11620  0.36390  0.27870  Biso   1.000  C
  C53      1.0000 0.13380  0.61390  0.52870  Biso   1.000  C
  C54      1.0000 0.86620  0.38610  0.52870  Biso   1.000  C
  C55      1.0000 0.38380  0.63610  0.77870  Biso   1.000  C
  C56      1.0000 0.11620  0.86390  0.77870  Biso   1.000  C
  C57      1.0000 0.63380  0.11390  0.52870  Biso   1.000  C
  C58      1.0000 0.36620  0.88610  0.52870  Biso   1.000  C
  C59      1.0000 0.88380  0.13610  0.77870  Biso   1.000  C
  C60      1.0000 0.61620  0.36390  0.77870  Biso   1.000  C
  C61      1.0000 0.63380  0.61390  0.02870  Biso   1.000  C
  C62      1.0000 0.36620  0.38610  0.02870  Biso   1.000  C
  C63      1.0000 0.88380  0.63610  0.27870  Biso   1.000  C
  C64      1.0000 0.61620  0.86390  0.27870  Biso   1.000  C
  H49      1.0000 0.11460  0.13650  0.04050  Biso   1.000  H
  H50      1.0000 0.88540  0.86350  0.04050  Biso   1.000  H
  H51      1.0000 0.36460  0.11350  0.29050  Biso   1.000  H
  H52      1.0000 0.13540  0.38650  0.29050  Biso   1.000  H
  H53      1.0000 0.11460  0.63650  0.54050  Biso   1.000  H
  H54      1.0000 0.88540  0.36350  0.54050  Biso   1.000  H
  H55      1.0000 0.36460  0.61350  0.79050  Biso   1.000  H
  H56      1.0000 0.13540  0.88650  0.79050  Biso   1.000  H
  H57      1.0000 0.61460  0.13650  0.54050  Biso   1.000  H
  H58      1.0000 0.38540  0.86350  0.54050  Biso   1.000  H
  H59      1.0000 0.86460  0.11350  0.79050  Biso   1.000  H
  H60      1.0000 0.63540  0.38650  0.79050  Biso   1.000  H
  H61      1.0000 0.61460  0.63650  0.04050  Biso   1.000  H
  H62      1.0000 0.38540  0.36350  0.04050  Biso   1.000  H
  H63      1.0000 0.86460  0.61350  0.29050  Biso   1.000  H
  H64      1.0000 0.63540  0.88650  0.29050  Biso   1.000  H
  C65      1.0000 0.13270  0.08860  0.90290  Biso   1.000  C
  C66      1.0000 0.86730  0.91140  0.90290  Biso   1.000  C
  C67      1.0000 0.38270  0.16140  0.15290  Biso   1.000  C
  C68      1.0000 0.11730  0.33860  0.15290  Biso   1.000  C
  C69      1.0000 0.13270  0.58860  0.40290  Biso   1.000  C
  C70      1.0000 0.86730  0.41140  0.40290  Biso   1.000  C
  C71      1.0000 0.38270  0.66140  0.65290  Biso   1.000  C
  C72      1.0000 0.11730  0.83860  0.65290  Biso   1.000  C
  C73      1.0000 0.63270  0.08860  0.40290  Biso   1.000  C
  C74      1.0000 0.36730  0.91140  0.40290  Biso   1.000  C
  C75      1.0000 0.88270  0.16140  0.65290  Biso   1.000  C
  C76      1.0000 0.61730  0.33860  0.65290  Biso   1.000  C
  C77      1.0000 0.63270  0.58860  0.90290  Biso   1.000  C
  C78      1.0000 0.36730  0.41140  0.90290  Biso   1.000  C
  C79      1.0000 0.88270  0.66140  0.15290  Biso   1.000  C
  C80      1.0000 0.61730  0.83860  0.15290  Biso   1.000  C
  C81      1.0000 0.10390  0.09720  0.77840  Biso   1.000  C
  C82      1.0000 0.89610  0.90280  0.77840  Biso   1.000  C
  C83      1.0000 0.35390  0.15280  0.02840  Biso   1.000  C
  C84      1.0000 0.14610  0.34720  0.02840  Biso   1.000  C
  C85      1.0000 0.10390  0.59720  0.27840  Biso   1.000  C
  C86      1.0000 0.89610  0.40280  0.27840  Biso   1.000  C
  C87      1.0000 0.35390  0.65280  0.52840  Biso   1.000  C
  C88      1.0000 0.14610  0.84720  0.52840  Biso   1.000  C
  C89      1.0000 0.60390  0.09720  0.27840  Biso   1.000  C
  C90      1.0000 0.39610  0.90280  0.27840  Biso   1.000  C
  C91      1.0000 0.85390  0.15280  0.52840  Biso   1.000  C
  C92      1.0000 0.64610  0.34720  0.52840  Biso   1.000  C
  C93      1.0000 0.60390  0.59720  0.77840  Biso   1.000  C
  C94      1.0000 0.39610  0.40280  0.77840  Biso   1.000  C
  C95      1.0000 0.85390  0.65280  0.02840  Biso   1.000  C
  C96      1.0000 0.64610  0.84720  0.02840  Biso   1.000  C
  C97      1.0000 0.07130  0.12900  0.77610  Biso   1.000  C
  C98      1.0000 0.92870  0.87100  0.77610  Biso   1.000  C
  C99      1.0000 0.32130  0.12100  0.02610  Biso   1.000  C
  C100     1.0000 0.17870  0.37900  0.02610  Biso   1.000  C
  C101     1.0000 0.07130  0.62900  0.27610  Biso   1.000  C
  C102     1.0000 0.92870  0.37100  0.27610  Biso   1.000  C
  C103     1.0000 0.32130  0.62100  0.52610  Biso   1.000  C
  C104     1.0000 0.17870  0.87900  0.52610  Biso   1.000  C
  C105     1.0000 0.57130  0.12900  0.27610  Biso   1.000  C
  C106     1.0000 0.42870  0.87100  0.27610  Biso   1.000  C
  C107     1.0000 0.82130  0.12100  0.52610  Biso   1.000  C
  C108     1.0000 0.67870  0.37900  0.52610  Biso   1.000  C
  C109     1.0000 0.57130  0.62900  0.77610  Biso   1.000  C
  C110     1.0000 0.42870  0.37100  0.77610  Biso   1.000  C
  C111     1.0000 0.82130  0.62100  0.02610  Biso   1.000  C
  C112     1.0000 0.67870  0.87900  0.02610  Biso   1.000  C
  H65      1.0000 0.06660  0.14620  0.85900  Biso   1.000  H
  H66      1.0000 0.93340  0.85380  0.85900  Biso   1.000  H
  H67      1.0000 0.31660  0.10380  0.10900  Biso   1.000  H
  H68      1.0000 0.18340  0.39620  0.10900  Biso   1.000  H
  H69      1.0000 0.06660  0.64620  0.35900  Biso   1.000  H
  H70      1.0000 0.93340  0.35380  0.35900  Biso   1.000  H
  H71      1.0000 0.31660  0.60380  0.60900  Biso   1.000  H
  H72      1.0000 0.18340  0.89620  0.60900  Biso   1.000  H
  H73      1.0000 0.56660  0.14620  0.35900  Biso   1.000  H
  H74      1.0000 0.43340  0.85380  0.35900  Biso   1.000  H
  H75      1.0000 0.81660  0.10380  0.60900  Biso   1.000  H
  H76      1.0000 0.68340  0.39620  0.60900  Biso   1.000  H
  H77      1.0000 0.56660  0.64620  0.85900  Biso   1.000  H
  H78      1.0000 0.43340  0.35380  0.85900  Biso   1.000  H
  H79      1.0000 0.81660  0.60380  0.10900  Biso   1.000  H
  H80      1.0000 0.68340  0.89620  0.10900  Biso   1.000  H
  C113     1.0000 0.04770  0.13420  0.65660  Biso   1.000  C
  C114     1.0000 0.95230  0.86580  0.65660  Biso   1.000  C
  C115     1.0000 0.29770  0.11580  0.90660  Biso   1.000  C
  C116     1.0000 0.20230  0.38420  0.90660  Biso   1.000  C
  C117     1.0000 0.04770  0.63420  0.15660  Biso   1.000  C
  C118     1.0000 0.95230  0.36580  0.15660  Biso   1.000  C
  C119     1.0000 0.29770  0.61580  0.40660  Biso   1.000  C
  C120     1.0000 0.20230  0.88420  0.40660  Biso   1.000  C
  C121     1.0000 0.54770  0.13420  0.15660  Biso   1.000  C
  C122     1.0000 0.45230  0.86580  0.15660  Biso   1.000  C
  C123     1.0000 0.79770  0.11580  0.40660  Biso   1.000  C
  C124     1.0000 0.70230  0.38420  0.40660  Biso   1.000  C
  C125     1.0000 0.54770  0.63420  0.65660  Biso   1.000  C
  C126     1.0000 0.45230  0.36580  0.65660  Biso   1.000  C
  C127     1.0000 0.79770  0.61580  0.90660  Biso   1.000  C
  C128     1.0000 0.70230  0.88420  0.90660  Biso   1.000  C
  H81      1.0000 0.02590  0.15470  0.65590  Biso   1.000  H
  H82      1.0000 0.97410  0.84530  0.65590  Biso   1.000  H
  H83      1.0000 0.27590  0.09530  0.90590  Biso   1.000  H
  H84      1.0000 0.22410  0.40470  0.90590  Biso   1.000  H
  H85      1.0000 0.02590  0.65470  0.15590  Biso   1.000  H
  H86      1.0000 0.97410  0.34530  0.15590  Biso   1.000  H
  H87      1.0000 0.27590  0.59530  0.40590  Biso   1.000  H
  H88      1.0000 0.22410  0.90470  0.40590  Biso   1.000  H
  H89      1.0000 0.52590  0.15470  0.15590  Biso   1.000  H
  H90      1.0000 0.47410  0.84530  0.15590  Biso   1.000  H
  H91      1.0000 0.77590  0.09530  0.40590  Biso   1.000  H
  H92      1.0000 0.72410  0.40470  0.40590  Biso   1.000  H
  H93      1.0000 0.52590  0.65470  0.65590  Biso   1.000  H
  H94      1.0000 0.47410  0.34530  0.65590  Biso   1.000  H
  H95      1.0000 0.77590  0.59530  0.90590  Biso   1.000  H
  H96      1.0000 0.72410  0.90470  0.90590  Biso   1.000  H
  C129     1.0000 0.05470  0.10970  0.53240  Biso   1.000  C
  C130     1.0000 0.94530  0.89030  0.53240  Biso   1.000  C
  C131     1.0000 0.30470  0.14030  0.78240  Biso   1.000  C
  C132     1.0000 0.19530  0.35970  0.78240  Biso   1.000  C
  C133     1.0000 0.05470  0.60970  0.03240  Biso   1.000  C
  C134     1.0000 0.94530  0.39030  0.03240  Biso   1.000  C
  C135     1.0000 0.30470  0.64030  0.28240  Biso   1.000  C
  C136     1.0000 0.19530  0.85970  0.28240  Biso   1.000  C
  C137     1.0000 0.55470  0.10970  0.03240  Biso   1.000  C
  C138     1.0000 0.44530  0.89030  0.03240  Biso   1.000  C
  C139     1.0000 0.80470  0.14030  0.28240  Biso   1.000  C
  C140     1.0000 0.69530  0.35970  0.28240  Biso   1.000  C
  C141     1.0000 0.55470  0.60970  0.53240  Biso   1.000  C
  C142     1.0000 0.44530  0.39030  0.53240  Biso   1.000  C
  C143     1.0000 0.80470  0.64030  0.78240  Biso   1.000  C
  C144     1.0000 0.69530  0.85970  0.78240  Biso   1.000  C
  H97      1.0000 0.03910  0.11460  0.44610  Biso   1.000  H
  H98      1.0000 0.96090  0.88540  0.44610  Biso   1.000  H
  H99      1.0000 0.28910  0.13540  0.69610  Biso   1.000  H
  H100     1.0000 0.21090  0.36460  0.69610  Biso   1.000  H
  H101     1.0000 0.03910  0.61460  0.94610  Biso   1.000  H
  H102     1.0000 0.96090  0.38540  0.94610  Biso   1.000  H
  H103     1.0000 0.28910  0.63540  0.19610  Biso   1.000  H
  H104     1.0000 0.21090  0.86460  0.19610  Biso   1.000  H
  H105     1.0000 0.53910  0.11460  0.94610  Biso   1.000  H
  H106     1.0000 0.46090  0.88540  0.94610  Biso   1.000  H
  H107     1.0000 0.78910  0.13540  0.19610  Biso   1.000  H
  H108     1.0000 0.71090  0.36460  0.19610  Biso   1.000  H
  H109     1.0000 0.53910  0.61460  0.44610  Biso   1.000  H
  H110     1.0000 0.46090  0.38540  0.44610  Biso   1.000  H
  H111     1.0000 0.78910  0.63540  0.69610  Biso   1.000  H
  H112     1.0000 0.71090  0.86460  0.69610  Biso   1.000  H
  C145     1.0000 0.08580  0.07720  0.53800  Biso   1.000  C
  C146     1.0000 0.91420  0.92280  0.53800  Biso   1.000  C
  C147     1.0000 0.33580  0.17280  0.78800  Biso   1.000  C
  C148     1.0000 0.16420  0.32720  0.78800  Biso   1.000  C
  C149     1.0000 0.08580  0.57720  0.03800  Biso   1.000  C
  C150     1.0000 0.91420  0.42280  0.03800  Biso   1.000  C
  C151     1.0000 0.33580  0.67280  0.28800  Biso   1.000  C
  C152     1.0000 0.16420  0.82720  0.28800  Biso   1.000  C
  C153     1.0000 0.58580  0.07720  0.03800  Biso   1.000  C
  C154     1.0000 0.41420  0.92280  0.03800  Biso   1.000  C
  C155     1.0000 0.83580  0.17280  0.28800  Biso   1.000  C
  C156     1.0000 0.66420  0.32720  0.28800  Biso   1.000  C
  C157     1.0000 0.58580  0.57720  0.53800  Biso   1.000  C
  C158     1.0000 0.41420  0.42280  0.53800  Biso   1.000  C
  C159     1.0000 0.83580  0.67280  0.78800  Biso   1.000  C
  C160     1.0000 0.66420  0.82720  0.78800  Biso   1.000  C
  H113     1.0000 0.08960  0.05950  0.45610  Biso   1.000  H
  H114     1.0000 0.91040  0.94050  0.45610  Biso   1.000  H
  H115     1.0000 0.33960  0.19050  0.70610  Biso   1.000  H
  H116     1.0000 0.16040  0.30950  0.70610  Biso   1.000  H
  H117     1.0000 0.08960  0.55950  0.95610  Biso   1.000  H
  H118     1.0000 0.91040  0.44050  0.95610  Biso   1.000  H
  H119     1.0000 0.33960  0.69050  0.20610  Biso   1.000  H
  H120     1.0000 0.16040  0.80950  0.20610  Biso   1.000  H
  H121     1.0000 0.58960  0.05950  0.95610  Biso   1.000  H
  H122     1.0000 0.41040  0.94050  0.95610  Biso   1.000  H
  H123     1.0000 0.83960  0.19050  0.20610  Biso   1.000  H
  H124     1.0000 0.66040  0.30950  0.20610  Biso   1.000  H
  H125     1.0000 0.58960  0.55950  0.45610  Biso   1.000  H
  H126     1.0000 0.41040  0.44050  0.45610  Biso   1.000  H
  H127     1.0000 0.83960  0.69050  0.70610  Biso   1.000  H
  H128     1.0000 0.66040  0.80950  0.70610  Biso   1.000  H
  C161     1.0000 0.08320  0.99050  0.90500  Biso   1.000  C
  C162     1.0000 0.91680  0.00950  0.90500  Biso   1.000  C
  C163     1.0000 0.33320  0.25950  0.15500  Biso   1.000  C
  C164     1.0000 0.16680  0.24050  0.15500  Biso   1.000  C
  C165     1.0000 0.08320  0.49050  0.40500  Biso   1.000  C
  C166     1.0000 0.91680  0.50950  0.40500  Biso   1.000  C
  C167     1.0000 0.33320  0.75950  0.65500  Biso   1.000  C
  C168     1.0000 0.16680  0.74050  0.65500  Biso   1.000  C
  C169     1.0000 0.58320  0.99050  0.40500  Biso   1.000  C
  C170     1.0000 0.41680  0.00950  0.40500  Biso   1.000  C
  C171     1.0000 0.83320  0.25950  0.65500  Biso   1.000  C
  C172     1.0000 0.66680  0.24050  0.65500  Biso   1.000  C
  C173     1.0000 0.58320  0.49050  0.90500  Biso   1.000  C
  C174     1.0000 0.41680  0.50950  0.90500  Biso   1.000  C
  C175     1.0000 0.83320  0.75950  0.15500  Biso   1.000  C
  C176     1.0000 0.66680  0.74050  0.15500  Biso   1.000  C
  H129     1.0000 0.09790  0.00550  0.97840  Biso   1.000  H
  H130     1.0000 0.90210  0.99450  0.97840  Biso   1.000  H
  H131     1.0000 0.34790  0.24450  0.22840  Biso   1.000  H
  H132     1.0000 0.15210  0.25550  0.22840  Biso   1.000  H
  H133     1.0000 0.09790  0.50550  0.47840  Biso   1.000  H
  H134     1.0000 0.90210  0.49450  0.47840  Biso   1.000  H
  H135     1.0000 0.34790  0.74450  0.72840  Biso   1.000  H
  H136     1.0000 0.15210  0.75550  0.72840  Biso   1.000  H
  H137     1.0000 0.59790  0.00550  0.47840  Biso   1.000  H
  H138     1.0000 0.40210  0.99450  0.47840  Biso   1.000  H
  H139     1.0000 0.84790  0.24450  0.72840  Biso   1.000  H
  H140     1.0000 0.65210  0.25550  0.72840  Biso   1.000  H
  H141     1.0000 0.59790  0.50550  0.97840  Biso   1.000  H
  H142     1.0000 0.40210  0.49450  0.97840  Biso   1.000  H
  H143     1.0000 0.84790  0.74450  0.22840  Biso   1.000  H
  H144     1.0000 0.65210  0.75550  0.22840  Biso   1.000  H
  C177     1.0000 0.04580  0.97000  0.94400  Biso   1.000  C
  C178     1.0000 0.95420  0.03000  0.94400  Biso   1.000  C
  C179     1.0000 0.29580  0.28000  0.19400  Biso   1.000  C
  C180     1.0000 0.20420  0.22000  0.19400  Biso   1.000  C
  C181     1.0000 0.04580  0.47000  0.44400  Biso   1.000  C
  C182     1.0000 0.95420  0.53000  0.44400  Biso   1.000  C
  C183     1.0000 0.29580  0.78000  0.69400  Biso   1.000  C
  C184     1.0000 0.20420  0.72000  0.69400  Biso   1.000  C
  C185     1.0000 0.54580  0.97000  0.44400  Biso   1.000  C
  C186     1.0000 0.45420  0.03000  0.44400  Biso   1.000  C
  C187     1.0000 0.79580  0.28000  0.69400  Biso   1.000  C
  C188     1.0000 0.70420  0.22000  0.69400  Biso   1.000  C
  C189     1.0000 0.54580  0.47000  0.94400  Biso   1.000  C
  C190     1.0000 0.45420  0.53000  0.94400  Biso   1.000  C
  C191     1.0000 0.79580  0.78000  0.19400  Biso   1.000  C
  C192     1.0000 0.70420  0.72000  0.19400  Biso   1.000  C
  H145     1.0000 0.03520  0.97130  0.04030  Biso   1.000  H
  H146     1.0000 0.96480  0.02870  0.04030  Biso   1.000  H
  H147     1.0000 0.28520  0.27870  0.29030  Biso   1.000  H
  H148     1.0000 0.21480  0.22130  0.29030  Biso   1.000  H
  H149     1.0000 0.03520  0.47130  0.54030  Biso   1.000  H
  H150     1.0000 0.96480  0.52870  0.54030  Biso   1.000  H
  H151     1.0000 0.28520  0.77870  0.79030  Biso   1.000  H
  H152     1.0000 0.21480  0.72130  0.79030  Biso   1.000  H
  H153     1.0000 0.53520  0.97130  0.54030  Biso   1.000  H
  H154     1.0000 0.46480  0.02870  0.54030  Biso   1.000  H
  H155     1.0000 0.78520  0.27870  0.79030  Biso   1.000  H
  H156     1.0000 0.71480  0.22130  0.79030  Biso   1.000  H
  H157     1.0000 0.53520  0.47130  0.04030  Biso   1.000  H
  H158     1.0000 0.46480  0.52870  0.04030  Biso   1.000  H
  H159     1.0000 0.78520  0.77870  0.29030  Biso   1.000  H
  H160     1.0000 0.71480  0.72130  0.29030  Biso   1.000  H
  C193     1.0000 0.02430  0.94710  0.83390  Biso   1.000  C
  C194     1.0000 0.97570  0.05290  0.83390  Biso   1.000  C
  C195     1.0000 0.27430  0.30290  0.08390  Biso   1.000  C
  C196     1.0000 0.22570  0.19710  0.08390  Biso   1.000  C
  C197     1.0000 0.02430  0.44710  0.33390  Biso   1.000  C
  C198     1.0000 0.97570  0.55290  0.33390  Biso   1.000  C
  C199     1.0000 0.27430  0.80290  0.58390  Biso   1.000  C
  C200     1.0000 0.22570  0.69710  0.58390  Biso   1.000  C
  C201     1.0000 0.52430  0.94710  0.33390  Biso   1.000  C
  C202     1.0000 0.47570  0.05290  0.33390  Biso   1.000  C
  C203     1.0000 0.77430  0.30290  0.58390  Biso   1.000  C
  C204     1.0000 0.72570  0.19710  0.58390  Biso   1.000  C
  C205     1.0000 0.52430  0.44710  0.83390  Biso   1.000  C
  C206     1.0000 0.47570  0.55290  0.83390  Biso   1.000  C
  C207     1.0000 0.77430  0.80290  0.08390  Biso   1.000  C
  C208     1.0000 0.72570  0.69710  0.08390  Biso   1.000  C
  H161     1.0000 0.99870  0.93270  0.85550  Biso   1.000  H
  H162     1.0000 0.00130  0.06730  0.85550  Biso   1.000  H
  H163     1.0000 0.24870  0.31730  0.10550  Biso   1.000  H
  H164     1.0000 0.25130  0.18270  0.10550  Biso   1.000  H
  H165     1.0000 0.99870  0.43270  0.35550  Biso   1.000  H
  H166     1.0000 0.00130  0.56730  0.35550  Biso   1.000  H
  H167     1.0000 0.24870  0.81730  0.60550  Biso   1.000  H
  H168     1.0000 0.25130  0.68270  0.60550  Biso   1.000  H
  H169     1.0000 0.49870  0.93270  0.35550  Biso   1.000  H
  H170     1.0000 0.50130  0.06730  0.35550  Biso   1.000  H
  H171     1.0000 0.74870  0.31730  0.60550  Biso   1.000  H
  H172     1.0000 0.75130  0.18270  0.60550  Biso   1.000  H
  H173     1.0000 0.49870  0.43270  0.85550  Biso   1.000  H
  H174     1.0000 0.50130  0.56730  0.85550  Biso   1.000  H
  H175     1.0000 0.74870  0.81730  0.10550  Biso   1.000  H
  H176     1.0000 0.75130  0.68270  0.10550  Biso   1.000  H
  C209     1.0000 0.04080  0.94590  0.69700  Biso   1.000  C
  C210     1.0000 0.95920  0.05410  0.69700  Biso   1.000  C
  C211     1.0000 0.29080  0.30410  0.94700  Biso   1.000  C
  C212     1.0000 0.20920  0.19590  0.94700  Biso   1.000  C
  C213     1.0000 0.04080  0.44590  0.19700  Biso   1.000  C
  C214     1.0000 0.95920  0.55410  0.19700  Biso   1.000  C
  C215     1.0000 0.29080  0.80410  0.44700  Biso   1.000  C
  C216     1.0000 0.20920  0.69590  0.44700  Biso   1.000  C
  C217     1.0000 0.54080  0.94590  0.19700  Biso   1.000  C
  C218     1.0000 0.45920  0.05410  0.19700  Biso   1.000  C
  C219     1.0000 0.79080  0.30410  0.44700  Biso   1.000  C
  C220     1.0000 0.70920  0.19590  0.44700  Biso   1.000  C
  C221     1.0000 0.54080  0.44590  0.69700  Biso   1.000  C
  C222     1.0000 0.45920  0.55410  0.69700  Biso   1.000  C
  C223     1.0000 0.79080  0.80410  0.94700  Biso   1.000  C
  C224     1.0000 0.70920  0.69590  0.94700  Biso   1.000  C
  H177     1.0000 0.02640  0.93070  0.62300  Biso   1.000  H
  H178     1.0000 0.97360  0.06930  0.62300  Biso   1.000  H
  H179     1.0000 0.27640  0.31930  0.87300  Biso   1.000  H
  H180     1.0000 0.22360  0.18070  0.87300  Biso   1.000  H
  H181     1.0000 0.02640  0.43070  0.12300  Biso   1.000  H
  H182     1.0000 0.97360  0.56930  0.12300  Biso   1.000  H
  H183     1.0000 0.27640  0.81930  0.37300  Biso   1.000  H
  H184     1.0000 0.22360  0.68070  0.37300  Biso   1.000  H
  H185     1.0000 0.52640  0.93070  0.12300  Biso   1.000  H
  H186     1.0000 0.47360  0.06930  0.12300  Biso   1.000  H
  H187     1.0000 0.77640  0.31930  0.37300  Biso   1.000  H
  H188     1.0000 0.72360  0.18070  0.37300  Biso   1.000  H
  H189     1.0000 0.52640  0.43070  0.62300  Biso   1.000  H
  H190     1.0000 0.47360  0.56930  0.62300  Biso   1.000  H
  H191     1.0000 0.77640  0.81930  0.87300  Biso   1.000  H
  H192     1.0000 0.72360  0.68070  0.87300  Biso   1.000  H
  C225     1.0000 0.07920  0.96700  0.66410  Biso   1.000  C
  C226     1.0000 0.92080  0.03300  0.66410  Biso   1.000  C
  C227     1.0000 0.32920  0.28300  0.91410  Biso   1.000  C
  C228     1.0000 0.17080  0.21700  0.91410  Biso   1.000  C
  C229     1.0000 0.07920  0.46700  0.16410  Biso   1.000  C
  C230     1.0000 0.92080  0.53300  0.16410  Biso   1.000  C
  C231     1.0000 0.32920  0.78300  0.41410  Biso   1.000  C
  C232     1.0000 0.17080  0.71700  0.41410  Biso   1.000  C
  C233     1.0000 0.57920  0.96700  0.16410  Biso   1.000  C
  C234     1.0000 0.42080  0.03300  0.16410  Biso   1.000  C
  C235     1.0000 0.82920  0.28300  0.41410  Biso   1.000  C
  C236     1.0000 0.67080  0.21700  0.41410  Biso   1.000  C
  C237     1.0000 0.57920  0.46700  0.66410  Biso   1.000  C
  C238     1.0000 0.42080  0.53300  0.66410  Biso   1.000  C
  C239     1.0000 0.82920  0.78300  0.91410  Biso   1.000  C
  C240     1.0000 0.67080  0.71700  0.91410  Biso   1.000  C
  C241     1.0000 0.10140  0.96640  0.52060  Biso   1.000  C
  C242     1.0000 0.89860  0.03360  0.52060  Biso   1.000  C
  C243     1.0000 0.35140  0.28360  0.77060  Biso   1.000  C
  C244     1.0000 0.14860  0.21640  0.77060  Biso   1.000  C
  C245     1.0000 0.10140  0.46640  0.02060  Biso   1.000  C
  C246     1.0000 0.89860  0.53360  0.02060  Biso   1.000  C
  C247     1.0000 0.35140  0.78360  0.27060  Biso   1.000  C
  C248     1.0000 0.14860  0.71640  0.27060  Biso   1.000  C
  C249     1.0000 0.60140  0.96640  0.02060  Biso   1.000  C
  C250     1.0000 0.39860  0.03360  0.02060  Biso   1.000  C
  C251     1.0000 0.85140  0.28360  0.27060  Biso   1.000  C
  C252     1.0000 0.64860  0.21640  0.27060  Biso   1.000  C
  C253     1.0000 0.60140  0.46640  0.52060  Biso   1.000  C
  C254     1.0000 0.39860  0.53360  0.52060  Biso   1.000  C
  C255     1.0000 0.85140  0.78360  0.77060  Biso   1.000  C
  C256     1.0000 0.64860  0.71640  0.77060  Biso   1.000  C
  C257     1.0000 0.08760  0.94240  0.40040  Biso   1.000  C
  C258     1.0000 0.91240  0.05760  0.40040  Biso   1.000  C
  C259     1.0000 0.33760  0.30760  0.65040  Biso   1.000  C
  C260     1.0000 0.16240  0.19240  0.65040  Biso   1.000  C
  C261     1.0000 0.08760  0.44240  0.90040  Biso   1.000  C
  C262     1.0000 0.91240  0.55760  0.90040  Biso   1.000  C
  C263     1.0000 0.33760  0.80760  0.15040  Biso   1.000  C
  C264     1.0000 0.16240  0.69240  0.15040  Biso   1.000  C
  C265     1.0000 0.58760  0.94240  0.90040  Biso   1.000  C
  C266     1.0000 0.41240  0.05760  0.90040  Biso   1.000  C
  C267     1.0000 0.83760  0.30760  0.15040  Biso   1.000  C
  C268     1.0000 0.66240  0.19240  0.15040  Biso   1.000  C
  C269     1.0000 0.58760  0.44240  0.40040  Biso   1.000  C
  C270     1.0000 0.41240  0.55760  0.40040  Biso   1.000  C
  C271     1.0000 0.83760  0.80760  0.65040  Biso   1.000  C
  C272     1.0000 0.66240  0.69240  0.65040  Biso   1.000  C
  H193     1.0000 0.06260  0.92590  0.40570  Biso   1.000  H
  H194     1.0000 0.93740  0.07410  0.40570  Biso   1.000  H
  H195     1.0000 0.31260  0.32410  0.65570  Biso   1.000  H
  H196     1.0000 0.18740  0.17590  0.65570  Biso   1.000  H
  H197     1.0000 0.06260  0.42590  0.90570  Biso   1.000  H
  H198     1.0000 0.93740  0.57410  0.90570  Biso   1.000  H
  H199     1.0000 0.31260  0.82410  0.15570  Biso   1.000  H
  H200     1.0000 0.18740  0.67590  0.15570  Biso   1.000  H
  H201     1.0000 0.56260  0.92590  0.90570  Biso   1.000  H
  H202     1.0000 0.43740  0.07410  0.90570  Biso   1.000  H
  H203     1.0000 0.81260  0.32410  0.15570  Biso   1.000  H
  H204     1.0000 0.68740  0.17590  0.15570  Biso   1.000  H
  H205     1.0000 0.56260  0.42590  0.40570  Biso   1.000  H
  H206     1.0000 0.43740  0.57410  0.40570  Biso   1.000  H
  H207     1.0000 0.81260  0.82410  0.65570  Biso   1.000  H
  H208     1.0000 0.68740  0.67590  0.65570  Biso   1.000  H
  C273     1.0000 0.11160  0.94360  0.27470  Biso   1.000  C
  C274     1.0000 0.88840  0.05640  0.27470  Biso   1.000  C
  C275     1.0000 0.36160  0.30640  0.52470  Biso   1.000  C
  C276     1.0000 0.13840  0.19360  0.52470  Biso   1.000  C
  C277     1.0000 0.11160  0.44360  0.77470  Biso   1.000  C
  C278     1.0000 0.88840  0.55640  0.77470  Biso   1.000  C
  C279     1.0000 0.36160  0.80640  0.02470  Biso   1.000  C
  C280     1.0000 0.13840  0.69360  0.02470  Biso   1.000  C
  C281     1.0000 0.61160  0.94360  0.77470  Biso   1.000  C
  C282     1.0000 0.38840  0.05640  0.77470  Biso   1.000  C
  C283     1.0000 0.86160  0.30640  0.02470  Biso   1.000  C
  C284     1.0000 0.63840  0.19360  0.02470  Biso   1.000  C
  C285     1.0000 0.61160  0.44360  0.27470  Biso   1.000  C
  C286     1.0000 0.38840  0.55640  0.27470  Biso   1.000  C
  C287     1.0000 0.86160  0.80640  0.52470  Biso   1.000  C
  C288     1.0000 0.63840  0.69360  0.52470  Biso   1.000  C
  H209     1.0000 0.10280  0.92750  0.19320  Biso   1.000  H
  H210     1.0000 0.89720  0.07250  0.19320  Biso   1.000  H
  H211     1.0000 0.35280  0.32250  0.44320  Biso   1.000  H
  H212     1.0000 0.14720  0.17750  0.44320  Biso   1.000  H
  H213     1.0000 0.10280  0.42750  0.69320  Biso   1.000  H
  H214     1.0000 0.89720  0.57250  0.69320  Biso   1.000  H
  H215     1.0000 0.35280  0.82250  0.94320  Biso   1.000  H
  H216     1.0000 0.14720  0.67750  0.94320  Biso   1.000  H
  H217     1.0000 0.60280  0.92750  0.69320  Biso   1.000  H
  H218     1.0000 0.39720  0.07250  0.69320  Biso   1.000  H
  H219     1.0000 0.85280  0.32250  0.94320  Biso   1.000  H
  H220     1.0000 0.64720  0.17750  0.94320  Biso   1.000  H
  H221     1.0000 0.60280  0.42750  0.19320  Biso   1.000  H
  H222     1.0000 0.39720  0.57250  0.19320  Biso   1.000  H
  H223     1.0000 0.85280  0.82250  0.44320  Biso   1.000  H
  H224     1.0000 0.64720  0.67750  0.44320  Biso   1.000  H
  C289     1.0000 0.14830  0.96790  0.26450  Biso   1.000  C
  C290     1.0000 0.85170  0.03210  0.26450  Biso   1.000  C
  C291     1.0000 0.39830  0.28210  0.51450  Biso   1.000  C
  C292     1.0000 0.10170  0.21790  0.51450  Biso   1.000  C
  C293     1.0000 0.14830  0.46790  0.76450  Biso   1.000  C
  C294     1.0000 0.85170  0.53210  0.76450  Biso   1.000  C
  C295     1.0000 0.39830  0.78210  0.01450  Biso   1.000  C
  C296     1.0000 0.10170  0.71790  0.01450  Biso   1.000  C
  C297     1.0000 0.64830  0.96790  0.76450  Biso   1.000  C
  C298     1.0000 0.35170  0.03210  0.76450  Biso   1.000  C
  C299     1.0000 0.89830  0.28210  0.01450  Biso   1.000  C
  C300     1.0000 0.60170  0.21790  0.01450  Biso   1.000  C
  C301     1.0000 0.64830  0.46790  0.26450  Biso   1.000  C
  C302     1.0000 0.35170  0.53210  0.26450  Biso   1.000  C
  C303     1.0000 0.89830  0.78210  0.51450  Biso   1.000  C
  C304     1.0000 0.60170  0.71790  0.51450  Biso   1.000  C
  H225     1.0000 0.16450  0.96900  0.17770  Biso   1.000  H
  H226     1.0000 0.83550  0.03100  0.17770  Biso   1.000  H
  H227     1.0000 0.41450  0.28100  0.42770  Biso   1.000  H
  H228     1.0000 0.08550  0.21900  0.42770  Biso   1.000  H
  H229     1.0000 0.16450  0.46900  0.67770  Biso   1.000  H
  H230     1.0000 0.83550  0.53100  0.67770  Biso   1.000  H
  H231     1.0000 0.41450  0.78100  0.92770  Biso   1.000  H
  H232     1.0000 0.08550  0.71900  0.92770  Biso   1.000  H
  H233     1.0000 0.66450  0.96900  0.67770  Biso   1.000  H
  H234     1.0000 0.33550  0.03100  0.67770  Biso   1.000  H
  H235     1.0000 0.91450  0.28100  0.92770  Biso   1.000  H
  H236     1.0000 0.58550  0.21900  0.92770  Biso   1.000  H
  H237     1.0000 0.66450  0.46900  0.17770  Biso   1.000  H
  H238     1.0000 0.33550  0.53100  0.17770  Biso   1.000  H
  H239     1.0000 0.91450  0.78100  0.42770  Biso   1.000  H
  H240     1.0000 0.58550  0.71900  0.42770  Biso   1.000  H
  C305     1.0000 0.16020  0.99110  0.39110  Biso   1.000  C
  C306     1.0000 0.83980  0.00890  0.39110  Biso   1.000  C
  C307     1.0000 0.41020  0.25890  0.64110  Biso   1.000  C
  C308     1.0000 0.08980  0.24110  0.64110  Biso   1.000  C
  C309     1.0000 0.16020  0.49110  0.89110  Biso   1.000  C
  C310     1.0000 0.83980  0.50890  0.89110  Biso   1.000  C
  C311     1.0000 0.41020  0.75890  0.14110  Biso   1.000  C
  C312     1.0000 0.08980  0.74110  0.14110  Biso   1.000  C
  C313     1.0000 0.66020  0.99110  0.89110  Biso   1.000  C
  C314     1.0000 0.33980  0.00890  0.89110  Biso   1.000  C
  C315     1.0000 0.91020  0.25890  0.14110  Biso   1.000  C
  C316     1.0000 0.58980  0.24110  0.14110  Biso   1.000  C
  C317     1.0000 0.66020  0.49110  0.39110  Biso   1.000  C
  C318     1.0000 0.33980  0.50890  0.39110  Biso   1.000  C
  C319     1.0000 0.91020  0.75890  0.64110  Biso   1.000  C
  C320     1.0000 0.58980  0.74110  0.64110  Biso   1.000  C
  H241     1.0000 0.18570  0.00690  0.38860  Biso   1.000  H
  H242     1.0000 0.81430  0.99310  0.38860  Biso   1.000  H
  H243     1.0000 0.43570  0.24310  0.63860  Biso   1.000  H
  H244     1.0000 0.06430  0.25690  0.63860  Biso   1.000  H
  H245     1.0000 0.18570  0.50690  0.88860  Biso   1.000  H
  H246     1.0000 0.81430  0.49310  0.88860  Biso   1.000  H
  H247     1.0000 0.43570  0.74310  0.13860  Biso   1.000  H
  H248     1.0000 0.06430  0.75690  0.13860  Biso   1.000  H
  H249     1.0000 0.68570  0.00690  0.88860  Biso   1.000  H
  H250     1.0000 0.31430  0.99310  0.88860  Biso   1.000  H
  H251     1.0000 0.93570  0.24310  0.13860  Biso   1.000  H
  H252     1.0000 0.56430  0.25690  0.13860  Biso   1.000  H
  H253     1.0000 0.68570  0.50690  0.38860  Biso   1.000  H
  H254     1.0000 0.31430  0.49310  0.38860  Biso   1.000  H
  H255     1.0000 0.93570  0.74310  0.63860  Biso   1.000  H
  H256     1.0000 0.56430  0.75690  0.63860  Biso   1.000  H
  C321     1.0000 0.19750  0.05350  0.61180  Biso   1.000  C
  C322     1.0000 0.80250  0.94650  0.61180  Biso   1.000  C
  C323     1.0000 0.44750  0.19650  0.86180  Biso   1.000  C
  C324     1.0000 0.05250  0.30350  0.86180  Biso   1.000  C
  C325     1.0000 0.19750  0.55350  0.11180  Biso   1.000  C
  C326     1.0000 0.80250  0.44650  0.11180  Biso   1.000  C
  C327     1.0000 0.44750  0.69650  0.36180  Biso   1.000  C
  C328     1.0000 0.05250  0.80350  0.36180  Biso   1.000  C
  C329     1.0000 0.69750  0.05350  0.11180  Biso   1.000  C
  C330     1.0000 0.30250  0.94650  0.11180  Biso   1.000  C
  C331     1.0000 0.94750  0.19650  0.36180  Biso   1.000  C
  C332     1.0000 0.55250  0.30350  0.36180  Biso   1.000  C
  C333     1.0000 0.69750  0.55350  0.61180  Biso   1.000  C
  C334     1.0000 0.30250  0.44650  0.61180  Biso   1.000  C
  C335     1.0000 0.94750  0.69650  0.86180  Biso   1.000  C
  C336     1.0000 0.55250  0.80350  0.86180  Biso   1.000  C
  C337     1.0000 0.18740  0.97740  0.75800  Biso   1.000  C
  C338     1.0000 0.81260  0.02260  0.75800  Biso   1.000  C
  C339     1.0000 0.43740  0.27260  0.00800  Biso   1.000  C
  C340     1.0000 0.06260  0.22740  0.00800  Biso   1.000  C
  C341     1.0000 0.18740  0.47740  0.25800  Biso   1.000  C
  C342     1.0000 0.81260  0.52260  0.25800  Biso   1.000  C
  C343     1.0000 0.43740  0.77260  0.50800  Biso   1.000  C
  C344     1.0000 0.06260  0.72740  0.50800  Biso   1.000  C
  C345     1.0000 0.68740  0.97740  0.25800  Biso   1.000  C
  C346     1.0000 0.31260  0.02260  0.25800  Biso   1.000  C
  C347     1.0000 0.93740  0.27260  0.50800  Biso   1.000  C
  C348     1.0000 0.56260  0.22740  0.50800  Biso   1.000  C
  C349     1.0000 0.68740  0.47740  0.75800  Biso   1.000  C
  C350     1.0000 0.31260  0.52260  0.75800  Biso   1.000  C
  C351     1.0000 0.93740  0.77260  0.00800  Biso   1.000  C
  C352     1.0000 0.56260  0.72740  0.00800  Biso   1.000  C
  C353     1.0000 0.28210  0.15660  0.41480  Biso   1.000  C
  C354     1.0000 0.71790  0.84340  0.41480  Biso   1.000  C
  C355     1.0000 0.53210  0.09340  0.66480  Biso   1.000  C
  C356     1.0000 0.96790  0.40660  0.66480  Biso   1.000  C
  C357     1.0000 0.28210  0.65660  0.91480  Biso   1.000  C
  C358     1.0000 0.71790  0.34340  0.91480  Biso   1.000  C
  C359     1.0000 0.53210  0.59340  0.16480  Biso   1.000  C
  C360     1.0000 0.96790  0.90660  0.16480  Biso   1.000  C
  C361     1.0000 0.78210  0.15660  0.91480  Biso   1.000  C
  C362     1.0000 0.21790  0.84340  0.91480  Biso   1.000  C
  C363     1.0000 0.03210  0.09340  0.16480  Biso   1.000  C
  C364     1.0000 0.46790  0.40660  0.16480  Biso   1.000  C
  C365     1.0000 0.78210  0.65660  0.41480  Biso   1.000  C
  C366     1.0000 0.21790  0.34340  0.41480  Biso   1.000  C
  C367     1.0000 0.03210  0.59340  0.66480  Biso   1.000  C
  C368     1.0000 0.46790  0.90660  0.66480  Biso   1.000  C
  O1       1.0000 0.25000  0.25000  0.63320  Biso   1.000  O
  O2       1.0000 0.75000  0.75000  0.63320  Biso   1.000  O
  O3       1.0000 0.50000  0.00000  0.88320  Biso   1.000  O
  O4       1.0000 0.00000  0.50000  0.88320  Biso   1.000  O
  O5       1.0000 0.25000  0.75000  0.13320  Biso   1.000  O
  O6       1.0000 0.75000  0.25000  0.13320  Biso   1.000  O
  O7       1.0000 0.50000  0.50000  0.38320  Biso   1.000  O
  O8       1.0000 0.00000  0.00000  0.38320  Biso   1.000  O
  H257     1.0000 0.26800  0.22100  0.53500  Biso   1.000  H
  H258     1.0000 0.73200  0.77900  0.53500  Biso   1.000  H
  H259     1.0000 0.51800  0.02900  0.78500  Biso   1.000  H
  H260     1.0000 0.98200  0.47100  0.78500  Biso   1.000  H
  H261     1.0000 0.26800  0.72100  0.03500  Biso   1.000  H
  H262     1.0000 0.73200  0.27900  0.03500  Biso   1.000  H
  H263     1.0000 0.51800  0.52900  0.28500  Biso   1.000  H
  H264     1.0000 0.98200  0.97100  0.28500  Biso   1.000  H
  H265     1.0000 0.76800  0.22100  0.03500  Biso   1.000  H
  H266     1.0000 0.23200  0.77900  0.03500  Biso   1.000  H
  H267     1.0000 0.01800  0.02900  0.28500  Biso   1.000  H
  H268     1.0000 0.48200  0.47100  0.28500  Biso   1.000  H
  H269     1.0000 0.76800  0.72100  0.53500  Biso   1.000  H
  H270     1.0000 0.23200  0.27900  0.53500  Biso   1.000  H
  H271     1.0000 0.01800  0.52900  0.78500  Biso   1.000  H
  H272     1.0000 0.48200  0.97100  0.78500  Biso   1.000  H
