data_image0
_cell_length_a       28.355
_cell_length_b       31.262
_cell_length_c       15.115
_cell_angle_alpha    90
_cell_angle_beta     103.9
_cell_angle_gamma    90

_symmetry_space_group_name_H-M    "P 1"
_symmetry_int_tables_number       1

loop_
  _symmetry_equiv_pos_as_xyz
  'x, y, z'

loop_
  _atom_site_label
  _atom_site_occupancy
  _atom_site_fract_x
  _atom_site_fract_y
  _atom_site_fract_z
  _atom_site_thermal_displace_type
  _atom_site_B_iso_or_equiv
  _atom_site_type_symbol
  N1       1.0000 0.16560  0.13010  0.06440  Biso   1.000  N
  N2       1.0000 0.33440  0.63010  0.93560  Biso   1.000  N
  N3       1.0000 0.83440  0.86990  0.93560  Biso   1.000  N
  N4       1.0000 0.66560  0.36990  0.06440  Biso   1.000  N
  C1       1.0000 0.12620  0.12410  0.99030  Biso   1.000  C
  C2       1.0000 0.37380  0.62410  0.00970  Biso   1.000  C
  C3       1.0000 0.87380  0.87590  0.00970  Biso   1.000  C
  C4       1.0000 0.62620  0.37590  0.99030  Biso   1.000  C
  C5       1.0000 0.09920  0.16000  0.95000  Biso   1.000  C
  C6       1.0000 0.40080  0.66000  0.05000  Biso   1.000  C
  C7       1.0000 0.90080  0.84000  0.05000  Biso   1.000  C
  C8       1.0000 0.59920  0.34000  0.95000  Biso   1.000  C
  C9       1.0000 0.10990  0.19750  0.97530  Biso   1.000  C
  C10      1.0000 0.39010  0.69750  0.02470  Biso   1.000  C
  C11      1.0000 0.89010  0.80250  0.02470  Biso   1.000  C
  C12      1.0000 0.60990  0.30250  0.97530  Biso   1.000  C
  C13      1.0000 0.16320  0.24690  0.09310  Biso   1.000  C
  C14      1.0000 0.33680  0.74690  0.90690  Biso   1.000  C
  C15      1.0000 0.83680  0.75310  0.90690  Biso   1.000  C
  C16      1.0000 0.66320  0.25310  0.09310  Biso   1.000  C
  C17      1.0000 0.20180  0.25230  0.15990  Biso   1.000  C
  C18      1.0000 0.29820  0.75230  0.84010  Biso   1.000  C
  C19      1.0000 0.79820  0.74770  0.84010  Biso   1.000  C
  C20      1.0000 0.70180  0.24770  0.15990  Biso   1.000  C
  C21      1.0000 0.27220  0.21800  0.28080  Biso   1.000  C
  C22      1.0000 0.22780  0.71800  0.71920  Biso   1.000  C
  C23      1.0000 0.72780  0.78200  0.71920  Biso   1.000  C
  C24      1.0000 0.77220  0.28200  0.28080  Biso   1.000  C
  C25      1.0000 0.29380  0.18080  0.32270  Biso   1.000  C
  C26      1.0000 0.20620  0.68080  0.67730  Biso   1.000  C
  C27      1.0000 0.70620  0.81920  0.67730  Biso   1.000  C
  C28      1.0000 0.79380  0.31920  0.32270  Biso   1.000  C
  C29      1.0000 0.27290  0.14090  0.28980  Biso   1.000  C
  C30      1.0000 0.22710  0.64090  0.71020  Biso   1.000  C
  C31      1.0000 0.72710  0.85910  0.71020  Biso   1.000  C
  C32      1.0000 0.77290  0.35910  0.28980  Biso   1.000  C
  N5       1.0000 0.23390  0.13800  0.21610  Biso   1.000  N
  N6       1.0000 0.26610  0.63800  0.78390  Biso   1.000  N
  N7       1.0000 0.76610  0.86200  0.78390  Biso   1.000  N
  N8       1.0000 0.73390  0.36200  0.21610  Biso   1.000  N
  C33      1.0000 0.21360  0.17330  0.17150  Biso   1.000  C
  C34      1.0000 0.28640  0.67330  0.82850  Biso   1.000  C
  C35      1.0000 0.78640  0.82670  0.82850  Biso   1.000  C
  C36      1.0000 0.71360  0.32670  0.17150  Biso   1.000  C
  C37      1.0000 0.17570  0.17030  0.09330  Biso   1.000  C
  C38      1.0000 0.32430  0.67030  0.90670  Biso   1.000  C
  C39      1.0000 0.82430  0.82970  0.90670  Biso   1.000  C
  C40      1.0000 0.67570  0.32970  0.09330  Biso   1.000  C
  C41      1.0000 0.14800  0.20580  0.05310  Biso   1.000  C
  C42      1.0000 0.35200  0.70580  0.94690  Biso   1.000  C
  C43      1.0000 0.85200  0.79420  0.94690  Biso   1.000  C
  C44      1.0000 0.64800  0.29420  0.05310  Biso   1.000  C
  C45      1.0000 0.23090  0.21560  0.20580  Biso   1.000  C
  C46      1.0000 0.26910  0.71560  0.79420  Biso   1.000  C
  C47      1.0000 0.76910  0.78440  0.79420  Biso   1.000  C
  C48      1.0000 0.73090  0.28440  0.20580  Biso   1.000  C
  C49      1.0000 0.11830  0.08090  0.95420  Biso   1.000  C
  C50      1.0000 0.38170  0.58090  0.04580  Biso   1.000  C
  C51      1.0000 0.88170  0.91910  0.04580  Biso   1.000  C
  C52      1.0000 0.61830  0.41910  0.95420  Biso   1.000  C
  C53      1.0000 0.15820  0.05440  0.95320  Biso   1.000  C
  C54      1.0000 0.34180  0.55440  0.04680  Biso   1.000  C
  C55      1.0000 0.84180  0.94560  0.04680  Biso   1.000  C
  C56      1.0000 0.65820  0.44560  0.95320  Biso   1.000  C
  C57      1.0000 0.14980  0.00890  0.93390  Biso   1.000  C
  C58      1.0000 0.35020  0.50890  0.06610  Biso   1.000  C
  C59      1.0000 0.85020  0.99110  0.06610  Biso   1.000  C
  C60      1.0000 0.64980  0.49110  0.93390  Biso   1.000  C
  C61      1.0000 0.10150  0.99080  0.92040  Biso   1.000  C
  C62      1.0000 0.39850  0.49080  0.07960  Biso   1.000  C
  C63      1.0000 0.89850  0.00920  0.07960  Biso   1.000  C
  C64      1.0000 0.60150  0.50920  0.92040  Biso   1.000  C
  C65      1.0000 0.06600  0.01810  0.91340  Biso   1.000  C
  C66      1.0000 0.43400  0.51810  0.08660  Biso   1.000  C
  C67      1.0000 0.93400  0.98190  0.08660  Biso   1.000  C
  C68      1.0000 0.56600  0.48190  0.91340  Biso   1.000  C
  C69      1.0000 0.07090  0.06130  0.92910  Biso   1.000  C
  C70      1.0000 0.42910  0.56130  0.07090  Biso   1.000  C
  C71      1.0000 0.92910  0.93870  0.07090  Biso   1.000  C
  C72      1.0000 0.57090  0.43870  0.92910  Biso   1.000  C
  O1       1.0000 0.09430  0.94950  0.91540  Biso   1.000  O
  O2       1.0000 0.40570  0.44950  0.08460  Biso   1.000  O
  O3       1.0000 0.90570  0.05050  0.08460  Biso   1.000  O
  O4       1.0000 0.59430  0.55050  0.91540  Biso   1.000  O
  C73      1.0000 0.13590  0.92310  0.93440  Biso   1.000  C
  C74      1.0000 0.36410  0.42310  0.06560  Biso   1.000  C
  C75      1.0000 0.86410  0.07690  0.06560  Biso   1.000  C
  C76      1.0000 0.63590  0.57690  0.93440  Biso   1.000  C
  C77      1.0000 0.12050  0.87760  0.95910  Biso   1.000  C
  C78      1.0000 0.37950  0.37760  0.04090  Biso   1.000  C
  C79      1.0000 0.87950  0.12240  0.04090  Biso   1.000  C
  C80      1.0000 0.62050  0.62240  0.95910  Biso   1.000  C
  O5       1.0000 0.16060  0.85110  0.97850  Biso   1.000  O
  O6       1.0000 0.33940  0.35110  0.02150  Biso   1.000  O
  O7       1.0000 0.83940  0.14890  0.02150  Biso   1.000  O
  O8       1.0000 0.66060  0.64890  0.97850  Biso   1.000  O
  C81      1.0000 0.15770  0.81460  0.02740  Biso   1.000  C
  C82      1.0000 0.34230  0.31460  0.97260  Biso   1.000  C
  C83      1.0000 0.84230  0.18540  0.97260  Biso   1.000  C
  C84      1.0000 0.65770  0.68540  0.02740  Biso   1.000  C
  C85      1.0000 0.19740  0.78690  0.03550  Biso   1.000  C
  C86      1.0000 0.30260  0.28690  0.96450  Biso   1.000  C
  C87      1.0000 0.80260  0.21310  0.96450  Biso   1.000  C
  C88      1.0000 0.69740  0.71310  0.03550  Biso   1.000  C
  O9       1.0000 0.23480  0.80830  0.10160  Biso   1.000  O
  O10      1.0000 0.26520  0.30830  0.89840  Biso   1.000  O
  O11      1.0000 0.76520  0.19170  0.89840  Biso   1.000  O
  O12      1.0000 0.73480  0.69170  0.10160  Biso   1.000  O
  C89      1.0000 0.26420  0.77170  0.13530  Biso   1.000  C
  C90      1.0000 0.23580  0.27170  0.86470  Biso   1.000  C
  C91      1.0000 0.73580  0.22830  0.86470  Biso   1.000  C
  C92      1.0000 0.76420  0.72830  0.13530  Biso   1.000  C
  C93      1.0000 0.30370  0.78080  0.21410  Biso   1.000  C
  C94      1.0000 0.19630  0.28080  0.78590  Biso   1.000  C
  C95      1.0000 0.69630  0.21920  0.78590  Biso   1.000  C
  C96      1.0000 0.80370  0.71920  0.21410  Biso   1.000  C
  O13      1.0000 0.32820  0.82080  0.21080  Biso   1.000  O
  O14      1.0000 0.17180  0.32080  0.78920  Biso   1.000  O
  O15      1.0000 0.67180  0.17920  0.78920  Biso   1.000  O
  O16      1.0000 0.82820  0.67920  0.21080  Biso   1.000  O
  C97      1.0000 0.36290  0.83250  0.29400  Biso   1.000  C
  C98      1.0000 0.13710  0.33250  0.70600  Biso   1.000  C
  C99      1.0000 0.63710  0.16750  0.70600  Biso   1.000  C
  C100     1.0000 0.86290  0.66750  0.29400  Biso   1.000  C
  C101     1.0000 0.37910  0.85310  0.36120  Biso   1.000  C
  C102     1.0000 0.12090  0.35310  0.63880  Biso   1.000  C
  C103     1.0000 0.62090  0.14690  0.63880  Biso   1.000  C
  C104     1.0000 0.87910  0.64690  0.36120  Biso   1.000  C
  O17      1.0000 0.35540  0.89350  0.36460  Biso   1.000  O
  O18      1.0000 0.14460  0.39350  0.63540  Biso   1.000  O
  O19      1.0000 0.64460  0.10650  0.63540  Biso   1.000  O
  O20      1.0000 0.85540  0.60650  0.36460  Biso   1.000  O
  C105     1.0000 0.34880  0.91080  0.43320  Biso   1.000  C
  C106     1.0000 0.15120  0.41080  0.56680  Biso   1.000  C
  C107     1.0000 0.65120  0.08920  0.56680  Biso   1.000  C
  C108     1.0000 0.84880  0.58920  0.43320  Biso   1.000  C
  C109     1.0000 0.31950  0.94780  0.42190  Biso   1.000  C
  C110     1.0000 0.18050  0.44780  0.57810  Biso   1.000  C
  C111     1.0000 0.68050  0.05220  0.57810  Biso   1.000  C
  C112     1.0000 0.81950  0.55220  0.42190  Biso   1.000  C
  O21      1.0000 0.35050  0.98170  0.42070  Biso   1.000  O
  O22      1.0000 0.14950  0.48170  0.57930  Biso   1.000  O
  O23      1.0000 0.64950  0.01830  0.57930  Biso   1.000  O
  O24      1.0000 0.85050  0.51830  0.42070  Biso   1.000  O
  C113     1.0000 0.33330  0.01920  0.39810  Biso   1.000  C
  C114     1.0000 0.16670  0.51920  0.60190  Biso   1.000  C
  C115     1.0000 0.66670  0.98080  0.60190  Biso   1.000  C
  C116     1.0000 0.83330  0.48080  0.39810  Biso   1.000  C
  C117     1.0000 0.27750  0.02860  0.37530  Biso   1.000  C
  C118     1.0000 0.22250  0.52860  0.62470  Biso   1.000  C
  C119     1.0000 0.72250  0.97140  0.62470  Biso   1.000  C
  C120     1.0000 0.77750  0.47140  0.37530  Biso   1.000  C
  C121     1.0000 0.26330  0.06690  0.34480  Biso   1.000  C
  C122     1.0000 0.23670  0.56690  0.65520  Biso   1.000  C
  C123     1.0000 0.73670  0.93310  0.65520  Biso   1.000  C
  C124     1.0000 0.76330  0.43310  0.34480  Biso   1.000  C
  C125     1.0000 0.29290  0.10190  0.33320  Biso   1.000  C
  C126     1.0000 0.20710  0.60190  0.66680  Biso   1.000  C
  C127     1.0000 0.70710  0.89810  0.66680  Biso   1.000  C
  C128     1.0000 0.79290  0.39810  0.33320  Biso   1.000  C
  C129     1.0000 0.34230  0.09430  0.35610  Biso   1.000  C
  C130     1.0000 0.15770  0.59430  0.64390  Biso   1.000  C
  C131     1.0000 0.65770  0.90570  0.64390  Biso   1.000  C
  C132     1.0000 0.84230  0.40570  0.35610  Biso   1.000  C
  C133     1.0000 0.35980  0.05280  0.39070  Biso   1.000  C
  C134     1.0000 0.14020  0.55280  0.60930  Biso   1.000  C
  C135     1.0000 0.64020  0.94720  0.60930  Biso   1.000  C
  C136     1.0000 0.85980  0.44720  0.39070  Biso   1.000  C
  N9       1.0000 0.32190  0.13420  0.80410  Biso   1.000  N
  N10      1.0000 0.17810  0.63420  0.19590  Biso   1.000  N
  N11      1.0000 0.67810  0.86580  0.19590  Biso   1.000  N
  N12      1.0000 0.82190  0.36580  0.80410  Biso   1.000  N
  C137     1.0000 0.35590  0.11420  0.87160  Biso   1.000  C
  C138     1.0000 0.14410  0.61420  0.12840  Biso   1.000  C
  C139     1.0000 0.64410  0.88580  0.12840  Biso   1.000  C
  C140     1.0000 0.85590  0.38580  0.87160  Biso   1.000  C
  C141     1.0000 0.39680  0.13880  0.91930  Biso   1.000  C
  C142     1.0000 0.10320  0.63880  0.08070  Biso   1.000  C
  C143     1.0000 0.60320  0.86120  0.08070  Biso   1.000  C
  C144     1.0000 0.89680  0.36120  0.91930  Biso   1.000  C
  C145     1.0000 0.40180  0.17970  0.90120  Biso   1.000  C
  C146     1.0000 0.09820  0.67970  0.09880  Biso   1.000  C
  C147     1.0000 0.59820  0.82030  0.09880  Biso   1.000  C
  C148     1.0000 0.90180  0.32030  0.90120  Biso   1.000  C
  C149     1.0000 0.36780  0.24590  0.80000  Biso   1.000  C
  C150     1.0000 0.13220  0.74590  0.20000  Biso   1.000  C
  C151     1.0000 0.63220  0.75410  0.20000  Biso   1.000  C
  C152     1.0000 0.86780  0.25410  0.80000  Biso   1.000  C
  C153     1.0000 0.33760  0.26270  0.73820  Biso   1.000  C
  C154     1.0000 0.16240  0.76270  0.26180  Biso   1.000  C
  C155     1.0000 0.66240  0.73730  0.26180  Biso   1.000  C
  C156     1.0000 0.83760  0.23730  0.73820  Biso   1.000  C
  C157     1.0000 0.26300  0.25170  0.61590  Biso   1.000  C
  C158     1.0000 0.23700  0.75170  0.38410  Biso   1.000  C
  C159     1.0000 0.73700  0.74830  0.38410  Biso   1.000  C
  C160     1.0000 0.76300  0.24830  0.61590  Biso   1.000  C
  C161     1.0000 0.22830  0.22640  0.56160  Biso   1.000  C
  C162     1.0000 0.27170  0.72640  0.43840  Biso   1.000  C
  C163     1.0000 0.77170  0.77360  0.43840  Biso   1.000  C
  C164     1.0000 0.72830  0.27360  0.56160  Biso   1.000  C
  C165     1.0000 0.22890  0.18030  0.58180  Biso   1.000  C
  C166     1.0000 0.27110  0.68030  0.41820  Biso   1.000  C
  C167     1.0000 0.77110  0.81970  0.41820  Biso   1.000  C
  C168     1.0000 0.72890  0.31970  0.58180  Biso   1.000  C
  N13      1.0000 0.26290  0.16410  0.65770  Biso   1.000  N
  N14      1.0000 0.23710  0.66410  0.34230  Biso   1.000  N
  N15      1.0000 0.73710  0.83590  0.34230  Biso   1.000  N
  N16      1.0000 0.76290  0.33590  0.65770  Biso   1.000  N
  C169     1.0000 0.29530  0.19210  0.70890  Biso   1.000  C
  C170     1.0000 0.20470  0.69210  0.29110  Biso   1.000  C
  C171     1.0000 0.70470  0.80790  0.29110  Biso   1.000  C
  C172     1.0000 0.79530  0.30790  0.70890  Biso   1.000  C
  C173     1.0000 0.32660  0.17560  0.77920  Biso   1.000  C
  C174     1.0000 0.17340  0.67560  0.22080  Biso   1.000  C
  C175     1.0000 0.67340  0.82440  0.22080  Biso   1.000  C
  C176     1.0000 0.82660  0.32440  0.77920  Biso   1.000  C
  C177     1.0000 0.36860  0.20050  0.83360  Biso   1.000  C
  C178     1.0000 0.13140  0.70050  0.16640  Biso   1.000  C
  C179     1.0000 0.63140  0.79950  0.16640  Biso   1.000  C
  C180     1.0000 0.86860  0.29950  0.83360  Biso   1.000  C
  C181     1.0000 0.29710  0.23750  0.68170  Biso   1.000  C
  C182     1.0000 0.20290  0.73750  0.31830  Biso   1.000  C
  C183     1.0000 0.70290  0.76250  0.31830  Biso   1.000  C
  C184     1.0000 0.79710  0.26250  0.68170  Biso   1.000  C
  C185     1.0000 0.34740  0.07050  0.88990  Biso   1.000  C
  C186     1.0000 0.15260  0.57050  0.11010  Biso   1.000  C
  C187     1.0000 0.65260  0.92950  0.11010  Biso   1.000  C
  C188     1.0000 0.84740  0.42950  0.88990  Biso   1.000  C
  C189     1.0000 0.30050  0.05750  0.89430  Biso   1.000  C
  C190     1.0000 0.19950  0.55750  0.10570  Biso   1.000  C
  C191     1.0000 0.69950  0.94250  0.10570  Biso   1.000  C
  C192     1.0000 0.80050  0.44250  0.89430  Biso   1.000  C
  C193     1.0000 0.29200  0.01600  0.90710  Biso   1.000  C
  C194     1.0000 0.20800  0.51600  0.09290  Biso   1.000  C
  C195     1.0000 0.70800  0.98400  0.09290  Biso   1.000  C
  C196     1.0000 0.79200  0.48400  0.90710  Biso   1.000  C
  C197     1.0000 0.32610  0.98440  0.91730  Biso   1.000  C
  C198     1.0000 0.17390  0.48440  0.08270  Biso   1.000  C
  C199     1.0000 0.67390  0.01560  0.08270  Biso   1.000  C
  C200     1.0000 0.82610  0.51560  0.91730  Biso   1.000  C
  C201     1.0000 0.37370  0.99850  0.91730  Biso   1.000  C
  C202     1.0000 0.12630  0.49850  0.08270  Biso   1.000  C
  C203     1.0000 0.62630  0.00150  0.08270  Biso   1.000  C
  C204     1.0000 0.87370  0.50150  0.91730  Biso   1.000  C
  C205     1.0000 0.38050  0.04010  0.90690  Biso   1.000  C
  C206     1.0000 0.11950  0.54010  0.09310  Biso   1.000  C
  C207     1.0000 0.61950  0.95990  0.09310  Biso   1.000  C
  C208     1.0000 0.88050  0.45990  0.90690  Biso   1.000  C
  O25      1.0000 0.31210  0.94400  0.92930  Biso   1.000  O
  O26      1.0000 0.18790  0.44400  0.07070  Biso   1.000  O
  O27      1.0000 0.68790  0.05600  0.07070  Biso   1.000  O
  O28      1.0000 0.81210  0.55600  0.92930  Biso   1.000  O
  C209     1.0000 0.34460  0.91000  0.93090  Biso   1.000  C
  C210     1.0000 0.15540  0.41000  0.06910  Biso   1.000  C
  C211     1.0000 0.65540  0.09000  0.06910  Biso   1.000  C
  C212     1.0000 0.84460  0.59000  0.93090  Biso   1.000  C
  C213     1.0000 0.32120  0.86960  0.94560  Biso   1.000  C
  C214     1.0000 0.17880  0.36960  0.05440  Biso   1.000  C
  C215     1.0000 0.67880  0.13040  0.05440  Biso   1.000  C
  C216     1.0000 0.82120  0.63040  0.94560  Biso   1.000  C
  O29      1.0000 0.28550  0.85550  0.86390  Biso   1.000  O
  O30      1.0000 0.21450  0.35550  0.13610  Biso   1.000  O
  O31      1.0000 0.71450  0.14450  0.13610  Biso   1.000  O
  O32      1.0000 0.78550  0.64450  0.86390  Biso   1.000  O
  C217     1.0000 0.24020  0.87600  0.85130  Biso   1.000  C
  C218     1.0000 0.25980  0.37600  0.14870  Biso   1.000  C
  C219     1.0000 0.75980  0.12400  0.14870  Biso   1.000  C
  C220     1.0000 0.74020  0.62400  0.85130  Biso   1.000  C
  C221     1.0000 0.20390  0.84760  0.78690  Biso   1.000  C
  C222     1.0000 0.29610  0.34760  0.21310  Biso   1.000  C
  C223     1.0000 0.79610  0.15240  0.21310  Biso   1.000  C
  C224     1.0000 0.70390  0.65240  0.78690  Biso   1.000  C
  O33      1.0000 0.16140  0.87250  0.75540  Biso   1.000  O
  O34      1.0000 0.33860  0.37250  0.24460  Biso   1.000  O
  O35      1.0000 0.83860  0.12750  0.24460  Biso   1.000  O
  O36      1.0000 0.66140  0.62750  0.75540  Biso   1.000  O
  C225     1.0000 0.12100  0.84670  0.71730  Biso   1.000  C
  C226     1.0000 0.37900  0.34670  0.28270  Biso   1.000  C
  C227     1.0000 0.87900  0.15330  0.28270  Biso   1.000  C
  C228     1.0000 0.62100  0.65330  0.71730  Biso   1.000  C
  C229     1.0000 0.07550  0.87390  0.69260  Biso   1.000  C
  C230     1.0000 0.42450  0.37390  0.30740  Biso   1.000  C
  C231     1.0000 0.92450  0.12610  0.30740  Biso   1.000  C
  C232     1.0000 0.57550  0.62610  0.69260  Biso   1.000  C
  O37      1.0000 0.07510  0.89800  0.60990  Biso   1.000  O
  O38      1.0000 0.42490  0.39800  0.39010  Biso   1.000  O
  O39      1.0000 0.92490  0.10200  0.39010  Biso   1.000  O
  O40      1.0000 0.57510  0.60200  0.60990  Biso   1.000  O
  C233     1.0000 0.03520  0.91970  0.58270  Biso   1.000  C
  C234     1.0000 0.46480  0.41970  0.41730  Biso   1.000  C
  C235     1.0000 0.96480  0.08030  0.41730  Biso   1.000  C
  C236     1.0000 0.53520  0.58030  0.58270  Biso   1.000  C
  C237     1.0000 0.02710  0.93860  0.49310  Biso   1.000  C
  C238     1.0000 0.47290  0.43860  0.50690  Biso   1.000  C
  C239     1.0000 0.97290  0.06140  0.50690  Biso   1.000  C
  C240     1.0000 0.52710  0.56140  0.49310  Biso   1.000  C
  O41      1.0000 0.06180  0.97120  0.49520  Biso   1.000  O
  O42      1.0000 0.43820  0.47120  0.50480  Biso   1.000  O
  O43      1.0000 0.93820  0.02880  0.50480  Biso   1.000  O
  O44      1.0000 0.56180  0.52880  0.49520  Biso   1.000  O
  C241     1.0000 0.06640  0.98230  0.40720  Biso   1.000  C
  C242     1.0000 0.43360  0.48230  0.59280  Biso   1.000  C
  C243     1.0000 0.93360  0.01770  0.59280  Biso   1.000  C
  C244     1.0000 0.56640  0.51770  0.40720  Biso   1.000  C
  C245     1.0000 0.10770  0.01460  0.41750  Biso   1.000  C
  C246     1.0000 0.39230  0.51460  0.58250  Biso   1.000  C
  C247     1.0000 0.89230  0.98540  0.58250  Biso   1.000  C
  C248     1.0000 0.60770  0.48540  0.41750  Biso   1.000  C
  O45      1.0000 0.09300  0.05470  0.43510  Biso   1.000  O
  O46      1.0000 0.40700  0.55470  0.56490  Biso   1.000  O
  O47      1.0000 0.90700  0.94530  0.56490  Biso   1.000  O
  O48      1.0000 0.59300  0.44530  0.43510  Biso   1.000  O
  C249     1.0000 0.12670  0.08500  0.45900  Biso   1.000  C
  C250     1.0000 0.37330  0.58500  0.54100  Biso   1.000  C
  C251     1.0000 0.87330  0.91500  0.54100  Biso   1.000  C
  C252     1.0000 0.62670  0.41500  0.45900  Biso   1.000  C
  C253     1.0000 0.11100  0.12680  0.47750  Biso   1.000  C
  C254     1.0000 0.38900  0.62680  0.52250  Biso   1.000  C
  C255     1.0000 0.88900  0.87320  0.52250  Biso   1.000  C
  C256     1.0000 0.61100  0.37320  0.47750  Biso   1.000  C
  C257     1.0000 0.14360  0.15950  0.51120  Biso   1.000  C
  C258     1.0000 0.35640  0.65950  0.48880  Biso   1.000  C
  C259     1.0000 0.85640  0.84050  0.48880  Biso   1.000  C
  C260     1.0000 0.64360  0.34050  0.51120  Biso   1.000  C
  C261     1.0000 0.19420  0.14930  0.53260  Biso   1.000  C
  C262     1.0000 0.30580  0.64930  0.46740  Biso   1.000  C
  C263     1.0000 0.80580  0.85070  0.46740  Biso   1.000  C
  C264     1.0000 0.69420  0.35070  0.53260  Biso   1.000  C
  C265     1.0000 0.20840  0.10850  0.51280  Biso   1.000  C
  C266     1.0000 0.29160  0.60850  0.48720  Biso   1.000  C
  C267     1.0000 0.79160  0.89150  0.48720  Biso   1.000  C
  C268     1.0000 0.70840  0.39150  0.51280  Biso   1.000  C
  C269     1.0000 0.17630  0.07740  0.47620  Biso   1.000  C
  C270     1.0000 0.32370  0.57740  0.52380  Biso   1.000  C
  C271     1.0000 0.82370  0.92260  0.52380  Biso   1.000  C
  C272     1.0000 0.67630  0.42260  0.47620  Biso   1.000  C
  N17      1.0000 0.16560  0.03320  0.17060  Biso   1.000  N
  N18      1.0000 0.33440  0.53320  0.82940  Biso   1.000  N
  N19      1.0000 0.83440  0.96680  0.82940  Biso   1.000  N
  N20      1.0000 0.66560  0.46680  0.17060  Biso   1.000  N
  C273     1.0000 0.12050  0.03210  0.17870  Biso   1.000  C
  C274     1.0000 0.37950  0.53210  0.82130  Biso   1.000  C
  C275     1.0000 0.87950  0.96790  0.82130  Biso   1.000  C
  C276     1.0000 0.62050  0.46790  0.17870  Biso   1.000  C
  C277     1.0000 0.09580  0.99150  0.18270  Biso   1.000  C
  C278     1.0000 0.40420  0.49150  0.81730  Biso   1.000  C
  C279     1.0000 0.90420  0.00850  0.81730  Biso   1.000  C
  C280     1.0000 0.59580  0.50850  0.18270  Biso   1.000  C
  C281     1.0000 0.12300  0.95700  0.18230  Biso   1.000  C
  C282     1.0000 0.37700  0.45700  0.81770  Biso   1.000  C
  C283     1.0000 0.87700  0.04300  0.81770  Biso   1.000  C
  C284     1.0000 0.62300  0.54300  0.18230  Biso   1.000  C
  C285     1.0000 0.20080  0.92000  0.17680  Biso   1.000  C
  C286     1.0000 0.29920  0.42000  0.82320  Biso   1.000  C
  C287     1.0000 0.79920  0.08000  0.82320  Biso   1.000  C
  C288     1.0000 0.70080  0.58000  0.17680  Biso   1.000  C
  C289     1.0000 0.24680  0.92270  0.16650  Biso   1.000  C
  C290     1.0000 0.25320  0.42270  0.83350  Biso   1.000  C
  C291     1.0000 0.75320  0.07730  0.83350  Biso   1.000  C
  C292     1.0000 0.74680  0.57730  0.16650  Biso   1.000  C
  C293     1.0000 0.31480  0.96930  0.15200  Biso   1.000  C
  C294     1.0000 0.18520  0.46930  0.84800  Biso   1.000  C
  C295     1.0000 0.68520  0.03070  0.84800  Biso   1.000  C
  C296     1.0000 0.81480  0.53070  0.15200  Biso   1.000  C
  C297     1.0000 0.33030  0.00700  0.13540  Biso   1.000  C
  C298     1.0000 0.16970  0.50700  0.86460  Biso   1.000  C
  C299     1.0000 0.66970  0.99300  0.86460  Biso   1.000  C
  C300     1.0000 0.83030  0.49300  0.13540  Biso   1.000  C
  C301     1.0000 0.29960  0.04430  0.12870  Biso   1.000  C
  C302     1.0000 0.20040  0.54430  0.87130  Biso   1.000  C
  C303     1.0000 0.70040  0.95570  0.87130  Biso   1.000  C
  C304     1.0000 0.79960  0.45570  0.12870  Biso   1.000  C
  N21      1.0000 0.25670  0.04030  0.14010  Biso   1.000  N
  N22      1.0000 0.24330  0.54030  0.85990  Biso   1.000  N
  N23      1.0000 0.74330  0.95970  0.85990  Biso   1.000  N
  N24      1.0000 0.75670  0.45970  0.14010  Biso   1.000  N
  C305     1.0000 0.23970  0.00140  0.15420  Biso   1.000  C
  C306     1.0000 0.26030  0.50140  0.84580  Biso   1.000  C
  C307     1.0000 0.76030  0.99860  0.84580  Biso   1.000  C
  C308     1.0000 0.73970  0.49860  0.15420  Biso   1.000  C
  C309     1.0000 0.19190  0.99790  0.16650  Biso   1.000  C
  C310     1.0000 0.30810  0.49790  0.83350  Biso   1.000  C
  C311     1.0000 0.80810  0.00210  0.83350  Biso   1.000  C
  C312     1.0000 0.69190  0.50210  0.16650  Biso   1.000  C
  C313     1.0000 0.16930  0.95550  0.17230  Biso   1.000  C
  C314     1.0000 0.33070  0.45550  0.82770  Biso   1.000  C
  C315     1.0000 0.83070  0.04450  0.82770  Biso   1.000  C
  C316     1.0000 0.66930  0.54450  0.17230  Biso   1.000  C
  C317     1.0000 0.26880  0.96330  0.15930  Biso   1.000  C
  C318     1.0000 0.23120  0.46330  0.84070  Biso   1.000  C
  C319     1.0000 0.73120  0.03670  0.84070  Biso   1.000  C
  C320     1.0000 0.76880  0.53670  0.15930  Biso   1.000  C
  C321     1.0000 0.09450  0.07020  0.18730  Biso   1.000  C
  C322     1.0000 0.40550  0.57020  0.81270  Biso   1.000  C
  C323     1.0000 0.90550  0.92980  0.81270  Biso   1.000  C
  C324     1.0000 0.59450  0.42980  0.18730  Biso   1.000  C
  C325     1.0000 0.04310  0.07470  0.14460  Biso   1.000  C
  C326     1.0000 0.45690  0.57470  0.85540  Biso   1.000  C
  C327     1.0000 0.95690  0.92530  0.85540  Biso   1.000  C
  C328     1.0000 0.54310  0.42530  0.14460  Biso   1.000  C
  C329     1.0000 0.01970  0.11230  0.14520  Biso   1.000  C
  C330     1.0000 0.48030  0.61230  0.85480  Biso   1.000  C
  C331     1.0000 0.98030  0.88770  0.85480  Biso   1.000  C
  C332     1.0000 0.51970  0.38770  0.14520  Biso   1.000  C
  C333     1.0000 0.03940  0.14910  0.19500  Biso   1.000  C
  C334     1.0000 0.46060  0.64910  0.80500  Biso   1.000  C
  C335     1.0000 0.96060  0.85090  0.80500  Biso   1.000  C
  C336     1.0000 0.53940  0.35090  0.19500  Biso   1.000  C
  C337     1.0000 0.09070  0.14300  0.24080  Biso   1.000  C
  C338     1.0000 0.40930  0.64300  0.75920  Biso   1.000  C
  C339     1.0000 0.90930  0.85700  0.75920  Biso   1.000  C
  C340     1.0000 0.59070  0.35700  0.24080  Biso   1.000  C
  C341     1.0000 0.11370  0.10690  0.23260  Biso   1.000  C
  C342     1.0000 0.38630  0.60690  0.76740  Biso   1.000  C
  C343     1.0000 0.88630  0.89310  0.76740  Biso   1.000  C
  C344     1.0000 0.61370  0.39310  0.23260  Biso   1.000  C
  O49      1.0000 0.01450  0.18490  0.19370  Biso   1.000  O
  O50      1.0000 0.48550  0.68490  0.80630  Biso   1.000  O
  O51      1.0000 0.98550  0.81510  0.80630  Biso   1.000  O
  O52      1.0000 0.51450  0.31510  0.19370  Biso   1.000  O
  C345     1.0000 0.03070  0.21950  0.23680  Biso   1.000  C
  C346     1.0000 0.46930  0.71950  0.76320  Biso   1.000  C
  C347     1.0000 0.96930  0.78050  0.76320  Biso   1.000  C
  C348     1.0000 0.53070  0.28050  0.23680  Biso   1.000  C
  C349     1.0000 0.03440  0.21870  0.33410  Biso   1.000  C
  C350     1.0000 0.46560  0.71870  0.66590  Biso   1.000  C
  C351     1.0000 0.96560  0.78130  0.66590  Biso   1.000  C
  C352     1.0000 0.53440  0.28130  0.33410  Biso   1.000  C
  C353     1.0000 0.03370  0.21760  0.40890  Biso   1.000  C
  C354     1.0000 0.46630  0.71760  0.59110  Biso   1.000  C
  C355     1.0000 0.96630  0.78240  0.59110  Biso   1.000  C
  C356     1.0000 0.53370  0.28240  0.40890  Biso   1.000  C
  C357     1.0000 0.31790  0.08670  0.11960  Biso   1.000  C
  C358     1.0000 0.18210  0.58670  0.88040  Biso   1.000  C
  C359     1.0000 0.68210  0.91330  0.88040  Biso   1.000  C
  C360     1.0000 0.81790  0.41330  0.11960  Biso   1.000  C
  C361     1.0000 0.36520  0.09880  0.15540  Biso   1.000  C
  C362     1.0000 0.13480  0.59880  0.84460  Biso   1.000  C
  C363     1.0000 0.63480  0.90120  0.84460  Biso   1.000  C
  C364     1.0000 0.86520  0.40120  0.15540  Biso   1.000  C
  C365     1.0000 0.38320  0.14000  0.14820  Biso   1.000  C
  C366     1.0000 0.11680  0.64000  0.85180  Biso   1.000  C
  C367     1.0000 0.61680  0.86000  0.85180  Biso   1.000  C
  C368     1.0000 0.88320  0.36000  0.14820  Biso   1.000  C
  C369     1.0000 0.35460  0.16950  0.09930  Biso   1.000  C
  C370     1.0000 0.14540  0.66950  0.90070  Biso   1.000  C
  C371     1.0000 0.64540  0.83050  0.90070  Biso   1.000  C
  C372     1.0000 0.85460  0.33050  0.09930  Biso   1.000  C
  C373     1.0000 0.30520  0.15980  0.05790  Biso   1.000  C
  C374     1.0000 0.19480  0.65980  0.94210  Biso   1.000  C
  C375     1.0000 0.69480  0.84020  0.94210  Biso   1.000  C
  C376     1.0000 0.80520  0.34020  0.05790  Biso   1.000  C
  C377     1.0000 0.28900  0.11790  0.06620  Biso   1.000  C
  C378     1.0000 0.21100  0.61790  0.93380  Biso   1.000  C
  C379     1.0000 0.71100  0.88210  0.93380  Biso   1.000  C
  C380     1.0000 0.78900  0.38210  0.06620  Biso   1.000  C
  O53      1.0000 0.36740  0.21060  0.08840  Biso   1.000  O
  O54      1.0000 0.13260  0.71060  0.91160  Biso   1.000  O
  O55      1.0000 0.63260  0.78940  0.91160  Biso   1.000  O
  O56      1.0000 0.86740  0.28940  0.08840  Biso   1.000  O
  C381     1.0000 0.41380  0.22580  0.13740  Biso   1.000  C
  C382     1.0000 0.08620  0.72580  0.86260  Biso   1.000  C
  C383     1.0000 0.58620  0.77420  0.86260  Biso   1.000  C
  C384     1.0000 0.91380  0.27420  0.13740  Biso   1.000  C
  C385     1.0000 0.41420  0.23120  0.23270  Biso   1.000  C
  C386     1.0000 0.08580  0.73120  0.76730  Biso   1.000  C
  C387     1.0000 0.58580  0.76880  0.76730  Biso   1.000  C
  C388     1.0000 0.91420  0.26880  0.23270  Biso   1.000  C
  C389     1.0000 0.41410  0.23680  0.31300  Biso   1.000  C
  C390     1.0000 0.08590  0.73680  0.68700  Biso   1.000  C
  C391     1.0000 0.58590  0.76320  0.68700  Biso   1.000  C
  C392     1.0000 0.91410  0.26320  0.31300  Biso   1.000  C
  N25      1.0000 0.22500  0.05370  0.69210  Biso   1.000  N
  N26      1.0000 0.27500  0.55370  0.30790  Biso   1.000  N
  N27      1.0000 0.77500  0.94630  0.30790  Biso   1.000  N
  N28      1.0000 0.72500  0.44630  0.69210  Biso   1.000  N
  C393     1.0000 0.17940  0.05380  0.70540  Biso   1.000  C
  C394     1.0000 0.32060  0.55380  0.29460  Biso   1.000  C
  C395     1.0000 0.82060  0.94620  0.29460  Biso   1.000  C
  C396     1.0000 0.67940  0.44620  0.70540  Biso   1.000  C
  C397     1.0000 0.15530  0.01240  0.69800  Biso   1.000  C
  C398     1.0000 0.34470  0.51240  0.30200  Biso   1.000  C
  C399     1.0000 0.84470  0.98760  0.30200  Biso   1.000  C
  C400     1.0000 0.65530  0.48760  0.69800  Biso   1.000  C
  C401     1.0000 0.17680  0.97770  0.68600  Biso   1.000  C
  C402     1.0000 0.32320  0.47770  0.31400  Biso   1.000  C
  C403     1.0000 0.82320  0.02230  0.31400  Biso   1.000  C
  C404     1.0000 0.67680  0.52230  0.68600  Biso   1.000  C
  C405     1.0000 0.25070  0.93810  0.66650  Biso   1.000  C
  C406     1.0000 0.24930  0.43810  0.33350  Biso   1.000  C
  C407     1.0000 0.74930  0.06190  0.33350  Biso   1.000  C
  C408     1.0000 0.75070  0.56190  0.66650  Biso   1.000  C
  C409     1.0000 0.29790  0.94060  0.66710  Biso   1.000  C
  C410     1.0000 0.20210  0.44060  0.33290  Biso   1.000  C
  C411     1.0000 0.70210  0.05940  0.33290  Biso   1.000  C
  C412     1.0000 0.79790  0.55940  0.66710  Biso   1.000  C
  C413     1.0000 0.37270  0.98490  0.66240  Biso   1.000  C
  C414     1.0000 0.12730  0.48490  0.33760  Biso   1.000  C
  C415     1.0000 0.62730  0.01510  0.33760  Biso   1.000  C
  C416     1.0000 0.87270  0.51510  0.66240  Biso   1.000  C
  C417     1.0000 0.38940  0.02290  0.66190  Biso   1.000  C
  C418     1.0000 0.11060  0.52290  0.33810  Biso   1.000  C
  C419     1.0000 0.61060  0.97710  0.33810  Biso   1.000  C
  C420     1.0000 0.88940  0.47710  0.66190  Biso   1.000  C
  C421     1.0000 0.36240  0.06030  0.65930  Biso   1.000  C
  C422     1.0000 0.13760  0.56030  0.34070  Biso   1.000  C
  C423     1.0000 0.63760  0.93970  0.34070  Biso   1.000  C
  C424     1.0000 0.86240  0.43970  0.65930  Biso   1.000  C
  N29      1.0000 0.31660  0.05690  0.66430  Biso   1.000  N
  N30      1.0000 0.18340  0.55690  0.33570  Biso   1.000  N
  N31      1.0000 0.68340  0.94310  0.33570  Biso   1.000  N
  N32      1.0000 0.81660  0.44310  0.66430  Biso   1.000  N
  C425     1.0000 0.29670  0.01890  0.66460  Biso   1.000  C
  C426     1.0000 0.20330  0.51890  0.33540  Biso   1.000  C
  C427     1.0000 0.70330  0.98110  0.33540  Biso   1.000  C
  C428     1.0000 0.79670  0.48110  0.66460  Biso   1.000  C
  C429     1.0000 0.24830  0.01780  0.67830  Biso   1.000  C
  C430     1.0000 0.25170  0.51780  0.32170  Biso   1.000  C
  C431     1.0000 0.75170  0.98220  0.32170  Biso   1.000  C
  C432     1.0000 0.74830  0.48220  0.67830  Biso   1.000  C
  C433     1.0000 0.22690  0.97750  0.67450  Biso   1.000  C
  C434     1.0000 0.27310  0.47750  0.32550  Biso   1.000  C
  C435     1.0000 0.77310  0.02250  0.32550  Biso   1.000  C
  C436     1.0000 0.72690  0.52250  0.67450  Biso   1.000  C
  C437     1.0000 0.32470  0.98120  0.66520  Biso   1.000  C
  C438     1.0000 0.17530  0.48120  0.33480  Biso   1.000  C
  C439     1.0000 0.67530  0.01880  0.33480  Biso   1.000  C
  C440     1.0000 0.82470  0.51880  0.66520  Biso   1.000  C
  C441     1.0000 0.15700  0.09370  0.71660  Biso   1.000  C
  C442     1.0000 0.34300  0.59370  0.28340  Biso   1.000  C
  C443     1.0000 0.84300  0.90630  0.28340  Biso   1.000  C
  C444     1.0000 0.65700  0.40630  0.71660  Biso   1.000  C
  C445     1.0000 0.10440  0.09960  0.68430  Biso   1.000  C
  C446     1.0000 0.39560  0.59960  0.31570  Biso   1.000  C
  C447     1.0000 0.89560  0.90040  0.31570  Biso   1.000  C
  C448     1.0000 0.60440  0.40040  0.68430  Biso   1.000  C
  C449     1.0000 0.08430  0.13660  0.68850  Biso   1.000  C
  C450     1.0000 0.41570  0.63660  0.31150  Biso   1.000  C
  C451     1.0000 0.91570  0.86340  0.31150  Biso   1.000  C
  C452     1.0000 0.58430  0.36340  0.68850  Biso   1.000  C
  C453     1.0000 0.10860  0.17010  0.72890  Biso   1.000  C
  C454     1.0000 0.39140  0.67010  0.27110  Biso   1.000  C
  C455     1.0000 0.89140  0.82990  0.27110  Biso   1.000  C
  C456     1.0000 0.60860  0.32990  0.72890  Biso   1.000  C
  C457     1.0000 0.16080  0.16550  0.76540  Biso   1.000  C
  C458     1.0000 0.33920  0.66550  0.23460  Biso   1.000  C
  C459     1.0000 0.83920  0.83450  0.23460  Biso   1.000  C
  C460     1.0000 0.66080  0.33450  0.76540  Biso   1.000  C
  C461     1.0000 0.18160  0.12900  0.76650  Biso   1.000  C
  C462     1.0000 0.31840  0.62900  0.23350  Biso   1.000  C
  C463     1.0000 0.81840  0.87100  0.23350  Biso   1.000  C
  C464     1.0000 0.68160  0.37100  0.76650  Biso   1.000  C
  O57      1.0000 0.09380  0.21240  0.74110  Biso   1.000  O
  O58      1.0000 0.40620  0.71240  0.25890  Biso   1.000  O
  O59      1.0000 0.90620  0.78760  0.25890  Biso   1.000  O
  O60      1.0000 0.59380  0.28760  0.74110  Biso   1.000  O
  C465     1.0000 0.04480  0.22120  0.68390  Biso   1.000  C
  C466     1.0000 0.45520  0.72120  0.31610  Biso   1.000  C
  C467     1.0000 0.95520  0.77880  0.31610  Biso   1.000  C
  C468     1.0000 0.54480  0.27880  0.68390  Biso   1.000  C
  C469     1.0000 0.04120  0.21990  0.58970  Biso   1.000  C
  C470     1.0000 0.45880  0.71990  0.41030  Biso   1.000  C
  C471     1.0000 0.95880  0.78010  0.41030  Biso   1.000  C
  C472     1.0000 0.54120  0.28010  0.58970  Biso   1.000  C
  C473     1.0000 0.03720  0.21920  0.50630  Biso   1.000  C
  C474     1.0000 0.46280  0.71920  0.49370  Biso   1.000  C
  C475     1.0000 0.96280  0.78080  0.49370  Biso   1.000  C
  C476     1.0000 0.53720  0.28080  0.50630  Biso   1.000  C
  C477     1.0000 0.38210  0.10040  0.65030  Biso   1.000  C
  C478     1.0000 0.11790  0.60040  0.34970  Biso   1.000  C
  C479     1.0000 0.61790  0.89960  0.34970  Biso   1.000  C
  C480     1.0000 0.88210  0.39960  0.65030  Biso   1.000  C
  C481     1.0000 0.42860  0.11560  0.70780  Biso   1.000  C
  C482     1.0000 0.07140  0.61560  0.29220  Biso   1.000  C
  C483     1.0000 0.57140  0.88440  0.29220  Biso   1.000  C
  C484     1.0000 0.92860  0.38440  0.70780  Biso   1.000  C
  C485     1.0000 0.44610  0.15600  0.69960  Biso   1.000  C
  C486     1.0000 0.05390  0.65600  0.30040  Biso   1.000  C
  C487     1.0000 0.55390  0.84400  0.30040  Biso   1.000  C
  C488     1.0000 0.94610  0.34400  0.69960  Biso   1.000  C
  C489     1.0000 0.42200  0.18680  0.63740  Biso   1.000  C
  C490     1.0000 0.07800  0.68680  0.36260  Biso   1.000  C
  C491     1.0000 0.57800  0.81320  0.36260  Biso   1.000  C
  C492     1.0000 0.92200  0.31320  0.63740  Biso   1.000  C
  C493     1.0000 0.37280  0.17320  0.57490  Biso   1.000  C
  C494     1.0000 0.12720  0.67320  0.42510  Biso   1.000  C
  C495     1.0000 0.62720  0.82680  0.42510  Biso   1.000  C
  C496     1.0000 0.87280  0.32680  0.57490  Biso   1.000  C
  C497     1.0000 0.35670  0.13270  0.58430  Biso   1.000  C
  C498     1.0000 0.14330  0.63270  0.41570  Biso   1.000  C
  C499     1.0000 0.64330  0.86730  0.41570  Biso   1.000  C
  C500     1.0000 0.85670  0.36730  0.58430  Biso   1.000  C
  O61      1.0000 0.44190  0.22380  0.63400  Biso   1.000  O
  O62      1.0000 0.05810  0.72380  0.36600  Biso   1.000  O
  O63      1.0000 0.55810  0.77620  0.36600  Biso   1.000  O
  O64      1.0000 0.94190  0.27620  0.63400  Biso   1.000  O
  C501     1.0000 0.41490  0.25490  0.57270  Biso   1.000  C
  C502     1.0000 0.08510  0.75490  0.42730  Biso   1.000  C
  C503     1.0000 0.58510  0.74510  0.42730  Biso   1.000  C
  C504     1.0000 0.91490  0.24510  0.57270  Biso   1.000  C
  C505     1.0000 0.41430  0.24820  0.47930  Biso   1.000  C
  C506     1.0000 0.08570  0.74820  0.52070  Biso   1.000  C
  C507     1.0000 0.58570  0.75180  0.52070  Biso   1.000  C
  C508     1.0000 0.91430  0.25180  0.47930  Biso   1.000  C
  C509     1.0000 0.41410  0.24330  0.40140  Biso   1.000  C
  C510     1.0000 0.08590  0.74330  0.59860  Biso   1.000  C
  C511     1.0000 0.58590  0.75670  0.59860  Biso   1.000  C
  C512     1.0000 0.91410  0.25670  0.40140  Biso   1.000  C
  Cu1      1.0000 0.20470  0.08580  0.14750  Biso   1.000  Cu
  Cu2      1.0000 0.29530  0.58580  0.85250  Biso   1.000  Cu
  Cu3      1.0000 0.79530  0.91420  0.85250  Biso   1.000  Cu
  Cu4      1.0000 0.70470  0.41420  0.14750  Biso   1.000  Cu
  Cu5      1.0000 0.27220  0.10420  0.69800  Biso   1.000  Cu
  Cu6      1.0000 0.22780  0.60420  0.30200  Biso   1.000  Cu
  Cu7      1.0000 0.72780  0.89580  0.30200  Biso   1.000  Cu
  Cu8      1.0000 0.77220  0.39580  0.69800  Biso   1.000  Cu
  H1       1.0000 0.06800  0.15500  0.89300  Biso   1.000  H
  H2       1.0000 0.43200  0.65500  0.10700  Biso   1.000  H
  H3       1.0000 0.93200  0.84500  0.10700  Biso   1.000  H
  H4       1.0000 0.56800  0.34500  0.89300  Biso   1.000  H
  H5       1.0000 0.08900  0.22400  0.94000  Biso   1.000  H
  H6       1.0000 0.41100  0.72400  0.06000  Biso   1.000  H
  H7       1.0000 0.91100  0.77600  0.06000  Biso   1.000  H
  H8       1.0000 0.58900  0.27600  0.94000  Biso   1.000  H
  H9       1.0000 0.14200  0.27500  0.06600  Biso   1.000  H
  H10      1.0000 0.35800  0.77500  0.93400  Biso   1.000  H
  H11      1.0000 0.85800  0.72500  0.93400  Biso   1.000  H
  H12      1.0000 0.64200  0.22500  0.06600  Biso   1.000  H
  H13      1.0000 0.21200  0.28400  0.18400  Biso   1.000  H
  H14      1.0000 0.28800  0.78400  0.81600  Biso   1.000  H
  H15      1.0000 0.78800  0.71600  0.81600  Biso   1.000  H
  H16      1.0000 0.71200  0.21600  0.18400  Biso   1.000  H
  H17      1.0000 0.28700  0.24900  0.30500  Biso   1.000  H
  H18      1.0000 0.21300  0.74900  0.69500  Biso   1.000  H
  H19      1.0000 0.71300  0.75100  0.69500  Biso   1.000  H
  H20      1.0000 0.78700  0.25100  0.30500  Biso   1.000  H
  H21      1.0000 0.32500  0.18300  0.37900  Biso   1.000  H
  H22      1.0000 0.17500  0.68300  0.62100  Biso   1.000  H
  H23      1.0000 0.67500  0.81700  0.62100  Biso   1.000  H
  H24      1.0000 0.82500  0.31700  0.37900  Biso   1.000  H
  H25      1.0000 0.19400  0.06700  0.96600  Biso   1.000  H
  H26      1.0000 0.30600  0.56700  0.03400  Biso   1.000  H
  H27      1.0000 0.80600  0.93300  0.03400  Biso   1.000  H
  H28      1.0000 0.69400  0.43300  0.96600  Biso   1.000  H
  H29      1.0000 0.18000  0.98800  0.93000  Biso   1.000  H
  H30      1.0000 0.32000  0.48800  0.07000  Biso   1.000  H
  H31      1.0000 0.82000  0.01200  0.07000  Biso   1.000  H
  H32      1.0000 0.68000  0.51200  0.93000  Biso   1.000  H
  H33      1.0000 0.03000  0.00500  0.89400  Biso   1.000  H
  H34      1.0000 0.47000  0.50500  0.10600  Biso   1.000  H
  H35      1.0000 0.97000  0.99500  0.10600  Biso   1.000  H
  H36      1.0000 0.53000  0.49500  0.89400  Biso   1.000  H
  H37      1.0000 0.03900  0.08100  0.92200  Biso   1.000  H
  H38      1.0000 0.46100  0.58100  0.07800  Biso   1.000  H
  H39      1.0000 0.96100  0.91900  0.07800  Biso   1.000  H
  H40      1.0000 0.53900  0.41900  0.92200  Biso   1.000  H
  H41      1.0000 0.15100  0.92100  0.87500  Biso   1.000  H
  H42      1.0000 0.34900  0.42100  0.12500  Biso   1.000  H
  H43      1.0000 0.84900  0.07900  0.12500  Biso   1.000  H
  H44      1.0000 0.65100  0.57900  0.87500  Biso   1.000  H
  H45      1.0000 0.16300  0.93600  0.99100  Biso   1.000  H
  H46      1.0000 0.33700  0.43600  0.00900  Biso   1.000  H
  H47      1.0000 0.83700  0.06400  0.00900  Biso   1.000  H
  H48      1.0000 0.66300  0.56400  0.99100  Biso   1.000  H
  H49      1.0000 0.09400  0.86500  0.90200  Biso   1.000  H
  H50      1.0000 0.40600  0.36500  0.09800  Biso   1.000  H
  H51      1.0000 0.90600  0.13500  0.09800  Biso   1.000  H
  H52      1.0000 0.59400  0.63500  0.90200  Biso   1.000  H
  H53      1.0000 0.10500  0.88000  0.01800  Biso   1.000  H
  H54      1.0000 0.39500  0.38000  0.98200  Biso   1.000  H
  H55      1.0000 0.89500  0.12000  0.98200  Biso   1.000  H
  H56      1.0000 0.60500  0.62000  0.01800  Biso   1.000  H
  H57      1.0000 0.15500  0.82400  0.09500  Biso   1.000  H
  H58      1.0000 0.34500  0.32400  0.90500  Biso   1.000  H
  H59      1.0000 0.84500  0.17600  0.90500  Biso   1.000  H
  H60      1.0000 0.65500  0.67600  0.09500  Biso   1.000  H
  H61      1.0000 0.12600  0.79700  0.99300  Biso   1.000  H
  H62      1.0000 0.37400  0.29700  0.00700  Biso   1.000  H
  H63      1.0000 0.87400  0.20300  0.00700  Biso   1.000  H
  H64      1.0000 0.62600  0.70300  0.99300  Biso   1.000  H
  H65      1.0000 0.19000  0.75600  0.06100  Biso   1.000  H
  H66      1.0000 0.31000  0.25600  0.93900  Biso   1.000  H
  H67      1.0000 0.81000  0.24400  0.93900  Biso   1.000  H
  H68      1.0000 0.69000  0.74400  0.06100  Biso   1.000  H
  H69      1.0000 0.20700  0.78300  0.97100  Biso   1.000  H
  H70      1.0000 0.29300  0.28300  0.02900  Biso   1.000  H
  H71      1.0000 0.79300  0.21700  0.02900  Biso   1.000  H
  H72      1.0000 0.70700  0.71700  0.97100  Biso   1.000  H
  H73      1.0000 0.23900  0.75200  0.16100  Biso   1.000  H
  H74      1.0000 0.26100  0.25200  0.83900  Biso   1.000  H
  H75      1.0000 0.76100  0.24800  0.83900  Biso   1.000  H
  H76      1.0000 0.73900  0.74800  0.16100  Biso   1.000  H
  H77      1.0000 0.27600  0.75500  0.08300  Biso   1.000  H
  H78      1.0000 0.22400  0.25500  0.91700  Biso   1.000  H
  H79      1.0000 0.72400  0.24500  0.91700  Biso   1.000  H
  H80      1.0000 0.77600  0.74500  0.08300  Biso   1.000  H
  H81      1.0000 0.33000  0.75600  0.21500  Biso   1.000  H
  H82      1.0000 0.17000  0.25600  0.78500  Biso   1.000  H
  H83      1.0000 0.67000  0.24400  0.78500  Biso   1.000  H
  H84      1.0000 0.83000  0.74400  0.21500  Biso   1.000  H
  H85      1.0000 0.29200  0.78000  0.27700  Biso   1.000  H
  H86      1.0000 0.20800  0.28000  0.72300  Biso   1.000  H
  H87      1.0000 0.70800  0.22000  0.72300  Biso   1.000  H
  H88      1.0000 0.79200  0.72000  0.27700  Biso   1.000  H
  H89      1.0000 0.39300  0.83600  0.26200  Biso   1.000  H
  H90      1.0000 0.10700  0.33600  0.73800  Biso   1.000  H
  H91      1.0000 0.60700  0.16400  0.73800  Biso   1.000  H
  H92      1.0000 0.89300  0.66400  0.26200  Biso   1.000  H
  H93      1.0000 0.36500  0.80200  0.32800  Biso   1.000  H
  H94      1.0000 0.13500  0.30200  0.67200  Biso   1.000  H
  H95      1.0000 0.63500  0.19800  0.67200  Biso   1.000  H
  H96      1.0000 0.86500  0.69800  0.32800  Biso   1.000  H
  H97      1.0000 0.37800  0.83400  0.42000  Biso   1.000  H
  H98      1.0000 0.12200  0.33400  0.58000  Biso   1.000  H
  H99      1.0000 0.62200  0.16600  0.58000  Biso   1.000  H
  H100     1.0000 0.87800  0.66600  0.42000  Biso   1.000  H
  H101     1.0000 0.41600  0.86000  0.36100  Biso   1.000  H
  H102     1.0000 0.08400  0.36000  0.63900  Biso   1.000  H
  H103     1.0000 0.58400  0.14000  0.63900  Biso   1.000  H
  H104     1.0000 0.91600  0.64000  0.36100  Biso   1.000  H
  H105     1.0000 0.33100  0.88800  0.46700  Biso   1.000  H
  H106     1.0000 0.16900  0.38800  0.53300  Biso   1.000  H
  H107     1.0000 0.66900  0.11200  0.53300  Biso   1.000  H
  H108     1.0000 0.83100  0.61200  0.46700  Biso   1.000  H
  H109     1.0000 0.38400  0.91900  0.47700  Biso   1.000  H
  H110     1.0000 0.11600  0.41900  0.52300  Biso   1.000  H
  H111     1.0000 0.61600  0.08100  0.52300  Biso   1.000  H
  H112     1.0000 0.88400  0.58100  0.47700  Biso   1.000  H
  H113     1.0000 0.30200  0.95200  0.47700  Biso   1.000  H
  H114     1.0000 0.19800  0.45200  0.52300  Biso   1.000  H
  H115     1.0000 0.69800  0.04800  0.52300  Biso   1.000  H
  H116     1.0000 0.80200  0.54800  0.47700  Biso   1.000  H
  H117     1.0000 0.29300  0.94600  0.35800  Biso   1.000  H
  H118     1.0000 0.20700  0.44600  0.64200  Biso   1.000  H
  H119     1.0000 0.70700  0.05400  0.64200  Biso   1.000  H
  H120     1.0000 0.79300  0.55400  0.35800  Biso   1.000  H
  H121     1.0000 0.25200  0.00400  0.38200  Biso   1.000  H
  H122     1.0000 0.24800  0.50400  0.61800  Biso   1.000  H
  H123     1.0000 0.74800  0.99600  0.61800  Biso   1.000  H
  H124     1.0000 0.75200  0.49600  0.38200  Biso   1.000  H
  H125     1.0000 0.22500  0.07300  0.32800  Biso   1.000  H
  H126     1.0000 0.27500  0.57300  0.67200  Biso   1.000  H
  H127     1.0000 0.77500  0.92700  0.67200  Biso   1.000  H
  H128     1.0000 0.72500  0.42700  0.32800  Biso   1.000  H
  H129     1.0000 0.36700  0.11900  0.34900  Biso   1.000  H
  H130     1.0000 0.13300  0.61900  0.65100  Biso   1.000  H
  H131     1.0000 0.63300  0.88100  0.65100  Biso   1.000  H
  H132     1.0000 0.86700  0.38100  0.34900  Biso   1.000  H
  H133     1.0000 0.39900  0.04900  0.41200  Biso   1.000  H
  H134     1.0000 0.10100  0.54900  0.58800  Biso   1.000  H
  H135     1.0000 0.60100  0.95100  0.58800  Biso   1.000  H
  H136     1.0000 0.89900  0.45100  0.41200  Biso   1.000  H
  H137     1.0000 0.05800  0.99000  0.18400  Biso   1.000  H
  H138     1.0000 0.44200  0.49000  0.81600  Biso   1.000  H
  H139     1.0000 0.94200  0.01000  0.81600  Biso   1.000  H
  H140     1.0000 0.55800  0.51000  0.18400  Biso   1.000  H
  H141     1.0000 0.10700  0.92700  0.19300  Biso   1.000  H
  H142     1.0000 0.39300  0.42700  0.80700  Biso   1.000  H
  H143     1.0000 0.89300  0.07300  0.80700  Biso   1.000  H
  H144     1.0000 0.60700  0.57300  0.19300  Biso   1.000  H
  H145     1.0000 0.18700  0.88900  0.19000  Biso   1.000  H
  H146     1.0000 0.31300  0.38900  0.81000  Biso   1.000  H
  H147     1.0000 0.81300  0.11100  0.81000  Biso   1.000  H
  H148     1.0000 0.68700  0.61100  0.19000  Biso   1.000  H
  H149     1.0000 0.26700  0.89400  0.16400  Biso   1.000  H
  H150     1.0000 0.23300  0.39400  0.83600  Biso   1.000  H
  H151     1.0000 0.73300  0.10600  0.83600  Biso   1.000  H
  H152     1.0000 0.76700  0.60600  0.16400  Biso   1.000  H
  H153     1.0000 0.34000  0.94300  0.16200  Biso   1.000  H
  H154     1.0000 0.16000  0.44300  0.83800  Biso   1.000  H
  H155     1.0000 0.66000  0.05700  0.83800  Biso   1.000  H
  H156     1.0000 0.84000  0.55700  0.16200  Biso   1.000  H
  H157     1.0000 0.36600  0.01000  0.12500  Biso   1.000  H
  H158     1.0000 0.13400  0.51000  0.87500  Biso   1.000  H
  H159     1.0000 0.63400  0.99000  0.87500  Biso   1.000  H
  H160     1.0000 0.86600  0.49000  0.12500  Biso   1.000  H
  H161     1.0000 0.02300  0.04700  0.11400  Biso   1.000  H
  H162     1.0000 0.47700  0.54700  0.88600  Biso   1.000  H
  H163     1.0000 0.97700  0.95300  0.88600  Biso   1.000  H
  H164     1.0000 0.52300  0.45300  0.11400  Biso   1.000  H
  H165     1.0000 0.98300  0.11400  0.10300  Biso   1.000  H
  H166     1.0000 0.51700  0.61400  0.89700  Biso   1.000  H
  H167     1.0000 0.01700  0.88600  0.89700  Biso   1.000  H
  H168     1.0000 0.48300  0.38600  0.10300  Biso   1.000  H
  H169     1.0000 0.11000  0.16900  0.28100  Biso   1.000  H
  H170     1.0000 0.39000  0.66900  0.71900  Biso   1.000  H
  H171     1.0000 0.89000  0.83100  0.71900  Biso   1.000  H
  H172     1.0000 0.61000  0.33100  0.28100  Biso   1.000  H
  H173     1.0000 0.15200  0.10600  0.26500  Biso   1.000  H
  H174     1.0000 0.34800  0.60600  0.73500  Biso   1.000  H
  H175     1.0000 0.84800  0.89400  0.73500  Biso   1.000  H
  H176     1.0000 0.65200  0.39400  0.26500  Biso   1.000  H
  H177     1.0000 0.06600  0.22500  0.22600  Biso   1.000  H
  H178     1.0000 0.43400  0.72500  0.77400  Biso   1.000  H
  H179     1.0000 0.93400  0.77500  0.77400  Biso   1.000  H
  H180     1.0000 0.56600  0.27500  0.22600  Biso   1.000  H
  H181     1.0000 0.00700  0.24500  0.20800  Biso   1.000  H
  H182     1.0000 0.49300  0.74500  0.79200  Biso   1.000  H
  H183     1.0000 0.99300  0.75500  0.79200  Biso   1.000  H
  H184     1.0000 0.50700  0.25500  0.20800  Biso   1.000  H
  H185     1.0000 0.39000  0.07500  0.19100  Biso   1.000  H
  H186     1.0000 0.11000  0.57500  0.80900  Biso   1.000  H
  H187     1.0000 0.61000  0.92500  0.80900  Biso   1.000  H
  H188     1.0000 0.89000  0.42500  0.19100  Biso   1.000  H
  H189     1.0000 0.42000  0.14800  0.18300  Biso   1.000  H
  H190     1.0000 0.08000  0.64800  0.81700  Biso   1.000  H
  H191     1.0000 0.58000  0.85200  0.81700  Biso   1.000  H
  H192     1.0000 0.92000  0.35200  0.18300  Biso   1.000  H
  H193     1.0000 0.28100  0.18400  0.02200  Biso   1.000  H
  H194     1.0000 0.21900  0.68400  0.97800  Biso   1.000  H
  H195     1.0000 0.71900  0.81600  0.97800  Biso   1.000  H
  H196     1.0000 0.78100  0.31600  0.02200  Biso   1.000  H
  H197     1.0000 0.25300  0.10900  0.02900  Biso   1.000  H
  H198     1.0000 0.24700  0.60900  0.97100  Biso   1.000  H
  H199     1.0000 0.74700  0.89100  0.97100  Biso   1.000  H
  H200     1.0000 0.75300  0.39100  0.02900  Biso   1.000  H
  H201     1.0000 0.44200  0.20300  0.13100  Biso   1.000  H
  H202     1.0000 0.05800  0.70300  0.86900  Biso   1.000  H
  H203     1.0000 0.55800  0.79700  0.86900  Biso   1.000  H
  H204     1.0000 0.94200  0.29700  0.13100  Biso   1.000  H
  H205     1.0000 0.42100  0.25600  0.11000  Biso   1.000  H
  H206     1.0000 0.07900  0.75600  0.89000  Biso   1.000  H
  H207     1.0000 0.57900  0.74400  0.89000  Biso   1.000  H
  H208     1.0000 0.92100  0.24400  0.11000  Biso   1.000  H
  H209     1.0000 0.11800  0.01100  0.70200  Biso   1.000  H
  H210     1.0000 0.38200  0.51100  0.29800  Biso   1.000  H
  H211     1.0000 0.88200  0.98900  0.29800  Biso   1.000  H
  H212     1.0000 0.61800  0.48900  0.70200  Biso   1.000  H
  H213     1.0000 0.15800  0.94800  0.68700  Biso   1.000  H
  H214     1.0000 0.34200  0.44800  0.31300  Biso   1.000  H
  H215     1.0000 0.84200  0.05200  0.31300  Biso   1.000  H
  H216     1.0000 0.65800  0.55200  0.68700  Biso   1.000  H
  H217     1.0000 0.23100  0.90800  0.66000  Biso   1.000  H
  H218     1.0000 0.26900  0.40800  0.34000  Biso   1.000  H
  H219     1.0000 0.76900  0.09200  0.34000  Biso   1.000  H
  H220     1.0000 0.73100  0.59200  0.66000  Biso   1.000  H
  H221     1.0000 0.31800  0.91100  0.67100  Biso   1.000  H
  H222     1.0000 0.18200  0.41100  0.32900  Biso   1.000  H
  H223     1.0000 0.68200  0.08900  0.32900  Biso   1.000  H
  H224     1.0000 0.81800  0.58900  0.67100  Biso   1.000  H
  H225     1.0000 0.39500  0.95700  0.66200  Biso   1.000  H
  H226     1.0000 0.10500  0.45700  0.33800  Biso   1.000  H
  H227     1.0000 0.60500  0.04300  0.33800  Biso   1.000  H
  H228     1.0000 0.89500  0.54300  0.66200  Biso   1.000  H
  H229     1.0000 0.42800  0.02600  0.66400  Biso   1.000  H
  H230     1.0000 0.07200  0.52600  0.33600  Biso   1.000  H
  H231     1.0000 0.57200  0.97400  0.33600  Biso   1.000  H
  H232     1.0000 0.92800  0.47400  0.66400  Biso   1.000  H
  H233     1.0000 0.08200  0.07300  0.65600  Biso   1.000  H
  H234     1.0000 0.41800  0.57300  0.34400  Biso   1.000  H
  H235     1.0000 0.91800  0.92700  0.34400  Biso   1.000  H
  H236     1.0000 0.58200  0.42700  0.65600  Biso   1.000  H
  H237     1.0000 0.04600  0.14000  0.65900  Biso   1.000  H
  H238     1.0000 0.45400  0.64000  0.34100  Biso   1.000  H
  H239     1.0000 0.95400  0.86000  0.34100  Biso   1.000  H
  H240     1.0000 0.54600  0.36000  0.65900  Biso   1.000  H
  H241     1.0000 0.18200  0.19300  0.79200  Biso   1.000  H
  H242     1.0000 0.31800  0.69300  0.20800  Biso   1.000  H
  H243     1.0000 0.81800  0.80700  0.20800  Biso   1.000  H
  H244     1.0000 0.68200  0.30700  0.79200  Biso   1.000  H
  H245     1.0000 0.21800  0.12500  0.80700  Biso   1.000  H
  H246     1.0000 0.28200  0.62500  0.19300  Biso   1.000  H
  H247     1.0000 0.78200  0.87500  0.19300  Biso   1.000  H
  H248     1.0000 0.71800  0.37500  0.80700  Biso   1.000  H
  H249     1.0000 0.03400  0.25300  0.70100  Biso   1.000  H
  H250     1.0000 0.46600  0.75300  0.29900  Biso   1.000  H
  H251     1.0000 0.96600  0.74700  0.29900  Biso   1.000  H
  H252     1.0000 0.53400  0.24700  0.70100  Biso   1.000  H
  H253     1.0000 0.02000  0.19800  0.70000  Biso   1.000  H
  H254     1.0000 0.48000  0.69800  0.30000  Biso   1.000  H
  H255     1.0000 0.98000  0.80200  0.30000  Biso   1.000  H
  H256     1.0000 0.52000  0.30200  0.70000  Biso   1.000  H
  H257     1.0000 0.45000  0.09400  0.75800  Biso   1.000  H
  H258     1.0000 0.05000  0.59400  0.24200  Biso   1.000  H
  H259     1.0000 0.55000  0.90600  0.24200  Biso   1.000  H
  H260     1.0000 0.95000  0.40600  0.75800  Biso   1.000  H
  H261     1.0000 0.48100  0.16400  0.74400  Biso   1.000  H
  H262     1.0000 0.01900  0.66400  0.25600  Biso   1.000  H
  H263     1.0000 0.51900  0.83600  0.25600  Biso   1.000  H
  H264     1.0000 0.98100  0.33600  0.74400  Biso   1.000  H
  H265     1.0000 0.35200  0.19500  0.52500  Biso   1.000  H
  H266     1.0000 0.14800  0.69500  0.47500  Biso   1.000  H
  H267     1.0000 0.64800  0.80500  0.47500  Biso   1.000  H
  H268     1.0000 0.85200  0.30500  0.52500  Biso   1.000  H
  H269     1.0000 0.32200  0.12300  0.54000  Biso   1.000  H
  H270     1.0000 0.17800  0.62300  0.46000  Biso   1.000  H
  H271     1.0000 0.67800  0.87700  0.46000  Biso   1.000  H
  H272     1.0000 0.82200  0.37700  0.54000  Biso   1.000  H
  H273     1.0000 0.37800  0.25300  0.57900  Biso   1.000  H
  H274     1.0000 0.12200  0.75300  0.42100  Biso   1.000  H
  H275     1.0000 0.62200  0.74700  0.42100  Biso   1.000  H
  H276     1.0000 0.87800  0.24700  0.57900  Biso   1.000  H
  H277     1.0000 0.43000  0.28600  0.59300  Biso   1.000  H
  H278     1.0000 0.07000  0.78600  0.40700  Biso   1.000  H
  H279     1.0000 0.57000  0.71400  0.40700  Biso   1.000  H
  H280     1.0000 0.93000  0.21400  0.59300  Biso   1.000  H
  H281     1.0000 0.42400  0.12300  0.97200  Biso   1.000  H
  H282     1.0000 0.07600  0.62300  0.02800  Biso   1.000  H
  H283     1.0000 0.57600  0.87700  0.02800  Biso   1.000  H
  H284     1.0000 0.92400  0.37700  0.97200  Biso   1.000  H
  H285     1.0000 0.43300  0.19700  0.94100  Biso   1.000  H
  H286     1.0000 0.06700  0.69700  0.05900  Biso   1.000  H
  H287     1.0000 0.56700  0.80300  0.05900  Biso   1.000  H
  H288     1.0000 0.93300  0.30300  0.94100  Biso   1.000  H
  H289     1.0000 0.39700  0.26600  0.83600  Biso   1.000  H
  H290     1.0000 0.10300  0.76600  0.16400  Biso   1.000  H
  H291     1.0000 0.60300  0.73400  0.16400  Biso   1.000  H
  H292     1.0000 0.89700  0.23400  0.83600  Biso   1.000  H
  H293     1.0000 0.34100  0.29600  0.72500  Biso   1.000  H
  H294     1.0000 0.15900  0.79600  0.27500  Biso   1.000  H
  H295     1.0000 0.65900  0.70400  0.27500  Biso   1.000  H
  H296     1.0000 0.84100  0.20400  0.72500  Biso   1.000  H
  H297     1.0000 0.26200  0.28600  0.60200  Biso   1.000  H
  H298     1.0000 0.23800  0.78600  0.39800  Biso   1.000  H
  H299     1.0000 0.73800  0.71400  0.39800  Biso   1.000  H
  H300     1.0000 0.76200  0.21400  0.60200  Biso   1.000  H
  H301     1.0000 0.20100  0.24000  0.50600  Biso   1.000  H
  H302     1.0000 0.29900  0.74000  0.49400  Biso   1.000  H
  H303     1.0000 0.79900  0.76000  0.49400  Biso   1.000  H
  H304     1.0000 0.70100  0.26000  0.50600  Biso   1.000  H
  H305     1.0000 0.27200  0.08100  0.88900  Biso   1.000  H
  H306     1.0000 0.22800  0.58100  0.11100  Biso   1.000  H
  H307     1.0000 0.72800  0.91900  0.11100  Biso   1.000  H
  H308     1.0000 0.77200  0.41900  0.88900  Biso   1.000  H
  H309     1.0000 0.25500  0.00700  0.90800  Biso   1.000  H
  H310     1.0000 0.24500  0.50700  0.09200  Biso   1.000  H
  H311     1.0000 0.74500  0.99300  0.09200  Biso   1.000  H
  H312     1.0000 0.75500  0.49300  0.90800  Biso   1.000  H
  H313     1.0000 0.40300  0.97600  0.92600  Biso   1.000  H
  H314     1.0000 0.09700  0.47600  0.07400  Biso   1.000  H
  H315     1.0000 0.59700  0.02400  0.07400  Biso   1.000  H
  H316     1.0000 0.90300  0.52400  0.92600  Biso   1.000  H
  H317     1.0000 0.41800  0.05000  0.91300  Biso   1.000  H
  H318     1.0000 0.08200  0.55000  0.08700  Biso   1.000  H
  H319     1.0000 0.58200  0.95000  0.08700  Biso   1.000  H
  H320     1.0000 0.91800  0.45000  0.91300  Biso   1.000  H
  H321     1.0000 0.35500  0.90900  0.86700  Biso   1.000  H
  H322     1.0000 0.14500  0.40900  0.13300  Biso   1.000  H
  H323     1.0000 0.64500  0.09100  0.13300  Biso   1.000  H
  H324     1.0000 0.85500  0.59100  0.86700  Biso   1.000  H
  H325     1.0000 0.37700  0.91500  0.98600  Biso   1.000  H
  H326     1.0000 0.12300  0.41500  0.01400  Biso   1.000  H
  H327     1.0000 0.62300  0.08500  0.01400  Biso   1.000  H
  H328     1.0000 0.87700  0.58500  0.98600  Biso   1.000  H
  H329     1.0000 0.34900  0.84500  0.96400  Biso   1.000  H
  H330     1.0000 0.15100  0.34500  0.03600  Biso   1.000  H
  H331     1.0000 0.65100  0.15500  0.03600  Biso   1.000  H
  H332     1.0000 0.84900  0.65500  0.96400  Biso   1.000  H
  H333     1.0000 0.30300  0.87400  0.00000  Biso   1.000  H
  H334     1.0000 0.19700  0.37400  0.00000  Biso   1.000  H
  H335     1.0000 0.69700  0.12600  0.00000  Biso   1.000  H
  H336     1.0000 0.80300  0.62600  0.00000  Biso   1.000  H
  H337     1.0000 0.23000  0.87900  0.91600  Biso   1.000  H
  H338     1.0000 0.27000  0.37900  0.08400  Biso   1.000  H
  H339     1.0000 0.77000  0.12100  0.08400  Biso   1.000  H
  H340     1.0000 0.73000  0.62100  0.91600  Biso   1.000  H
  H341     1.0000 0.24200  0.90700  0.82100  Biso   1.000  H
  H342     1.0000 0.25800  0.40700  0.17900  Biso   1.000  H
  H343     1.0000 0.75800  0.09300  0.17900  Biso   1.000  H
  H344     1.0000 0.74200  0.59300  0.82100  Biso   1.000  H
  H345     1.0000 0.19600  0.82000  0.82300  Biso   1.000  H
  H346     1.0000 0.30400  0.32000  0.17700  Biso   1.000  H
  H347     1.0000 0.80400  0.18000  0.17700  Biso   1.000  H
  H348     1.0000 0.69600  0.68000  0.82300  Biso   1.000  H
  H349     1.0000 0.21800  0.83800  0.73000  Biso   1.000  H
  H350     1.0000 0.28200  0.33800  0.27000  Biso   1.000  H
  H351     1.0000 0.78200  0.16200  0.27000  Biso   1.000  H
  H352     1.0000 0.71800  0.66200  0.73000  Biso   1.000  H
  H353     1.0000 0.12700  0.83100  0.65700  Biso   1.000  H
  H354     1.0000 0.37300  0.33100  0.34300  Biso   1.000  H
  H355     1.0000 0.87300  0.16900  0.34300  Biso   1.000  H
  H356     1.0000 0.62700  0.66900  0.65700  Biso   1.000  H
  H357     1.0000 0.11700  0.82300  0.76600  Biso   1.000  H
  H358     1.0000 0.38300  0.32300  0.23400  Biso   1.000  H
  H359     1.0000 0.88300  0.17700  0.23400  Biso   1.000  H
  H360     1.0000 0.61700  0.67700  0.76600  Biso   1.000  H
  H361     1.0000 0.07400  0.89500  0.74800  Biso   1.000  H
  H362     1.0000 0.42600  0.39500  0.25200  Biso   1.000  H
  H363     1.0000 0.92600  0.10500  0.25200  Biso   1.000  H
  H364     1.0000 0.57400  0.60500  0.74800  Biso   1.000  H
  H365     1.0000 0.04400  0.85300  0.68000  Biso   1.000  H
  H366     1.0000 0.45600  0.35300  0.32000  Biso   1.000  H
  H367     1.0000 0.95600  0.14700  0.32000  Biso   1.000  H
  H368     1.0000 0.54400  0.64700  0.68000  Biso   1.000  H
  H369     1.0000 0.00500  0.89800  0.58100  Biso   1.000  H
  H370     1.0000 0.49500  0.39800  0.41900  Biso   1.000  H
  H371     1.0000 0.99500  0.10200  0.41900  Biso   1.000  H
  H372     1.0000 0.50500  0.60200  0.58100  Biso   1.000  H
  H373     1.0000 0.03500  0.94500  0.63200  Biso   1.000  H
  H374     1.0000 0.46500  0.44500  0.36800  Biso   1.000  H
  H375     1.0000 0.96500  0.05500  0.36800  Biso   1.000  H
  H376     1.0000 0.53500  0.55500  0.63200  Biso   1.000  H
  H377     1.0000 0.99100  0.95200  0.47400  Biso   1.000  H
  H378     1.0000 0.50900  0.45200  0.52600  Biso   1.000  H
  H379     1.0000 0.00900  0.04800  0.52600  Biso   1.000  H
  H380     1.0000 0.49100  0.54800  0.47400  Biso   1.000  H
  H381     1.0000 0.00100  0.91500  0.44400  Biso   1.000  H
  H382     1.0000 0.49900  0.41500  0.55600  Biso   1.000  H
  H383     1.0000 0.99900  0.08500  0.55600  Biso   1.000  H
  H384     1.0000 0.50100  0.58500  0.44400  Biso   1.000  H
  H385     1.0000 0.07500  0.95400  0.37400  Biso   1.000  H
  H386     1.0000 0.42500  0.45400  0.62600  Biso   1.000  H
  H387     1.0000 0.92500  0.04600  0.62600  Biso   1.000  H
  H388     1.0000 0.57500  0.54600  0.37400  Biso   1.000  H
  H389     1.0000 0.03300  0.99600  0.36800  Biso   1.000  H
  H390     1.0000 0.46700  0.49600  0.63200  Biso   1.000  H
  H391     1.0000 0.96700  0.00400  0.63200  Biso   1.000  H
  H392     1.0000 0.53300  0.50400  0.36800  Biso   1.000  H
  H393     1.0000 0.11900  0.01600  0.35500  Biso   1.000  H
  H394     1.0000 0.38100  0.51600  0.64500  Biso   1.000  H
  H395     1.0000 0.88100  0.98400  0.64500  Biso   1.000  H
  H396     1.0000 0.61900  0.48400  0.35500  Biso   1.000  H
  H397     1.0000 0.13800  0.00500  0.47200  Biso   1.000  H
  H398     1.0000 0.36200  0.50500  0.52800  Biso   1.000  H
  H399     1.0000 0.86200  0.99500  0.52800  Biso   1.000  H
  H400     1.0000 0.63800  0.49500  0.47200  Biso   1.000  H
  H401     1.0000 0.07300  0.13300  0.46400  Biso   1.000  H
  H402     1.0000 0.42700  0.63300  0.53600  Biso   1.000  H
  H403     1.0000 0.92700  0.86700  0.53600  Biso   1.000  H
  H404     1.0000 0.57300  0.36700  0.46400  Biso   1.000  H
  H405     1.0000 0.13100  0.19100  0.52200  Biso   1.000  H
  H406     1.0000 0.36900  0.69100  0.47800  Biso   1.000  H
  H407     1.0000 0.86900  0.80900  0.47800  Biso   1.000  H
  H408     1.0000 0.63100  0.30900  0.52200  Biso   1.000  H
  H409     1.0000 0.24700  0.10100  0.52700  Biso   1.000  H
  H410     1.0000 0.25300  0.60100  0.47300  Biso   1.000  H
  H411     1.0000 0.75300  0.89900  0.47300  Biso   1.000  H
  H412     1.0000 0.74700  0.39900  0.52700  Biso   1.000  H
  H413     1.0000 0.18900  0.04700  0.46000  Biso   1.000  H
  H414     1.0000 0.31100  0.54700  0.54000  Biso   1.000  H
  H415     1.0000 0.81100  0.95300  0.54000  Biso   1.000  H
  H416     1.0000 0.68900  0.45300  0.46000  Biso   1.000  H
  Cl1      1.0000 0.17720  0.84110  0.50420  Biso   1.000  Cl
  Cl2      1.0000 0.32280  0.34110  0.49580  Biso   1.000  Cl
  Cl3      1.0000 0.82280  0.15890  0.49580  Biso   1.000  Cl
  Cl4      1.0000 0.67720  0.65890  0.50420  Biso   1.000  Cl
  Cl5      1.0000 0.18510  0.92220  0.42220  Biso   1.000  Cl
  Cl6      1.0000 0.31490  0.42220  0.57780  Biso   1.000  Cl
  Cl7      1.0000 0.81490  0.07780  0.57780  Biso   1.000  Cl
  Cl8      1.0000 0.68510  0.57780  0.42220  Biso   1.000  Cl
  C513     1.0000 0.14630  0.88700  0.47040  Biso   1.000  C
  C514     1.0000 0.35370  0.38700  0.52960  Biso   1.000  C
  C515     1.0000 0.85370  0.11300  0.52960  Biso   1.000  C
  C516     1.0000 0.64630  0.61300  0.47040  Biso   1.000  C
  H417     1.0000 0.11300  0.88000  0.42000  Biso   1.000  H
  H418     1.0000 0.38700  0.38000  0.58000  Biso   1.000  H
  H419     1.0000 0.88700  0.12000  0.58000  Biso   1.000  H
  H420     1.0000 0.61300  0.62000  0.42000  Biso   1.000  H
  H421     1.0000 0.13800  0.90200  0.52900  Biso   1.000  H
  H422     1.0000 0.36200  0.40200  0.47100  Biso   1.000  H
  H423     1.0000 0.86200  0.09800  0.47100  Biso   1.000  H
  H424     1.0000 0.63800  0.59800  0.52900  Biso   1.000  H
  F1       1.0000 0.90510  0.14800  0.78350  Biso   1.000  F
  F2       1.0000 0.59490  0.64800  0.21650  Biso   1.000  F
  F3       1.0000 0.09490  0.85200  0.21650  Biso   1.000  F
  F4       1.0000 0.40510  0.35200  0.78350  Biso   1.000  F
  F5       1.0000 0.96680  0.10530  0.79650  Biso   1.000  F
  F6       1.0000 0.53320  0.60530  0.20350  Biso   1.000  F
  F7       1.0000 0.03320  0.89470  0.20350  Biso   1.000  F
  F8       1.0000 0.46680  0.39470  0.79650  Biso   1.000  F
  F9       1.0000 0.95670  0.14500  0.68360  Biso   1.000  F
  F10      1.0000 0.54330  0.64500  0.31640  Biso   1.000  F
  F11      1.0000 0.04330  0.85500  0.31640  Biso   1.000  F
  F12      1.0000 0.45670  0.35500  0.68360  Biso   1.000  F
  F13      1.0000 0.97710  0.17790  0.81450  Biso   1.000  F
  F14      1.0000 0.52290  0.67790  0.18550  Biso   1.000  F
  F15      1.0000 0.02290  0.82210  0.18550  Biso   1.000  F
  F16      1.0000 0.47710  0.32210  0.81450  Biso   1.000  F
  B1       1.0000 0.95800  0.14100  0.77030  Biso   1.000  B
  B2       1.0000 0.54200  0.64100  0.22970  Biso   1.000  B
  B3       1.0000 0.04200  0.85900  0.22970  Biso   1.000  B
  B4       1.0000 0.45800  0.35900  0.77030  Biso   1.000  B
  C517     1.0000 0.54410  0.01160  0.74430  Biso   1.000  C
  C518     1.0000 0.95590  0.51160  0.25570  Biso   1.000  C
  C519     1.0000 0.45590  0.98840  0.25570  Biso   1.000  C
  C520     1.0000 0.04410  0.48840  0.74430  Biso   1.000  C
  C521     1.0000 0.55410  0.05440  0.76530  Biso   1.000  C
  C522     1.0000 0.94590  0.55440  0.23470  Biso   1.000  C
  C523     1.0000 0.44590  0.94560  0.23470  Biso   1.000  C
  C524     1.0000 0.05410  0.44560  0.76530  Biso   1.000  C
  C525     1.0000 0.54300  0.07260  0.84200  Biso   1.000  C
  C526     1.0000 0.95700  0.57260  0.15800  Biso   1.000  C
  C527     1.0000 0.45700  0.92740  0.15800  Biso   1.000  C
  C528     1.0000 0.04300  0.42740  0.84200  Biso   1.000  C
  C529     1.0000 0.52160  0.04750  0.89820  Biso   1.000  C
  C530     1.0000 0.97840  0.54750  0.10180  Biso   1.000  C
  C531     1.0000 0.47840  0.95250  0.10180  Biso   1.000  C
  C532     1.0000 0.02160  0.45250  0.89820  Biso   1.000  C
  C533     1.0000 0.51150  0.00440  0.87720  Biso   1.000  C
  C534     1.0000 0.98850  0.50440  0.12280  Biso   1.000  C
  C535     1.0000 0.48850  0.99560  0.12280  Biso   1.000  C
  C536     1.0000 0.01150  0.49560  0.87720  Biso   1.000  C
  C537     1.0000 0.52270  0.98650  0.80050  Biso   1.000  C
  C538     1.0000 0.97730  0.48650  0.19950  Biso   1.000  C
  C539     1.0000 0.47730  0.01350  0.19950  Biso   1.000  C
  C540     1.0000 0.02270  0.51350  0.80050  Biso   1.000  C
  C541     1.0000 0.47880  0.13810  0.46160  Biso   1.000  C
  C542     1.0000 0.02120  0.63810  0.53840  Biso   1.000  C
  C543     1.0000 0.52120  0.86190  0.53840  Biso   1.000  C
  C544     1.0000 0.97880  0.36190  0.46160  Biso   1.000  C
  C545     1.0000 0.49350  0.13510  0.38010  Biso   1.000  C
  C546     1.0000 0.00650  0.63510  0.61990  Biso   1.000  C
  C547     1.0000 0.50650  0.86490  0.61990  Biso   1.000  C
  C548     1.0000 0.99350  0.36490  0.38010  Biso   1.000  C
  C549     1.0000 0.51430  0.09730  0.35820  Biso   1.000  C
  C550     1.0000 0.98570  0.59730  0.64180  Biso   1.000  C
  C551     1.0000 0.48570  0.90270  0.64180  Biso   1.000  C
  C552     1.0000 0.01430  0.40270  0.35820  Biso   1.000  C
  C553     1.0000 0.52050  0.06260  0.41780  Biso   1.000  C
  C554     1.0000 0.97950  0.56260  0.58220  Biso   1.000  C
  C555     1.0000 0.47950  0.93740  0.58220  Biso   1.000  C
  C556     1.0000 0.02050  0.43740  0.41780  Biso   1.000  C
  C557     1.0000 0.50580  0.06560  0.49940  Biso   1.000  C
  C558     1.0000 0.99420  0.56560  0.50060  Biso   1.000  C
  C559     1.0000 0.49420  0.93440  0.50060  Biso   1.000  C
  C560     1.0000 0.00580  0.43440  0.49940  Biso   1.000  C
  C561     1.0000 0.48500  0.10340  0.52120  Biso   1.000  C
  C562     1.0000 0.01500  0.60340  0.47880  Biso   1.000  C
  C563     1.0000 0.51500  0.89660  0.47880  Biso   1.000  C
  C564     1.0000 0.98500  0.39660  0.52120  Biso   1.000  C
  H425     1.0000 0.46300  0.16700  0.47900  Biso   1.000  H
  H426     1.0000 0.03700  0.66700  0.52100  Biso   1.000  H
  H427     1.0000 0.53700  0.83300  0.52100  Biso   1.000  H
  H428     1.0000 0.96300  0.33300  0.47900  Biso   1.000  H
  H429     1.0000 0.48900  0.16200  0.33400  Biso   1.000  H
  H430     1.0000 0.01100  0.66200  0.66600  Biso   1.000  H
  H431     1.0000 0.51100  0.83800  0.66600  Biso   1.000  H
  H432     1.0000 0.98900  0.33800  0.33400  Biso   1.000  H
  H433     1.0000 0.52600  0.09500  0.29500  Biso   1.000  H
  H434     1.0000 0.97400  0.59500  0.70500  Biso   1.000  H
  H435     1.0000 0.47400  0.90500  0.70500  Biso   1.000  H
  H436     1.0000 0.02600  0.40500  0.29500  Biso   1.000  H
  H437     1.0000 0.53700  0.03300  0.40100  Biso   1.000  H
  H438     1.0000 0.96300  0.53300  0.59900  Biso   1.000  H
  H439     1.0000 0.46300  0.96700  0.59900  Biso   1.000  H
  H440     1.0000 0.03700  0.46700  0.40100  Biso   1.000  H
  H441     1.0000 0.51100  0.03900  0.54600  Biso   1.000  H
  H442     1.0000 0.98900  0.53900  0.45400  Biso   1.000  H
  H443     1.0000 0.48900  0.96100  0.45400  Biso   1.000  H
  H444     1.0000 0.01100  0.46100  0.54600  Biso   1.000  H
  H445     1.0000 0.47400  0.10600  0.58400  Biso   1.000  H
  H446     1.0000 0.02600  0.60600  0.41600  Biso   1.000  H
  H447     1.0000 0.52600  0.89400  0.41600  Biso   1.000  H
  H448     1.0000 0.97400  0.39400  0.58400  Biso   1.000  H
