data_image0
_cell_length_a       38.012
_cell_length_b       38.012
_cell_length_c       15.523
_cell_angle_alpha    90
_cell_angle_beta     90
_cell_angle_gamma    120

_symmetry_space_group_name_H-M    "P 1"
_symmetry_int_tables_number       1

loop_
  _symmetry_equiv_pos_as_xyz
  'x, y, z'

loop_
  _atom_site_label
  _atom_site_occupancy
  _atom_site_fract_x
  _atom_site_fract_y
  _atom_site_fract_z
  _atom_site_thermal_displace_type
  _atom_site_B_iso_or_equiv
  _atom_site_type_symbol
  Cu1      1.0000 0.24725  0.00767  0.60735  Biso   1.000  Cu
  Cu2      1.0000 0.99233  0.23958  0.60735  Biso   1.000  Cu
  Cu3      1.0000 0.76042  0.75275  0.60735  Biso   1.000  Cu
  Cu4      1.0000 0.91391  0.34100  0.94068  Biso   1.000  Cu
  Cu5      1.0000 0.65900  0.57291  0.94068  Biso   1.000  Cu
  Cu6      1.0000 0.42709  0.08609  0.94068  Biso   1.000  Cu
  Cu7      1.0000 0.58058  0.67433  0.27402  Biso   1.000  Cu
  Cu8      1.0000 0.32567  0.90624  0.27402  Biso   1.000  Cu
  Cu9      1.0000 0.09376  0.41942  0.27402  Biso   1.000  Cu
  Cu10     1.0000 0.75275  0.99233  0.39265  Biso   1.000  Cu
  Cu11     1.0000 0.00767  0.76042  0.39265  Biso   1.000  Cu
  Cu12     1.0000 0.23958  0.24725  0.39265  Biso   1.000  Cu
  Cu13     1.0000 0.41942  0.32567  0.72598  Biso   1.000  Cu
  Cu14     1.0000 0.67433  0.09376  0.72598  Biso   1.000  Cu
  Cu15     1.0000 0.90624  0.58058  0.72598  Biso   1.000  Cu
  Cu16     1.0000 0.08609  0.65900  0.05932  Biso   1.000  Cu
  Cu17     1.0000 0.34100  0.42709  0.05932  Biso   1.000  Cu
  Cu18     1.0000 0.57291  0.91391  0.05932  Biso   1.000  Cu
  O1       1.0000 0.21152  0.99129  0.49203  Biso   1.000  O
  O2       1.0000 0.00871  0.22023  0.49203  Biso   1.000  O
  O3       1.0000 0.77977  0.78848  0.49203  Biso   1.000  O
  O4       1.0000 0.87819  0.32462  0.82536  Biso   1.000  O
  O5       1.0000 0.67538  0.55356  0.82536  Biso   1.000  O
  O6       1.0000 0.44644  0.12181  0.82536  Biso   1.000  O
  O7       1.0000 0.54485  0.65796  0.15870  Biso   1.000  O
  O8       1.0000 0.34204  0.88690  0.15870  Biso   1.000  O
  O9       1.0000 0.11310  0.45515  0.15870  Biso   1.000  O
  O10      1.0000 0.78848  0.00871  0.50797  Biso   1.000  O
  O11      1.0000 0.99129  0.77977  0.50797  Biso   1.000  O
  O12      1.0000 0.22023  0.21152  0.50797  Biso   1.000  O
  O13      1.0000 0.45515  0.34204  0.84130  Biso   1.000  O
  O14      1.0000 0.65796  0.11310  0.84130  Biso   1.000  O
  O15      1.0000 0.88690  0.54485  0.84130  Biso   1.000  O
  O16      1.0000 0.12181  0.67538  0.17464  Biso   1.000  O
  O17      1.0000 0.32462  0.44644  0.17464  Biso   1.000  O
  O18      1.0000 0.55356  0.87819  0.17464  Biso   1.000  O
  H1       1.0000 0.21280  0.00030  0.43330  Biso   1.000  H
  H2       1.0000 0.99970  0.21250  0.43330  Biso   1.000  H
  H3       1.0000 0.78750  0.78720  0.43330  Biso   1.000  H
  H4       1.0000 0.87947  0.33363  0.76663  Biso   1.000  H
  H5       1.0000 0.66637  0.54583  0.76663  Biso   1.000  H
  H6       1.0000 0.45417  0.12053  0.76663  Biso   1.000  H
  H7       1.0000 0.54613  0.66697  0.09997  Biso   1.000  H
  H8       1.0000 0.33303  0.87917  0.09997  Biso   1.000  H
  H9       1.0000 0.12083  0.45387  0.09997  Biso   1.000  H
  H10      1.0000 0.78720  0.99970  0.56670  Biso   1.000  H
  H11      1.0000 0.00030  0.78750  0.56670  Biso   1.000  H
  H12      1.0000 0.21250  0.21280  0.56670  Biso   1.000  H
  H13      1.0000 0.45387  0.33303  0.90003  Biso   1.000  H
  H14      1.0000 0.66697  0.12083  0.90003  Biso   1.000  H
  H15      1.0000 0.87917  0.54613  0.90003  Biso   1.000  H
  H16      1.0000 0.12053  0.66637  0.23337  Biso   1.000  H
  H17      1.0000 0.33363  0.45417  0.23337  Biso   1.000  H
  H18      1.0000 0.54583  0.87947  0.23337  Biso   1.000  H
  H19      1.0000 0.18490  0.98000  0.51680  Biso   1.000  H
  H20      1.0000 0.02000  0.20490  0.51680  Biso   1.000  H
  H21      1.0000 0.79510  0.81510  0.51680  Biso   1.000  H
  H22      1.0000 0.85157  0.31333  0.85013  Biso   1.000  H
  H23      1.0000 0.68667  0.53823  0.85013  Biso   1.000  H
  H24      1.0000 0.46177  0.14843  0.85013  Biso   1.000  H
  H25      1.0000 0.51823  0.64667  0.18347  Biso   1.000  H
  H26      1.0000 0.35333  0.87157  0.18347  Biso   1.000  H
  H27      1.0000 0.12843  0.48177  0.18347  Biso   1.000  H
  H28      1.0000 0.81510  0.02000  0.48320  Biso   1.000  H
  H29      1.0000 0.98000  0.79510  0.48320  Biso   1.000  H
  H30      1.0000 0.20490  0.18490  0.48320  Biso   1.000  H
  H31      1.0000 0.48177  0.35333  0.81653  Biso   1.000  H
  H32      1.0000 0.64667  0.12843  0.81653  Biso   1.000  H
  H33      1.0000 0.87157  0.51823  0.81653  Biso   1.000  H
  H34      1.0000 0.14843  0.68667  0.14987  Biso   1.000  H
  H35      1.0000 0.31333  0.46177  0.14987  Biso   1.000  H
  H36      1.0000 0.53823  0.85157  0.14987  Biso   1.000  H
  C1       1.0000 0.16371  0.95313  0.73280  Biso   1.000  C
  C2       1.0000 0.04687  0.21058  0.73280  Biso   1.000  C
  C3       1.0000 0.78942  0.83629  0.73280  Biso   1.000  C
  C4       1.0000 0.83038  0.28646  0.06613  Biso   1.000  C
  C5       1.0000 0.71354  0.54391  0.06613  Biso   1.000  C
  C6       1.0000 0.45609  0.16962  0.06613  Biso   1.000  C
  C7       1.0000 0.49704  0.61980  0.39947  Biso   1.000  C
  C8       1.0000 0.38020  0.87725  0.39947  Biso   1.000  C
  C9       1.0000 0.12275  0.50296  0.39947  Biso   1.000  C
  C10      1.0000 0.83629  0.04687  0.26720  Biso   1.000  C
  C11      1.0000 0.95313  0.78942  0.26720  Biso   1.000  C
  C12      1.0000 0.21058  0.16371  0.26720  Biso   1.000  C
  C13      1.0000 0.50296  0.38020  0.60053  Biso   1.000  C
  C14      1.0000 0.61980  0.12275  0.60053  Biso   1.000  C
  C15      1.0000 0.87725  0.49704  0.60053  Biso   1.000  C
  C16      1.0000 0.16962  0.71354  0.93387  Biso   1.000  C
  C17      1.0000 0.28646  0.45609  0.93387  Biso   1.000  C
  C18      1.0000 0.54391  0.83038  0.93387  Biso   1.000  C
  H37      1.0000 0.15070  0.94190  0.78980  Biso   1.000  H
  H38      1.0000 0.05810  0.20880  0.78980  Biso   1.000  H
  H39      1.0000 0.79120  0.84930  0.78980  Biso   1.000  H
  H40      1.0000 0.81737  0.27523  0.12313  Biso   1.000  H
  H41      1.0000 0.72477  0.54213  0.12313  Biso   1.000  H
  H42      1.0000 0.45787  0.18263  0.12313  Biso   1.000  H
  H43      1.0000 0.48403  0.60857  0.45647  Biso   1.000  H
  H44      1.0000 0.39143  0.87547  0.45647  Biso   1.000  H
  H45      1.0000 0.12453  0.51597  0.45647  Biso   1.000  H
  H46      1.0000 0.84930  0.05810  0.21020  Biso   1.000  H
  H47      1.0000 0.94190  0.79120  0.21020  Biso   1.000  H
  H48      1.0000 0.20880  0.15070  0.21020  Biso   1.000  H
  H49      1.0000 0.51597  0.39143  0.54353  Biso   1.000  H
  H50      1.0000 0.60857  0.12453  0.54353  Biso   1.000  H
  H51      1.0000 0.87547  0.48403  0.54353  Biso   1.000  H
  H52      1.0000 0.18263  0.72477  0.87687  Biso   1.000  H
  H53      1.0000 0.27523  0.45787  0.87687  Biso   1.000  H
  H54      1.0000 0.54213  0.81737  0.87687  Biso   1.000  H
  N1       1.0000 0.18843  0.93480  0.71472  Biso   1.000  N
  N2       1.0000 0.06520  0.25363  0.71472  Biso   1.000  N
  N3       1.0000 0.74637  0.81157  0.71472  Biso   1.000  N
  N4       1.0000 0.85510  0.26813  0.04805  Biso   1.000  N
  N5       1.0000 0.73187  0.58696  0.04805  Biso   1.000  N
  N6       1.0000 0.41304  0.14490  0.04805  Biso   1.000  N
  N7       1.0000 0.52176  0.60147  0.38139  Biso   1.000  N
  N8       1.0000 0.39853  0.92030  0.38139  Biso   1.000  N
  N9       1.0000 0.07970  0.47824  0.38139  Biso   1.000  N
  N10      1.0000 0.81157  0.06520  0.28528  Biso   1.000  N
  N11      1.0000 0.93480  0.74637  0.28528  Biso   1.000  N
  N12      1.0000 0.25363  0.18843  0.28528  Biso   1.000  N
  N13      1.0000 0.47824  0.39853  0.61861  Biso   1.000  N
  N14      1.0000 0.60147  0.07970  0.61861  Biso   1.000  N
  N15      1.0000 0.92030  0.52176  0.61861  Biso   1.000  N
  N16      1.0000 0.14490  0.73187  0.95195  Biso   1.000  N
  N17      1.0000 0.26813  0.41304  0.95195  Biso   1.000  N
  N18      1.0000 0.58696  0.85510  0.95195  Biso   1.000  N
  N19      1.0000 0.21656  0.94724  0.64990  Biso   1.000  N
  N20      1.0000 0.05276  0.26932  0.64990  Biso   1.000  N
  N21      1.0000 0.73068  0.78344  0.64990  Biso   1.000  N
  N22      1.0000 0.88323  0.28057  0.98323  Biso   1.000  N
  N23      1.0000 0.71943  0.60265  0.98323  Biso   1.000  N
  N24      1.0000 0.39735  0.11677  0.98323  Biso   1.000  N
  N25      1.0000 0.54989  0.61391  0.31657  Biso   1.000  N
  N26      1.0000 0.38609  0.93599  0.31657  Biso   1.000  N
  N27      1.0000 0.06401  0.45011  0.31657  Biso   1.000  N
  N28      1.0000 0.78344  0.05276  0.35010  Biso   1.000  N
  N29      1.0000 0.94724  0.73068  0.35010  Biso   1.000  N
  N30      1.0000 0.26932  0.21656  0.35010  Biso   1.000  N
  N31      1.0000 0.45011  0.38609  0.68343  Biso   1.000  N
  N32      1.0000 0.61391  0.06401  0.68343  Biso   1.000  N
  N33      1.0000 0.93599  0.54989  0.68343  Biso   1.000  N
  N34      1.0000 0.11677  0.71943  0.01677  Biso   1.000  N
  N35      1.0000 0.28057  0.39735  0.01677  Biso   1.000  N
  N36      1.0000 0.60265  0.88323  0.01677  Biso   1.000  N
  C19      1.0000 0.18601  0.90295  0.75820  Biso   1.000  C
  C20      1.0000 0.09705  0.28306  0.75820  Biso   1.000  C
  C21      1.0000 0.71694  0.81399  0.75820  Biso   1.000  C
  C22      1.0000 0.85268  0.23628  0.09153  Biso   1.000  C
  C23      1.0000 0.76372  0.61639  0.09153  Biso   1.000  C
  C24      1.0000 0.38361  0.14732  0.09153  Biso   1.000  C
  C25      1.0000 0.51934  0.56962  0.42487  Biso   1.000  C
  C26      1.0000 0.43038  0.94973  0.42487  Biso   1.000  C
  C27      1.0000 0.05027  0.48066  0.42487  Biso   1.000  C
  C28      1.0000 0.81399  0.09705  0.24180  Biso   1.000  C
  C29      1.0000 0.90295  0.71694  0.24180  Biso   1.000  C
  C30      1.0000 0.28306  0.18601  0.24180  Biso   1.000  C
  C31      1.0000 0.48066  0.43038  0.57513  Biso   1.000  C
  C32      1.0000 0.56962  0.05027  0.57513  Biso   1.000  C
  C33      1.0000 0.94973  0.51934  0.57513  Biso   1.000  C
  C34      1.0000 0.14732  0.76372  0.90847  Biso   1.000  C
  C35      1.0000 0.23628  0.38361  0.90847  Biso   1.000  C
  C36      1.0000 0.61639  0.85268  0.90847  Biso   1.000  C
  H55      1.0000 0.16850  0.88940  0.80540  Biso   1.000  H
  H56      1.0000 0.11060  0.27910  0.80540  Biso   1.000  H
  H57      1.0000 0.72090  0.83150  0.80540  Biso   1.000  H
  H58      1.0000 0.83517  0.22273  0.13873  Biso   1.000  H
  H59      1.0000 0.77727  0.61243  0.13873  Biso   1.000  H
  H60      1.0000 0.38757  0.16483  0.13873  Biso   1.000  H
  H61      1.0000 0.50183  0.55607  0.47207  Biso   1.000  H
  H62      1.0000 0.44393  0.94577  0.47207  Biso   1.000  H
  H63      1.0000 0.05423  0.49817  0.47207  Biso   1.000  H
  H64      1.0000 0.83150  0.11060  0.19460  Biso   1.000  H
  H65      1.0000 0.88940  0.72090  0.19460  Biso   1.000  H
  H66      1.0000 0.27910  0.16850  0.19460  Biso   1.000  H
  H67      1.0000 0.49817  0.44393  0.52793  Biso   1.000  H
  H68      1.0000 0.55607  0.05423  0.52793  Biso   1.000  H
  H69      1.0000 0.94577  0.50183  0.52793  Biso   1.000  H
  H70      1.0000 0.16483  0.77727  0.86127  Biso   1.000  H
  H71      1.0000 0.22273  0.38757  0.86127  Biso   1.000  H
  H72      1.0000 0.61243  0.83517  0.86127  Biso   1.000  H
  C37      1.0000 0.21312  0.89363  0.72220  Biso   1.000  C
  C38      1.0000 0.10637  0.31949  0.72220  Biso   1.000  C
  C39      1.0000 0.68051  0.78688  0.72220  Biso   1.000  C
  C40      1.0000 0.87979  0.22696  0.05553  Biso   1.000  C
  C41      1.0000 0.77304  0.65282  0.05553  Biso   1.000  C
  C42      1.0000 0.34718  0.12021  0.05553  Biso   1.000  C
  C43      1.0000 0.54645  0.56030  0.38887  Biso   1.000  C
  C44      1.0000 0.43970  0.98616  0.38887  Biso   1.000  C
  C45      1.0000 0.01384  0.45355  0.38887  Biso   1.000  C
  C46      1.0000 0.78688  0.10637  0.27780  Biso   1.000  C
  C47      1.0000 0.89363  0.68051  0.27780  Biso   1.000  C
  C48      1.0000 0.31949  0.21312  0.27780  Biso   1.000  C
  C49      1.0000 0.45355  0.43970  0.61113  Biso   1.000  C
  C50      1.0000 0.56030  0.01384  0.61113  Biso   1.000  C
  C51      1.0000 0.98616  0.54645  0.61113  Biso   1.000  C
  C52      1.0000 0.12021  0.77304  0.94447  Biso   1.000  C
  C53      1.0000 0.22696  0.34718  0.94447  Biso   1.000  C
  C54      1.0000 0.65282  0.87979  0.94447  Biso   1.000  C
  H73      1.0000 0.21850  0.87270  0.73910  Biso   1.000  H
  H74      1.0000 0.12730  0.34580  0.73910  Biso   1.000  H
  H75      1.0000 0.65420  0.78150  0.73910  Biso   1.000  H
  H76      1.0000 0.88517  0.20603  0.07243  Biso   1.000  H
  H77      1.0000 0.79397  0.67913  0.07243  Biso   1.000  H
  H78      1.0000 0.32087  0.11483  0.07243  Biso   1.000  H
  H79      1.0000 0.55183  0.53937  0.40577  Biso   1.000  H
  H80      1.0000 0.46063  0.01247  0.40577  Biso   1.000  H
  H81      1.0000 0.98753  0.44817  0.40577  Biso   1.000  H
  H82      1.0000 0.78150  0.12730  0.26090  Biso   1.000  H
  H83      1.0000 0.87270  0.65420  0.26090  Biso   1.000  H
  H84      1.0000 0.34580  0.21850  0.26090  Biso   1.000  H
  H85      1.0000 0.44817  0.46063  0.59423  Biso   1.000  H
  H86      1.0000 0.53937  0.98753  0.59423  Biso   1.000  H
  H87      1.0000 0.01247  0.55183  0.59423  Biso   1.000  H
  H88      1.0000 0.11483  0.79397  0.92757  Biso   1.000  H
  H89      1.0000 0.20603  0.32087  0.92757  Biso   1.000  H
  H90      1.0000 0.67913  0.88517  0.92757  Biso   1.000  H
  C55      1.0000 0.23139  0.92159  0.65480  Biso   1.000  C
  C56      1.0000 0.07841  0.30980  0.65480  Biso   1.000  C
  C57      1.0000 0.69020  0.76861  0.65480  Biso   1.000  C
  C58      1.0000 0.89806  0.25492  0.98813  Biso   1.000  C
  C59      1.0000 0.74508  0.64313  0.98813  Biso   1.000  C
  C60      1.0000 0.35687  0.10194  0.98813  Biso   1.000  C
  C61      1.0000 0.56472  0.58826  0.32147  Biso   1.000  C
  C62      1.0000 0.41174  0.97647  0.32147  Biso   1.000  C
  C63      1.0000 0.02353  0.43528  0.32147  Biso   1.000  C
  C64      1.0000 0.76861  0.07841  0.34520  Biso   1.000  C
  C65      1.0000 0.92159  0.69020  0.34520  Biso   1.000  C
  C66      1.0000 0.30980  0.23139  0.34520  Biso   1.000  C
  C67      1.0000 0.43528  0.41174  0.67853  Biso   1.000  C
  C68      1.0000 0.58826  0.02353  0.67853  Biso   1.000  C
  C69      1.0000 0.97647  0.56472  0.67853  Biso   1.000  C
  C70      1.0000 0.10194  0.74508  0.01187  Biso   1.000  C
  C71      1.0000 0.25492  0.35687  0.01187  Biso   1.000  C
  C72      1.0000 0.64313  0.89806  0.01187  Biso   1.000  C
  C73      1.0000 0.26335  0.92550  0.59610  Biso   1.000  C
  C74      1.0000 0.07450  0.33785  0.59610  Biso   1.000  C
  C75      1.0000 0.66215  0.73665  0.59610  Biso   1.000  C
  C76      1.0000 0.93002  0.25883  0.92943  Biso   1.000  C
  C77      1.0000 0.74117  0.67118  0.92943  Biso   1.000  C
  C78      1.0000 0.32882  0.06998  0.92943  Biso   1.000  C
  C79      1.0000 0.59668  0.59217  0.26277  Biso   1.000  C
  C80      1.0000 0.40783  0.00452  0.26277  Biso   1.000  C
  C81      1.0000 0.99548  0.40332  0.26277  Biso   1.000  C
  C82      1.0000 0.73665  0.07450  0.40390  Biso   1.000  C
  C83      1.0000 0.92550  0.66215  0.40390  Biso   1.000  C
  C84      1.0000 0.33785  0.26335  0.40390  Biso   1.000  C
  C85      1.0000 0.40332  0.40783  0.73723  Biso   1.000  C
  C86      1.0000 0.59217  0.99548  0.73723  Biso   1.000  C
  C87      1.0000 0.00452  0.59668  0.73723  Biso   1.000  C
  C88      1.0000 0.06998  0.74117  0.07057  Biso   1.000  C
  C89      1.0000 0.25883  0.32882  0.07057  Biso   1.000  C
  C90      1.0000 0.67118  0.93002  0.07057  Biso   1.000  C
  C91      1.0000 0.29215  0.91548  0.62590  Biso   1.000  C
  C92      1.0000 0.08452  0.37667  0.62590  Biso   1.000  C
  C93      1.0000 0.62333  0.70785  0.62590  Biso   1.000  C
  C94      1.0000 0.95882  0.24881  0.95923  Biso   1.000  C
  C95      1.0000 0.75119  0.71000  0.95923  Biso   1.000  C
  C96      1.0000 0.29000  0.04118  0.95923  Biso   1.000  C
  C97      1.0000 0.62548  0.58215  0.29257  Biso   1.000  C
  C98      1.0000 0.41785  0.04334  0.29257  Biso   1.000  C
  C99      1.0000 0.95666  0.37452  0.29257  Biso   1.000  C
  C100     1.0000 0.70785  0.08452  0.37410  Biso   1.000  C
  C101     1.0000 0.91548  0.62333  0.37410  Biso   1.000  C
  C102     1.0000 0.37667  0.29215  0.37410  Biso   1.000  C
  C103     1.0000 0.37452  0.41785  0.70743  Biso   1.000  C
  C104     1.0000 0.58215  0.95666  0.70743  Biso   1.000  C
  C105     1.0000 0.04334  0.62548  0.70743  Biso   1.000  C
  C106     1.0000 0.04118  0.75119  0.04077  Biso   1.000  C
  C107     1.0000 0.24881  0.29000  0.04077  Biso   1.000  C
  C108     1.0000 0.71000  0.95882  0.04077  Biso   1.000  C
  H91      1.0000 0.28990  0.90480  0.68230  Biso   1.000  H
  H92      1.0000 0.09520  0.38510  0.68230  Biso   1.000  H
  H93      1.0000 0.61490  0.71010  0.68230  Biso   1.000  H
  H94      1.0000 0.95657  0.23813  0.01563  Biso   1.000  H
  H95      1.0000 0.76187  0.71843  0.01563  Biso   1.000  H
  H96      1.0000 0.28157  0.04343  0.01563  Biso   1.000  H
  H97      1.0000 0.62323  0.57147  0.34897  Biso   1.000  H
  H98      1.0000 0.42853  0.05177  0.34897  Biso   1.000  H
  H99      1.0000 0.94823  0.37677  0.34897  Biso   1.000  H
  H100     1.0000 0.71010  0.09520  0.31770  Biso   1.000  H
  H101     1.0000 0.90480  0.61490  0.31770  Biso   1.000  H
  H102     1.0000 0.38510  0.28990  0.31770  Biso   1.000  H
  H103     1.0000 0.37677  0.42853  0.65103  Biso   1.000  H
  H104     1.0000 0.57147  0.94823  0.65103  Biso   1.000  H
  H105     1.0000 0.05177  0.62323  0.65103  Biso   1.000  H
  H106     1.0000 0.04343  0.76187  0.98437  Biso   1.000  H
  H107     1.0000 0.23813  0.28157  0.98437  Biso   1.000  H
  H108     1.0000 0.71843  0.95657  0.98437  Biso   1.000  H
  C109     1.0000 0.32392  0.92123  0.57240  Biso   1.000  C
  C110     1.0000 0.07877  0.40269  0.57240  Biso   1.000  C
  C111     1.0000 0.59731  0.67608  0.57240  Biso   1.000  C
  C112     1.0000 0.99059  0.25456  0.90573  Biso   1.000  C
  C113     1.0000 0.74544  0.73602  0.90573  Biso   1.000  C
  C114     1.0000 0.26398  0.00941  0.90573  Biso   1.000  C
  C115     1.0000 0.65725  0.58790  0.23907  Biso   1.000  C
  C116     1.0000 0.41210  0.06936  0.23907  Biso   1.000  C
  C117     1.0000 0.93064  0.34275  0.23907  Biso   1.000  C
  C118     1.0000 0.67608  0.07877  0.42760  Biso   1.000  C
  C119     1.0000 0.92123  0.59731  0.42760  Biso   1.000  C
  C120     1.0000 0.40269  0.32392  0.42760  Biso   1.000  C
  C121     1.0000 0.34275  0.41210  0.76093  Biso   1.000  C
  C122     1.0000 0.58790  0.93064  0.76093  Biso   1.000  C
  C123     1.0000 0.06936  0.65725  0.76093  Biso   1.000  C
  C124     1.0000 0.00941  0.74544  0.09427  Biso   1.000  C
  C125     1.0000 0.25456  0.26398  0.09427  Biso   1.000  C
  C126     1.0000 0.73602  0.99059  0.09427  Biso   1.000  C
  H109     1.0000 0.34350  0.91450  0.59240  Biso   1.000  H
  H110     1.0000 0.08550  0.42900  0.59240  Biso   1.000  H
  H111     1.0000 0.57100  0.65650  0.59240  Biso   1.000  H
  H112     1.0000 0.01017  0.24783  0.92573  Biso   1.000  H
  H113     1.0000 0.75217  0.76233  0.92573  Biso   1.000  H
  H114     1.0000 0.23767  0.98983  0.92573  Biso   1.000  H
  H115     1.0000 0.67683  0.58117  0.25907  Biso   1.000  H
  H116     1.0000 0.41883  0.09567  0.25907  Biso   1.000  H
  H117     1.0000 0.90433  0.32317  0.25907  Biso   1.000  H
  H118     1.0000 0.65650  0.08550  0.40760  Biso   1.000  H
  H119     1.0000 0.91450  0.57100  0.40760  Biso   1.000  H
  H120     1.0000 0.42900  0.34350  0.40760  Biso   1.000  H
  H121     1.0000 0.32317  0.41883  0.74093  Biso   1.000  H
  H122     1.0000 0.58117  0.90433  0.74093  Biso   1.000  H
  H123     1.0000 0.09567  0.67683  0.74093  Biso   1.000  H
  H124     1.0000 0.98983  0.75217  0.07427  Biso   1.000  H
  H125     1.0000 0.24783  0.23767  0.07427  Biso   1.000  H
  H126     1.0000 0.76233  0.01017  0.07427  Biso   1.000  H
  C127     1.0000 0.32722  0.93651  0.49080  Biso   1.000  C
  C128     1.0000 0.06349  0.39071  0.49080  Biso   1.000  C
  C129     1.0000 0.60929  0.67278  0.49080  Biso   1.000  C
  C130     1.0000 0.99389  0.26984  0.82413  Biso   1.000  C
  C131     1.0000 0.73016  0.72404  0.82413  Biso   1.000  C
  C132     1.0000 0.27596  0.00611  0.82413  Biso   1.000  C
  C133     1.0000 0.66055  0.60318  0.15747  Biso   1.000  C
  C134     1.0000 0.39682  0.05738  0.15747  Biso   1.000  C
  C135     1.0000 0.94262  0.33945  0.15747  Biso   1.000  C
  C136     1.0000 0.67278  0.06349  0.50920  Biso   1.000  C
  C137     1.0000 0.93651  0.60929  0.50920  Biso   1.000  C
  C138     1.0000 0.39071  0.32722  0.50920  Biso   1.000  C
  C139     1.0000 0.33945  0.39682  0.84253  Biso   1.000  C
  C140     1.0000 0.60318  0.94262  0.84253  Biso   1.000  C
  C141     1.0000 0.05738  0.66055  0.84253  Biso   1.000  C
  C142     1.0000 0.00611  0.73016  0.17587  Biso   1.000  C
  C143     1.0000 0.26984  0.27596  0.17587  Biso   1.000  C
  C144     1.0000 0.72404  0.99389  0.17587  Biso   1.000  C
  H127     1.0000 0.34940  0.94080  0.45530  Biso   1.000  H
  H128     1.0000 0.05920  0.40860  0.45530  Biso   1.000  H
  H129     1.0000 0.59140  0.65060  0.45530  Biso   1.000  H
  H130     1.0000 0.01607  0.27413  0.78863  Biso   1.000  H
  H131     1.0000 0.72587  0.74193  0.78863  Biso   1.000  H
  H132     1.0000 0.25807  0.98393  0.78863  Biso   1.000  H
  H133     1.0000 0.68273  0.60747  0.12197  Biso   1.000  H
  H134     1.0000 0.39253  0.07527  0.12197  Biso   1.000  H
  H135     1.0000 0.92473  0.31727  0.12197  Biso   1.000  H
  H136     1.0000 0.65060  0.05920  0.54470  Biso   1.000  H
  H137     1.0000 0.94080  0.59140  0.54470  Biso   1.000  H
  H138     1.0000 0.40860  0.34940  0.54470  Biso   1.000  H
  H139     1.0000 0.31727  0.39253  0.87803  Biso   1.000  H
  H140     1.0000 0.60747  0.92473  0.87803  Biso   1.000  H
  H141     1.0000 0.07527  0.68273  0.87803  Biso   1.000  H
  H142     1.0000 0.98393  0.72587  0.21137  Biso   1.000  H
  H143     1.0000 0.27413  0.25807  0.21137  Biso   1.000  H
  H144     1.0000 0.74193  0.01607  0.21137  Biso   1.000  H
  C145     1.0000 0.26620  0.93978  0.51270  Biso   1.000  C
  C146     1.0000 0.06022  0.32642  0.51270  Biso   1.000  C
  C147     1.0000 0.67358  0.73380  0.51270  Biso   1.000  C
  C148     1.0000 0.93287  0.27311  0.84603  Biso   1.000  C
  C149     1.0000 0.72689  0.65975  0.84603  Biso   1.000  C
  C150     1.0000 0.34025  0.06713  0.84603  Biso   1.000  C
  C151     1.0000 0.59953  0.60645  0.17937  Biso   1.000  C
  C152     1.0000 0.39355  0.99309  0.17937  Biso   1.000  C
  C153     1.0000 0.00691  0.40047  0.17937  Biso   1.000  C
  C154     1.0000 0.73380  0.06022  0.48730  Biso   1.000  C
  C155     1.0000 0.93978  0.67358  0.48730  Biso   1.000  C
  C156     1.0000 0.32642  0.26620  0.48730  Biso   1.000  C
  C157     1.0000 0.40047  0.39355  0.82063  Biso   1.000  C
  C158     1.0000 0.60645  0.00691  0.82063  Biso   1.000  C
  C159     1.0000 0.99309  0.59953  0.82063  Biso   1.000  C
  C160     1.0000 0.06713  0.72689  0.15397  Biso   1.000  C
  C161     1.0000 0.27311  0.34025  0.15397  Biso   1.000  C
  C162     1.0000 0.65975  0.93287  0.15397  Biso   1.000  C
  H145     1.0000 0.24610  0.94550  0.49190  Biso   1.000  H
  H146     1.0000 0.05450  0.30060  0.49190  Biso   1.000  H
  H147     1.0000 0.69940  0.75390  0.49190  Biso   1.000  H
  H148     1.0000 0.91277  0.27883  0.82523  Biso   1.000  H
  H149     1.0000 0.72117  0.63393  0.82523  Biso   1.000  H
  H150     1.0000 0.36607  0.08723  0.82523  Biso   1.000  H
  H151     1.0000 0.57943  0.61217  0.15857  Biso   1.000  H
  H152     1.0000 0.38783  0.96727  0.15857  Biso   1.000  H
  H153     1.0000 0.03273  0.42057  0.15857  Biso   1.000  H
  H154     1.0000 0.75390  0.05450  0.50810  Biso   1.000  H
  H155     1.0000 0.94550  0.69940  0.50810  Biso   1.000  H
  H156     1.0000 0.30060  0.24610  0.50810  Biso   1.000  H
  H157     1.0000 0.42057  0.38783  0.84143  Biso   1.000  H
  H158     1.0000 0.61217  0.03273  0.84143  Biso   1.000  H
  H159     1.0000 0.96727  0.57943  0.84143  Biso   1.000  H
  H160     1.0000 0.08723  0.72117  0.17477  Biso   1.000  H
  H161     1.0000 0.27883  0.36607  0.17477  Biso   1.000  H
  H162     1.0000 0.63393  0.91277  0.17477  Biso   1.000  H
  C163     1.0000 0.29828  0.94593  0.45910  Biso   1.000  C
  C164     1.0000 0.05407  0.35235  0.45910  Biso   1.000  C
  C165     1.0000 0.64765  0.70172  0.45910  Biso   1.000  C
  C166     1.0000 0.96495  0.27926  0.79243  Biso   1.000  C
  C167     1.0000 0.72074  0.68568  0.79243  Biso   1.000  C
  C168     1.0000 0.31432  0.03505  0.79243  Biso   1.000  C
  C169     1.0000 0.63161  0.61260  0.12577  Biso   1.000  C
  C170     1.0000 0.38740  0.01902  0.12577  Biso   1.000  C
  C171     1.0000 0.98098  0.36839  0.12577  Biso   1.000  C
  C172     1.0000 0.70172  0.05407  0.54090  Biso   1.000  C
  C173     1.0000 0.94593  0.64765  0.54090  Biso   1.000  C
  C174     1.0000 0.35235  0.29828  0.54090  Biso   1.000  C
  C175     1.0000 0.36839  0.38740  0.87423  Biso   1.000  C
  C176     1.0000 0.61260  0.98098  0.87423  Biso   1.000  C
  C177     1.0000 0.01902  0.63161  0.87423  Biso   1.000  C
  C178     1.0000 0.03505  0.72074  0.20757  Biso   1.000  C
  C179     1.0000 0.27926  0.31432  0.20757  Biso   1.000  C
  C180     1.0000 0.68568  0.96495  0.20757  Biso   1.000  C
  C181     1.0000 0.30366  0.96630  0.37330  Biso   1.000  C
  C182     1.0000 0.03370  0.33736  0.37330  Biso   1.000  C
  C183     1.0000 0.66264  0.69634  0.37330  Biso   1.000  C
  C184     1.0000 0.97033  0.29963  0.70663  Biso   1.000  C
  C185     1.0000 0.70037  0.67069  0.70663  Biso   1.000  C
  C186     1.0000 0.32931  0.02967  0.70663  Biso   1.000  C
  C187     1.0000 0.63699  0.63297  0.03997  Biso   1.000  C
  C188     1.0000 0.36703  0.00403  0.03997  Biso   1.000  C
  C189     1.0000 0.99597  0.36301  0.03997  Biso   1.000  C
  C190     1.0000 0.69634  0.03370  0.62670  Biso   1.000  C
  C191     1.0000 0.96630  0.66264  0.62670  Biso   1.000  C
  C192     1.0000 0.33736  0.30366  0.62670  Biso   1.000  C
  C193     1.0000 0.36301  0.36703  0.96003  Biso   1.000  C
  C194     1.0000 0.63297  0.99597  0.96003  Biso   1.000  C
  C195     1.0000 0.00403  0.63699  0.96003  Biso   1.000  C
  C196     1.0000 0.02967  0.70037  0.29337  Biso   1.000  C
  C197     1.0000 0.29963  0.32931  0.29337  Biso   1.000  C
  C198     1.0000 0.67069  0.97033  0.29337  Biso   1.000  C
  H163     1.0000 0.33300  0.98490  0.36270  Biso   1.000  H
  H164     1.0000 0.01510  0.34810  0.36270  Biso   1.000  H
  H165     1.0000 0.65190  0.66700  0.36270  Biso   1.000  H
  H166     1.0000 0.99967  0.31823  0.69603  Biso   1.000  H
  H167     1.0000 0.68177  0.68143  0.69603  Biso   1.000  H
  H168     1.0000 0.31857  0.00033  0.69603  Biso   1.000  H
  H169     1.0000 0.66633  0.65157  0.02937  Biso   1.000  H
  H170     1.0000 0.34843  0.01477  0.02937  Biso   1.000  H
  H171     1.0000 0.98523  0.33367  0.02937  Biso   1.000  H
  H172     1.0000 0.66700  0.01510  0.63730  Biso   1.000  H
  H173     1.0000 0.98490  0.65190  0.63730  Biso   1.000  H
  H174     1.0000 0.34810  0.33300  0.63730  Biso   1.000  H
  H175     1.0000 0.33367  0.34843  0.97063  Biso   1.000  H
  H176     1.0000 0.65157  0.98523  0.97063  Biso   1.000  H
  H177     1.0000 0.01477  0.66633  0.97063  Biso   1.000  H
  H178     1.0000 0.00033  0.68177  0.30397  Biso   1.000  H
  H179     1.0000 0.31823  0.31857  0.30397  Biso   1.000  H
  H180     1.0000 0.68143  0.99967  0.30397  Biso   1.000  H
  H181     1.0000 0.29010  0.98270  0.37450  Biso   1.000  H
  H182     1.0000 0.01730  0.30740  0.37450  Biso   1.000  H
  H183     1.0000 0.69260  0.70990  0.37450  Biso   1.000  H
  H184     1.0000 0.95677  0.31603  0.70783  Biso   1.000  H
  H185     1.0000 0.68397  0.64073  0.70783  Biso   1.000  H
  H186     1.0000 0.35927  0.04323  0.70783  Biso   1.000  H
  H187     1.0000 0.62343  0.64937  0.04117  Biso   1.000  H
  H188     1.0000 0.35063  0.97407  0.04117  Biso   1.000  H
  H189     1.0000 0.02593  0.37657  0.04117  Biso   1.000  H
  H190     1.0000 0.70990  0.01730  0.62550  Biso   1.000  H
  H191     1.0000 0.98270  0.69260  0.62550  Biso   1.000  H
  H192     1.0000 0.30740  0.29010  0.62550  Biso   1.000  H
  H193     1.0000 0.37657  0.35063  0.95883  Biso   1.000  H
  H194     1.0000 0.64937  0.02593  0.95883  Biso   1.000  H
  H195     1.0000 0.97407  0.62343  0.95883  Biso   1.000  H
  H196     1.0000 0.04323  0.68397  0.29217  Biso   1.000  H
  H197     1.0000 0.31603  0.35927  0.29217  Biso   1.000  H
  H198     1.0000 0.64073  0.95677  0.29217  Biso   1.000  H
  S1       1.0000 0.28275  0.92981  0.28592  Biso   1.000  S
  S2       1.0000 0.07019  0.35294  0.28592  Biso   1.000  S
  S3       1.0000 0.64706  0.71725  0.28592  Biso   1.000  S
  S4       1.0000 0.94942  0.26314  0.61925  Biso   1.000  S
  S5       1.0000 0.73686  0.68627  0.61925  Biso   1.000  S
  S6       1.0000 0.31373  0.05058  0.61925  Biso   1.000  S
  S7       1.0000 0.61608  0.59648  0.95259  Biso   1.000  S
  S8       1.0000 0.40352  0.01961  0.95259  Biso   1.000  S
  S9       1.0000 0.98039  0.38392  0.95259  Biso   1.000  S
  S10      1.0000 0.71725  0.07019  0.71408  Biso   1.000  S
  S11      1.0000 0.92981  0.64706  0.71408  Biso   1.000  S
  S12      1.0000 0.35294  0.28275  0.71408  Biso   1.000  S
  S13      1.0000 0.38392  0.40352  0.04741  Biso   1.000  S
  S14      1.0000 0.59648  0.98039  0.04741  Biso   1.000  S
  S15      1.0000 0.01961  0.61608  0.04741  Biso   1.000  S
  S16      1.0000 0.05058  0.73686  0.38075  Biso   1.000  S
  S17      1.0000 0.26314  0.31373  0.38075  Biso   1.000  S
  S18      1.0000 0.68627  0.94942  0.38075  Biso   1.000  S
  C199     1.0000 0.29163  0.96454  0.19600  Biso   1.000  C
  C200     1.0000 0.03546  0.32709  0.19600  Biso   1.000  C
  C201     1.0000 0.67291  0.70837  0.19600  Biso   1.000  C
  C202     1.0000 0.95830  0.29787  0.52933  Biso   1.000  C
  C203     1.0000 0.70213  0.66042  0.52933  Biso   1.000  C
  C204     1.0000 0.33958  0.04170  0.52933  Biso   1.000  C
  C205     1.0000 0.62496  0.63121  0.86267  Biso   1.000  C
  C206     1.0000 0.36879  0.99376  0.86267  Biso   1.000  C
  C207     1.0000 0.00624  0.37504  0.86267  Biso   1.000  C
  C208     1.0000 0.70837  0.03546  0.80400  Biso   1.000  C
  C209     1.0000 0.96454  0.67291  0.80400  Biso   1.000  C
  C210     1.0000 0.32709  0.29163  0.80400  Biso   1.000  C
  C211     1.0000 0.37504  0.36879  0.13733  Biso   1.000  C
  C212     1.0000 0.63121  0.00624  0.13733  Biso   1.000  C
  C213     1.0000 0.99376  0.62496  0.13733  Biso   1.000  C
  C214     1.0000 0.04170  0.70213  0.47067  Biso   1.000  C
  C215     1.0000 0.29787  0.33958  0.47067  Biso   1.000  C
  C216     1.0000 0.66042  0.95830  0.47067  Biso   1.000  C
  H199     1.0000 0.32140  0.98170  0.18830  Biso   1.000  H
  H200     1.0000 0.01830  0.33970  0.18830  Biso   1.000  H
  H201     1.0000 0.66030  0.67860  0.18830  Biso   1.000  H
  H202     1.0000 0.98807  0.31503  0.52163  Biso   1.000  H
  H203     1.0000 0.68497  0.67303  0.52163  Biso   1.000  H
  H204     1.0000 0.32697  0.01193  0.52163  Biso   1.000  H
  H205     1.0000 0.65473  0.64837  0.85497  Biso   1.000  H
  H206     1.0000 0.35163  0.00637  0.85497  Biso   1.000  H
  H207     1.0000 0.99363  0.34527  0.85497  Biso   1.000  H
  H208     1.0000 0.67860  0.01830  0.81170  Biso   1.000  H
  H209     1.0000 0.98170  0.66030  0.81170  Biso   1.000  H
  H210     1.0000 0.33970  0.32140  0.81170  Biso   1.000  H
  H211     1.0000 0.34527  0.35163  0.14503  Biso   1.000  H
  H212     1.0000 0.64837  0.99363  0.14503  Biso   1.000  H
  H213     1.0000 0.00637  0.65473  0.14503  Biso   1.000  H
  H214     1.0000 0.01193  0.68497  0.47837  Biso   1.000  H
  H215     1.0000 0.31503  0.32697  0.47837  Biso   1.000  H
  H216     1.0000 0.67303  0.98807  0.47837  Biso   1.000  H
  H217     1.0000 0.28070  0.94800  0.14310  Biso   1.000  H
  H218     1.0000 0.05200  0.33270  0.14310  Biso   1.000  H
  H219     1.0000 0.66730  0.71930  0.14310  Biso   1.000  H
  H220     1.0000 0.94737  0.28133  0.47643  Biso   1.000  H
  H221     1.0000 0.71867  0.66603  0.47643  Biso   1.000  H
  H222     1.0000 0.33397  0.05263  0.47643  Biso   1.000  H
  H223     1.0000 0.61403  0.61467  0.80977  Biso   1.000  H
  H224     1.0000 0.38533  0.99937  0.80977  Biso   1.000  H
  H225     1.0000 0.00063  0.38597  0.80977  Biso   1.000  H
  H226     1.0000 0.71930  0.05200  0.85690  Biso   1.000  H
  H227     1.0000 0.94800  0.66730  0.85690  Biso   1.000  H
  H228     1.0000 0.33270  0.28070  0.85690  Biso   1.000  H
  H229     1.0000 0.38597  0.38533  0.19023  Biso   1.000  H
  H230     1.0000 0.61467  0.00063  0.19023  Biso   1.000  H
  H231     1.0000 0.99937  0.61403  0.19023  Biso   1.000  H
  H232     1.0000 0.05263  0.71867  0.52357  Biso   1.000  H
  H233     1.0000 0.28133  0.33397  0.52357  Biso   1.000  H
  H234     1.0000 0.66603  0.94737  0.52357  Biso   1.000  H
  N37      1.0000 0.13033  0.94063  0.67273  Biso   1.000  N
  N38      1.0000 0.05937  0.18970  0.67273  Biso   1.000  N
  N39      1.0000 0.81030  0.86967  0.67273  Biso   1.000  N
  N40      1.0000 0.79700  0.27396  0.00606  Biso   1.000  N
  N41      1.0000 0.72604  0.52303  0.00606  Biso   1.000  N
  N42      1.0000 0.47697  0.20300  0.00606  Biso   1.000  N
  N43      1.0000 0.46366  0.60730  0.33940  Biso   1.000  N
  N44      1.0000 0.39270  0.85637  0.33940  Biso   1.000  N
  N45      1.0000 0.14363  0.53634  0.33940  Biso   1.000  N
  N46      1.0000 0.86967  0.05937  0.32727  Biso   1.000  N
  N47      1.0000 0.94063  0.81030  0.32727  Biso   1.000  N
  N48      1.0000 0.18970  0.13033  0.32727  Biso   1.000  N
  N49      1.0000 0.53634  0.39270  0.66060  Biso   1.000  N
  N50      1.0000 0.60730  0.14363  0.66060  Biso   1.000  N
  N51      1.0000 0.85637  0.46366  0.66060  Biso   1.000  N
  N52      1.0000 0.20300  0.72604  0.99394  Biso   1.000  N
  N53      1.0000 0.27396  0.47697  0.99394  Biso   1.000  N
  N54      1.0000 0.52303  0.79700  0.99394  Biso   1.000  N
  N55      1.0000 0.13413  0.94834  0.58629  Biso   1.000  N
  N56      1.0000 0.05166  0.18579  0.58629  Biso   1.000  N
  N57      1.0000 0.81421  0.86587  0.58629  Biso   1.000  N
  N58      1.0000 0.80080  0.28167  0.91962  Biso   1.000  N
  N59      1.0000 0.71833  0.51912  0.91962  Biso   1.000  N
  N60      1.0000 0.48088  0.19920  0.91962  Biso   1.000  N
  N61      1.0000 0.46746  0.61501  0.25296  Biso   1.000  N
  N62      1.0000 0.38499  0.85246  0.25296  Biso   1.000  N
  N63      1.0000 0.14754  0.53254  0.25296  Biso   1.000  N
  N64      1.0000 0.86587  0.05166  0.41371  Biso   1.000  N
  N65      1.0000 0.94834  0.81421  0.41371  Biso   1.000  N
  N66      1.0000 0.18579  0.13413  0.41371  Biso   1.000  N
  N67      1.0000 0.53254  0.38499  0.74704  Biso   1.000  N
  N68      1.0000 0.61501  0.14754  0.74704  Biso   1.000  N
  N69      1.0000 0.85246  0.46746  0.74704  Biso   1.000  N
  N70      1.0000 0.19920  0.71833  0.08038  Biso   1.000  N
  N71      1.0000 0.28167  0.48088  0.08038  Biso   1.000  N
  N72      1.0000 0.51912  0.80080  0.08038  Biso   1.000  N
  C217     1.0000 0.09061  0.91992  0.69740  Biso   1.000  C
  C218     1.0000 0.08008  0.17069  0.69740  Biso   1.000  C
  C219     1.0000 0.82931  0.90939  0.69740  Biso   1.000  C
  C220     1.0000 0.75728  0.25325  0.03073  Biso   1.000  C
  C221     1.0000 0.74675  0.50402  0.03073  Biso   1.000  C
  C222     1.0000 0.49598  0.24272  0.03073  Biso   1.000  C
  C223     1.0000 0.42394  0.58659  0.36407  Biso   1.000  C
  C224     1.0000 0.41341  0.83736  0.36407  Biso   1.000  C
  C225     1.0000 0.16264  0.57606  0.36407  Biso   1.000  C
  C226     1.0000 0.90939  0.08008  0.30260  Biso   1.000  C
  C227     1.0000 0.91992  0.82931  0.30260  Biso   1.000  C
  C228     1.0000 0.17069  0.09061  0.30260  Biso   1.000  C
  C229     1.0000 0.57606  0.41341  0.63593  Biso   1.000  C
  C230     1.0000 0.58659  0.16264  0.63593  Biso   1.000  C
  C231     1.0000 0.83736  0.42394  0.63593  Biso   1.000  C
  C232     1.0000 0.24272  0.74675  0.96927  Biso   1.000  C
  C233     1.0000 0.25325  0.49598  0.96927  Biso   1.000  C
  C234     1.0000 0.50402  0.75728  0.96927  Biso   1.000  C
  H235     1.0000 0.08070  0.91150  0.75420  Biso   1.000  H
  H236     1.0000 0.08850  0.16920  0.75420  Biso   1.000  H
  H237     1.0000 0.83080  0.91930  0.75420  Biso   1.000  H
  H238     1.0000 0.74737  0.24483  0.08753  Biso   1.000  H
  H239     1.0000 0.75517  0.50253  0.08753  Biso   1.000  H
  H240     1.0000 0.49747  0.25263  0.08753  Biso   1.000  H
  H241     1.0000 0.41403  0.57817  0.42087  Biso   1.000  H
  H242     1.0000 0.42183  0.83587  0.42087  Biso   1.000  H
  H243     1.0000 0.16413  0.58597  0.42087  Biso   1.000  H
  H244     1.0000 0.91930  0.08850  0.24580  Biso   1.000  H
  H245     1.0000 0.91150  0.83080  0.24580  Biso   1.000  H
  H246     1.0000 0.16920  0.08070  0.24580  Biso   1.000  H
  H247     1.0000 0.58597  0.42183  0.57913  Biso   1.000  H
  H248     1.0000 0.57817  0.16413  0.57913  Biso   1.000  H
  H249     1.0000 0.83587  0.41403  0.57913  Biso   1.000  H
  H250     1.0000 0.25263  0.75517  0.91247  Biso   1.000  H
  H251     1.0000 0.24483  0.49747  0.91247  Biso   1.000  H
  H252     1.0000 0.50253  0.74737  0.91247  Biso   1.000  H
  C235     1.0000 0.06803  0.91362  0.62600  Biso   1.000  C
  C236     1.0000 0.08638  0.15441  0.62600  Biso   1.000  C
  C237     1.0000 0.84559  0.93197  0.62600  Biso   1.000  C
  C238     1.0000 0.73470  0.24695  0.95933  Biso   1.000  C
  C239     1.0000 0.75305  0.48774  0.95933  Biso   1.000  C
  C240     1.0000 0.51226  0.26530  0.95933  Biso   1.000  C
  C241     1.0000 0.40136  0.58029  0.29267  Biso   1.000  C
  C242     1.0000 0.41971  0.82108  0.29267  Biso   1.000  C
  C243     1.0000 0.17892  0.59864  0.29267  Biso   1.000  C
  C244     1.0000 0.93197  0.08638  0.37400  Biso   1.000  C
  C245     1.0000 0.91362  0.84559  0.37400  Biso   1.000  C
  C246     1.0000 0.15441  0.06803  0.37400  Biso   1.000  C
  C247     1.0000 0.59864  0.41971  0.70733  Biso   1.000  C
  C248     1.0000 0.58029  0.17892  0.70733  Biso   1.000  C
  C249     1.0000 0.82108  0.40136  0.70733  Biso   1.000  C
  C250     1.0000 0.26530  0.75305  0.04067  Biso   1.000  C
  C251     1.0000 0.24695  0.51226  0.04067  Biso   1.000  C
  C252     1.0000 0.48774  0.73470  0.04067  Biso   1.000  C
  H253     1.0000 0.03920  0.89980  0.62250  Biso   1.000  H
  H254     1.0000 0.10020  0.13940  0.62250  Biso   1.000  H
  H255     1.0000 0.86060  0.96080  0.62250  Biso   1.000  H
  H256     1.0000 0.70587  0.23313  0.95583  Biso   1.000  H
  H257     1.0000 0.76687  0.47273  0.95583  Biso   1.000  H
  H258     1.0000 0.52727  0.29413  0.95583  Biso   1.000  H
  H259     1.0000 0.37253  0.56647  0.28917  Biso   1.000  H
  H260     1.0000 0.43353  0.80607  0.28917  Biso   1.000  H
  H261     1.0000 0.19393  0.62747  0.28917  Biso   1.000  H
  H262     1.0000 0.96080  0.10020  0.37750  Biso   1.000  H
  H263     1.0000 0.89980  0.86060  0.37750  Biso   1.000  H
  H264     1.0000 0.13940  0.03920  0.37750  Biso   1.000  H
  H265     1.0000 0.62747  0.43353  0.71083  Biso   1.000  H
  H266     1.0000 0.56647  0.19393  0.71083  Biso   1.000  H
  H267     1.0000 0.80607  0.37253  0.71083  Biso   1.000  H
  H268     1.0000 0.29413  0.76687  0.04417  Biso   1.000  H
  H269     1.0000 0.23313  0.52727  0.04417  Biso   1.000  H
  H270     1.0000 0.47273  0.70587  0.04417  Biso   1.000  H
  C253     1.0000 0.09563  0.93161  0.55790  Biso   1.000  C
  C254     1.0000 0.06839  0.16402  0.55790  Biso   1.000  C
  C255     1.0000 0.83598  0.90437  0.55790  Biso   1.000  C
  C256     1.0000 0.76230  0.26494  0.89123  Biso   1.000  C
  C257     1.0000 0.73506  0.49735  0.89123  Biso   1.000  C
  C258     1.0000 0.50265  0.23770  0.89123  Biso   1.000  C
  C259     1.0000 0.42896  0.59828  0.22457  Biso   1.000  C
  C260     1.0000 0.40172  0.83069  0.22457  Biso   1.000  C
  C261     1.0000 0.16931  0.57104  0.22457  Biso   1.000  C
  C262     1.0000 0.90437  0.06839  0.44210  Biso   1.000  C
  C263     1.0000 0.93161  0.83598  0.44210  Biso   1.000  C
  C264     1.0000 0.16402  0.09563  0.44210  Biso   1.000  C
  C265     1.0000 0.57104  0.40172  0.77543  Biso   1.000  C
  C266     1.0000 0.59828  0.16931  0.77543  Biso   1.000  C
  C267     1.0000 0.83069  0.42896  0.77543  Biso   1.000  C
  C268     1.0000 0.23770  0.73506  0.10877  Biso   1.000  C
  C269     1.0000 0.26494  0.50265  0.10877  Biso   1.000  C
  C270     1.0000 0.49735  0.76230  0.10877  Biso   1.000  C
  C271     1.0000 0.08567  0.93296  0.46700  Biso   1.000  C
  C272     1.0000 0.06704  0.15271  0.46700  Biso   1.000  C
  C273     1.0000 0.84729  0.91433  0.46700  Biso   1.000  C
  C274     1.0000 0.75234  0.26629  0.80033  Biso   1.000  C
  C275     1.0000 0.73371  0.48604  0.80033  Biso   1.000  C
  C276     1.0000 0.51396  0.24766  0.80033  Biso   1.000  C
  C277     1.0000 0.41900  0.59963  0.13367  Biso   1.000  C
  C278     1.0000 0.40037  0.81938  0.13367  Biso   1.000  C
  C279     1.0000 0.18062  0.58100  0.13367  Biso   1.000  C
  C280     1.0000 0.91433  0.06704  0.53300  Biso   1.000  C
  C281     1.0000 0.93296  0.84729  0.53300  Biso   1.000  C
  C282     1.0000 0.15271  0.08567  0.53300  Biso   1.000  C
  C283     1.0000 0.58100  0.40037  0.86633  Biso   1.000  C
  C284     1.0000 0.59963  0.18062  0.86633  Biso   1.000  C
  C285     1.0000 0.81938  0.41900  0.86633  Biso   1.000  C
  C286     1.0000 0.24766  0.73371  0.19967  Biso   1.000  C
  C287     1.0000 0.26629  0.51396  0.19967  Biso   1.000  C
  C288     1.0000 0.48604  0.75234  0.19967  Biso   1.000  C
  C289     1.0000 0.11388  0.94263  0.40060  Biso   1.000  C
  C290     1.0000 0.05737  0.17125  0.40060  Biso   1.000  C
  C291     1.0000 0.82875  0.88612  0.40060  Biso   1.000  C
  C292     1.0000 0.78055  0.27596  0.73393  Biso   1.000  C
  C293     1.0000 0.72404  0.50458  0.73393  Biso   1.000  C
  C294     1.0000 0.49542  0.21945  0.73393  Biso   1.000  C
  C295     1.0000 0.44721  0.60930  0.06727  Biso   1.000  C
  C296     1.0000 0.39070  0.83792  0.06727  Biso   1.000  C
  C297     1.0000 0.16208  0.55279  0.06727  Biso   1.000  C
  C298     1.0000 0.88612  0.05737  0.59940  Biso   1.000  C
  C299     1.0000 0.94263  0.82875  0.59940  Biso   1.000  C
  C300     1.0000 0.17125  0.11388  0.59940  Biso   1.000  C
  C301     1.0000 0.55279  0.39070  0.93273  Biso   1.000  C
  C302     1.0000 0.60930  0.16208  0.93273  Biso   1.000  C
  C303     1.0000 0.83792  0.44721  0.93273  Biso   1.000  C
  C304     1.0000 0.21945  0.72404  0.26607  Biso   1.000  C
  C305     1.0000 0.27596  0.49542  0.26607  Biso   1.000  C
  C306     1.0000 0.50458  0.78055  0.26607  Biso   1.000  C
  H271     1.0000 0.14070  0.94900  0.41470  Biso   1.000  H
  H272     1.0000 0.05100  0.19170  0.41470  Biso   1.000  H
  H273     1.0000 0.80830  0.85930  0.41470  Biso   1.000  H
  H274     1.0000 0.80737  0.28233  0.74803  Biso   1.000  H
  H275     1.0000 0.71767  0.52503  0.74803  Biso   1.000  H
  H276     1.0000 0.47497  0.19263  0.74803  Biso   1.000  H
  H277     1.0000 0.47403  0.61567  0.08137  Biso   1.000  H
  H278     1.0000 0.38433  0.85837  0.08137  Biso   1.000  H
  H279     1.0000 0.14163  0.52597  0.08137  Biso   1.000  H
  H280     1.0000 0.85930  0.05100  0.58530  Biso   1.000  H
  H281     1.0000 0.94900  0.80830  0.58530  Biso   1.000  H
  H282     1.0000 0.19170  0.14070  0.58530  Biso   1.000  H
  H283     1.0000 0.52597  0.38433  0.91863  Biso   1.000  H
  H284     1.0000 0.61567  0.14163  0.91863  Biso   1.000  H
  H285     1.0000 0.85837  0.47403  0.91863  Biso   1.000  H
  H286     1.0000 0.19263  0.71767  0.25197  Biso   1.000  H
  H287     1.0000 0.28233  0.47497  0.25197  Biso   1.000  H
  H288     1.0000 0.52503  0.80737  0.25197  Biso   1.000  H
  C307     1.0000 0.10421  0.94328  0.31580  Biso   1.000  C
  C308     1.0000 0.05672  0.16093  0.31580  Biso   1.000  C
  C309     1.0000 0.83907  0.89579  0.31580  Biso   1.000  C
  C310     1.0000 0.77088  0.27661  0.64913  Biso   1.000  C
  C311     1.0000 0.72339  0.49426  0.64913  Biso   1.000  C
  C312     1.0000 0.50574  0.22912  0.64913  Biso   1.000  C
  C313     1.0000 0.43754  0.60995  0.98247  Biso   1.000  C
  C314     1.0000 0.39005  0.82760  0.98247  Biso   1.000  C
  C315     1.0000 0.17240  0.56246  0.98247  Biso   1.000  C
  C316     1.0000 0.89579  0.05672  0.68420  Biso   1.000  C
  C317     1.0000 0.94328  0.83907  0.68420  Biso   1.000  C
  C318     1.0000 0.16093  0.10421  0.68420  Biso   1.000  C
  C319     1.0000 0.56246  0.39005  0.01753  Biso   1.000  C
  C320     1.0000 0.60995  0.17240  0.01753  Biso   1.000  C
  C321     1.0000 0.82760  0.43754  0.01753  Biso   1.000  C
  C322     1.0000 0.22912  0.72339  0.35087  Biso   1.000  C
  C323     1.0000 0.27661  0.50574  0.35087  Biso   1.000  C
  C324     1.0000 0.49426  0.77088  0.35087  Biso   1.000  C
  C325     1.0000 0.13532  0.95261  0.24500  Biso   1.000  C
  C326     1.0000 0.04739  0.18271  0.24500  Biso   1.000  C
  C327     1.0000 0.81729  0.86468  0.24500  Biso   1.000  C
  C328     1.0000 0.80199  0.28594  0.57833  Biso   1.000  C
  C329     1.0000 0.71406  0.51604  0.57833  Biso   1.000  C
  C330     1.0000 0.48396  0.19801  0.57833  Biso   1.000  C
  C331     1.0000 0.46865  0.61928  0.91167  Biso   1.000  C
  C332     1.0000 0.38072  0.84938  0.91167  Biso   1.000  C
  C333     1.0000 0.15062  0.53135  0.91167  Biso   1.000  C
  C334     1.0000 0.86468  0.04739  0.75500  Biso   1.000  C
  C335     1.0000 0.95261  0.81729  0.75500  Biso   1.000  C
  C336     1.0000 0.18271  0.13532  0.75500  Biso   1.000  C
  C337     1.0000 0.53135  0.38072  0.08833  Biso   1.000  C
  C338     1.0000 0.61928  0.15062  0.08833  Biso   1.000  C
  C339     1.0000 0.84938  0.46865  0.08833  Biso   1.000  C
  C340     1.0000 0.19801  0.71406  0.42167  Biso   1.000  C
  C341     1.0000 0.28594  0.48396  0.42167  Biso   1.000  C
  C342     1.0000 0.51604  0.80199  0.42167  Biso   1.000  C
  H289     1.0000 0.12500  0.92950  0.20440  Biso   1.000  H
  H290     1.0000 0.07050  0.19550  0.20440  Biso   1.000  H
  H291     1.0000 0.80450  0.87500  0.20440  Biso   1.000  H
  H292     1.0000 0.79167  0.26283  0.53773  Biso   1.000  H
  H293     1.0000 0.73717  0.52883  0.53773  Biso   1.000  H
  H294     1.0000 0.47117  0.20833  0.53773  Biso   1.000  H
  H295     1.0000 0.45833  0.59617  0.87107  Biso   1.000  H
  H296     1.0000 0.40383  0.86217  0.87107  Biso   1.000  H
  H297     1.0000 0.13783  0.54167  0.87107  Biso   1.000  H
  H298     1.0000 0.87500  0.07050  0.79560  Biso   1.000  H
  H299     1.0000 0.92950  0.80450  0.79560  Biso   1.000  H
  H300     1.0000 0.19550  0.12500  0.79560  Biso   1.000  H
  H301     1.0000 0.54167  0.40383  0.12893  Biso   1.000  H
  H302     1.0000 0.59617  0.13783  0.12893  Biso   1.000  H
  H303     1.0000 0.86217  0.45833  0.12893  Biso   1.000  H
  H304     1.0000 0.20833  0.73717  0.46227  Biso   1.000  H
  H305     1.0000 0.26283  0.47117  0.46227  Biso   1.000  H
  H306     1.0000 0.52883  0.79167  0.46227  Biso   1.000  H
  H307     1.0000 0.16090  0.95640  0.27060  Biso   1.000  H
  H308     1.0000 0.04360  0.20450  0.27060  Biso   1.000  H
  H309     1.0000 0.79550  0.83910  0.27060  Biso   1.000  H
  H310     1.0000 0.82757  0.28973  0.60393  Biso   1.000  H
  H311     1.0000 0.71027  0.53783  0.60393  Biso   1.000  H
  H312     1.0000 0.46217  0.17243  0.60393  Biso   1.000  H
  H313     1.0000 0.49423  0.62307  0.93727  Biso   1.000  H
  H314     1.0000 0.37693  0.87117  0.93727  Biso   1.000  H
  H315     1.0000 0.12883  0.50577  0.93727  Biso   1.000  H
  H316     1.0000 0.83910  0.04360  0.72940  Biso   1.000  H
  H317     1.0000 0.95640  0.79550  0.72940  Biso   1.000  H
  H318     1.0000 0.20450  0.16090  0.72940  Biso   1.000  H
  H319     1.0000 0.50577  0.37693  0.06273  Biso   1.000  H
  H320     1.0000 0.62307  0.12883  0.06273  Biso   1.000  H
  H321     1.0000 0.87117  0.49423  0.06273  Biso   1.000  H
  H322     1.0000 0.17243  0.71027  0.39607  Biso   1.000  H
  H323     1.0000 0.28973  0.46217  0.39607  Biso   1.000  H
  H324     1.0000 0.53783  0.82757  0.39607  Biso   1.000  H
  S19      1.0000 0.14532  0.99793  0.18780  Biso   1.000  S
  S20      1.0000 0.00207  0.14739  0.18780  Biso   1.000  S
  S21      1.0000 0.85261  0.85468  0.18780  Biso   1.000  S
  S22      1.0000 0.81199  0.33126  0.52113  Biso   1.000  S
  S23      1.0000 0.66874  0.48072  0.52113  Biso   1.000  S
  S24      1.0000 0.51928  0.18801  0.52113  Biso   1.000  S
  S25      1.0000 0.47865  0.66460  0.85447  Biso   1.000  S
  S26      1.0000 0.33540  0.81406  0.85447  Biso   1.000  S
  S27      1.0000 0.18594  0.52135  0.85447  Biso   1.000  S
  S28      1.0000 0.85468  0.00207  0.81220  Biso   1.000  S
  S29      1.0000 0.99793  0.85261  0.81220  Biso   1.000  S
  S30      1.0000 0.14739  0.14532  0.81220  Biso   1.000  S
  S31      1.0000 0.52135  0.33540  0.14553  Biso   1.000  S
  S32      1.0000 0.66460  0.18594  0.14553  Biso   1.000  S
  S33      1.0000 0.81406  0.47865  0.14553  Biso   1.000  S
  S34      1.0000 0.18801  0.66874  0.47887  Biso   1.000  S
  S35      1.0000 0.33126  0.51928  0.47887  Biso   1.000  S
  S36      1.0000 0.48072  0.81199  0.47887  Biso   1.000  S
  C343     1.0000 0.18472  0.00113  0.11630  Biso   1.000  C
  C344     1.0000 0.99887  0.18359  0.11630  Biso   1.000  C
  C345     1.0000 0.81641  0.81528  0.11630  Biso   1.000  C
  C346     1.0000 0.85139  0.33446  0.44963  Biso   1.000  C
  C347     1.0000 0.66554  0.51692  0.44963  Biso   1.000  C
  C348     1.0000 0.48308  0.14861  0.44963  Biso   1.000  C
  C349     1.0000 0.51805  0.66780  0.78297  Biso   1.000  C
  C350     1.0000 0.33220  0.85026  0.78297  Biso   1.000  C
  C351     1.0000 0.14974  0.48195  0.78297  Biso   1.000  C
  C352     1.0000 0.81528  0.99887  0.88370  Biso   1.000  C
  C353     1.0000 0.00113  0.81641  0.88370  Biso   1.000  C
  C354     1.0000 0.18359  0.18472  0.88370  Biso   1.000  C
  C355     1.0000 0.48195  0.33220  0.21703  Biso   1.000  C
  C356     1.0000 0.66780  0.14974  0.21703  Biso   1.000  C
  C357     1.0000 0.85026  0.51805  0.21703  Biso   1.000  C
  C358     1.0000 0.14861  0.66554  0.55037  Biso   1.000  C
  C359     1.0000 0.33446  0.48308  0.55037  Biso   1.000  C
  C360     1.0000 0.51692  0.85139  0.55037  Biso   1.000  C
  H325     1.0000 0.17410  0.97520  0.08470  Biso   1.000  H
  H326     1.0000 0.02480  0.19890  0.08470  Biso   1.000  H
  H327     1.0000 0.80110  0.82590  0.08470  Biso   1.000  H
  H328     1.0000 0.84077  0.30853  0.41803  Biso   1.000  H
  H329     1.0000 0.69147  0.53223  0.41803  Biso   1.000  H
  H330     1.0000 0.46777  0.15923  0.41803  Biso   1.000  H
  H331     1.0000 0.50743  0.64187  0.75137  Biso   1.000  H
  H332     1.0000 0.35813  0.86557  0.75137  Biso   1.000  H
  H333     1.0000 0.13443  0.49257  0.75137  Biso   1.000  H
  H334     1.0000 0.82590  0.02480  0.91530  Biso   1.000  H
  H335     1.0000 0.97520  0.80110  0.91530  Biso   1.000  H
  H336     1.0000 0.19890  0.17410  0.91530  Biso   1.000  H
  H337     1.0000 0.49257  0.35813  0.24863  Biso   1.000  H
  H338     1.0000 0.64187  0.13443  0.24863  Biso   1.000  H
  H339     1.0000 0.86557  0.50743  0.24863  Biso   1.000  H
  H340     1.0000 0.15923  0.69147  0.58197  Biso   1.000  H
  H341     1.0000 0.30853  0.46777  0.58197  Biso   1.000  H
  H342     1.0000 0.53223  0.84077  0.58197  Biso   1.000  H
  H343     1.0000 0.19140  0.02280  0.07340  Biso   1.000  H
  H344     1.0000 0.97720  0.16860  0.07340  Biso   1.000  H
  H345     1.0000 0.83140  0.80860  0.07340  Biso   1.000  H
  H346     1.0000 0.85807  0.35613  0.40673  Biso   1.000  H
  H347     1.0000 0.64387  0.50193  0.40673  Biso   1.000  H
  H348     1.0000 0.49807  0.14193  0.40673  Biso   1.000  H
  H349     1.0000 0.52473  0.68947  0.74007  Biso   1.000  H
  H350     1.0000 0.31053  0.83527  0.74007  Biso   1.000  H
  H351     1.0000 0.16473  0.47527  0.74007  Biso   1.000  H
  H352     1.0000 0.80860  0.97720  0.92660  Biso   1.000  H
  H353     1.0000 0.02280  0.83140  0.92660  Biso   1.000  H
  H354     1.0000 0.16860  0.19140  0.92660  Biso   1.000  H
  H355     1.0000 0.47527  0.31053  0.25993  Biso   1.000  H
  H356     1.0000 0.68947  0.16473  0.25993  Biso   1.000  H
  H357     1.0000 0.83527  0.52473  0.25993  Biso   1.000  H
  H358     1.0000 0.14193  0.64387  0.59327  Biso   1.000  H
  H359     1.0000 0.35613  0.49807  0.59327  Biso   1.000  H
  H360     1.0000 0.50193  0.85807  0.59327  Biso   1.000  H
  C361     1.0000 0.04550  0.92030  0.44410  Biso   1.000  C
  C362     1.0000 0.07970  0.12520  0.44410  Biso   1.000  C
  C363     1.0000 0.87480  0.95450  0.44410  Biso   1.000  C
  C364     1.0000 0.71217  0.25363  0.77743  Biso   1.000  C
  C365     1.0000 0.74637  0.45853  0.77743  Biso   1.000  C
  C366     1.0000 0.54147  0.28783  0.77743  Biso   1.000  C
  C367     1.0000 0.37883  0.58697  0.11077  Biso   1.000  C
  C368     1.0000 0.41303  0.79187  0.11077  Biso   1.000  C
  C369     1.0000 0.20813  0.62117  0.11077  Biso   1.000  C
  C370     1.0000 0.95450  0.07970  0.55590  Biso   1.000  C
  C371     1.0000 0.92030  0.87480  0.55590  Biso   1.000  C
  C372     1.0000 0.12520  0.04550  0.55590  Biso   1.000  C
  C373     1.0000 0.62117  0.41303  0.88923  Biso   1.000  C
  C374     1.0000 0.58697  0.20813  0.88923  Biso   1.000  C
  C375     1.0000 0.79187  0.37883  0.88923  Biso   1.000  C
  C376     1.0000 0.28783  0.74637  0.22257  Biso   1.000  C
  C377     1.0000 0.25363  0.54147  0.22257  Biso   1.000  C
  C378     1.0000 0.45853  0.71217  0.22257  Biso   1.000  C
  H361     1.0000 0.02540  0.91260  0.48770  Biso   1.000  H
  H362     1.0000 0.08740  0.11280  0.48770  Biso   1.000  H
  H363     1.0000 0.88720  0.97460  0.48770  Biso   1.000  H
  H364     1.0000 0.69207  0.24593  0.82103  Biso   1.000  H
  H365     1.0000 0.75407  0.44613  0.82103  Biso   1.000  H
  H366     1.0000 0.55387  0.30793  0.82103  Biso   1.000  H
  H367     1.0000 0.35873  0.57927  0.15437  Biso   1.000  H
  H368     1.0000 0.42073  0.77947  0.15437  Biso   1.000  H
  H369     1.0000 0.22053  0.64127  0.15437  Biso   1.000  H
  H370     1.0000 0.97460  0.08740  0.51230  Biso   1.000  H
  H371     1.0000 0.91260  0.88720  0.51230  Biso   1.000  H
  H372     1.0000 0.11280  0.02540  0.51230  Biso   1.000  H
  H373     1.0000 0.64127  0.42073  0.84563  Biso   1.000  H
  H374     1.0000 0.57927  0.22053  0.84563  Biso   1.000  H
  H375     1.0000 0.77947  0.35873  0.84563  Biso   1.000  H
  H376     1.0000 0.30793  0.75407  0.17897  Biso   1.000  H
  H377     1.0000 0.24593  0.55387  0.17897  Biso   1.000  H
  H378     1.0000 0.44613  0.69207  0.17897  Biso   1.000  H
  C379     1.0000 0.03460  0.91890  0.35820  Biso   1.000  C
  C380     1.0000 0.08110  0.11570  0.35820  Biso   1.000  C
  C381     1.0000 0.88430  0.96540  0.35820  Biso   1.000  C
  C382     1.0000 0.70127  0.25223  0.69153  Biso   1.000  C
  C383     1.0000 0.74777  0.44903  0.69153  Biso   1.000  C
  C384     1.0000 0.55097  0.29873  0.69153  Biso   1.000  C
  C385     1.0000 0.36793  0.58557  0.02487  Biso   1.000  C
  C386     1.0000 0.41443  0.78237  0.02487  Biso   1.000  C
  C387     1.0000 0.21763  0.63207  0.02487  Biso   1.000  C
  C388     1.0000 0.96540  0.08110  0.64180  Biso   1.000  C
  C389     1.0000 0.91890  0.88430  0.64180  Biso   1.000  C
  C390     1.0000 0.11570  0.03460  0.64180  Biso   1.000  C
  C391     1.0000 0.63207  0.41443  0.97513  Biso   1.000  C
  C392     1.0000 0.58557  0.21763  0.97513  Biso   1.000  C
  C393     1.0000 0.78237  0.36793  0.97513  Biso   1.000  C
  C394     1.0000 0.29873  0.74777  0.30847  Biso   1.000  C
  C395     1.0000 0.25223  0.55097  0.30847  Biso   1.000  C
  C396     1.0000 0.44903  0.70127  0.30847  Biso   1.000  C
  H379     1.0000 0.00720  0.91000  0.34350  Biso   1.000  H
  H380     1.0000 0.09000  0.09720  0.34350  Biso   1.000  H
  H381     1.0000 0.90280  0.99280  0.34350  Biso   1.000  H
  H382     1.0000 0.67387  0.24333  0.67683  Biso   1.000  H
  H383     1.0000 0.75667  0.43053  0.67683  Biso   1.000  H
  H384     1.0000 0.56947  0.32613  0.67683  Biso   1.000  H
  H385     1.0000 0.34053  0.57667  0.01017  Biso   1.000  H
  H386     1.0000 0.42333  0.76387  0.01017  Biso   1.000  H
  H387     1.0000 0.23613  0.65947  0.01017  Biso   1.000  H
  H388     1.0000 0.99280  0.09000  0.65650  Biso   1.000  H
  H389     1.0000 0.91000  0.90280  0.65650  Biso   1.000  H
  H390     1.0000 0.09720  0.00720  0.65650  Biso   1.000  H
  H391     1.0000 0.65947  0.42333  0.98983  Biso   1.000  H
  H392     1.0000 0.57667  0.23613  0.98983  Biso   1.000  H
  H393     1.0000 0.76387  0.34053  0.98983  Biso   1.000  H
  H394     1.0000 0.32613  0.75667  0.32317  Biso   1.000  H
  H395     1.0000 0.24333  0.56947  0.32317  Biso   1.000  H
  H396     1.0000 0.43053  0.67387  0.32317  Biso   1.000  H
  C397     1.0000 0.06320  0.93010  0.29460  Biso   1.000  C
  C398     1.0000 0.06990  0.13310  0.29460  Biso   1.000  C
  C399     1.0000 0.86690  0.93680  0.29460  Biso   1.000  C
  C400     1.0000 0.72987  0.26343  0.62793  Biso   1.000  C
  C401     1.0000 0.73657  0.46643  0.62793  Biso   1.000  C
  C402     1.0000 0.53357  0.27013  0.62793  Biso   1.000  C
  C403     1.0000 0.39653  0.59677  0.96127  Biso   1.000  C
  C404     1.0000 0.40323  0.79977  0.96127  Biso   1.000  C
  C405     1.0000 0.20023  0.60347  0.96127  Biso   1.000  C
  C406     1.0000 0.93680  0.06990  0.70540  Biso   1.000  C
  C407     1.0000 0.93010  0.86690  0.70540  Biso   1.000  C
  C408     1.0000 0.13310  0.06320  0.70540  Biso   1.000  C
  C409     1.0000 0.60347  0.40323  0.03873  Biso   1.000  C
  C410     1.0000 0.59677  0.20023  0.03873  Biso   1.000  C
  C411     1.0000 0.79977  0.39653  0.03873  Biso   1.000  C
  C412     1.0000 0.27013  0.73657  0.37207  Biso   1.000  C
  C413     1.0000 0.26343  0.53357  0.37207  Biso   1.000  C
  C414     1.0000 0.46643  0.72987  0.37207  Biso   1.000  C
  H397     1.0000 0.05550  0.92920  0.23610  Biso   1.000  H
  H398     1.0000 0.07080  0.12630  0.23610  Biso   1.000  H
  H399     1.0000 0.87370  0.94450  0.23610  Biso   1.000  H
  H400     1.0000 0.72217  0.26253  0.56943  Biso   1.000  H
  H401     1.0000 0.73747  0.45963  0.56943  Biso   1.000  H
  H402     1.0000 0.54037  0.27783  0.56943  Biso   1.000  H
  H403     1.0000 0.38883  0.59587  0.90277  Biso   1.000  H
  H404     1.0000 0.40413  0.79297  0.90277  Biso   1.000  H
  H405     1.0000 0.20703  0.61117  0.90277  Biso   1.000  H
  H406     1.0000 0.94450  0.07080  0.76390  Biso   1.000  H
  H407     1.0000 0.92920  0.87370  0.76390  Biso   1.000  H
  H408     1.0000 0.12630  0.05550  0.76390  Biso   1.000  H
  H409     1.0000 0.61117  0.40413  0.09723  Biso   1.000  H
  H410     1.0000 0.59587  0.20703  0.09723  Biso   1.000  H
  H411     1.0000 0.79297  0.38883  0.09723  Biso   1.000  H
  H412     1.0000 0.27783  0.73747  0.43057  Biso   1.000  H
  H413     1.0000 0.26253  0.54037  0.43057  Biso   1.000  H
  H414     1.0000 0.45963  0.72217  0.43057  Biso   1.000  H
  C415     1.0000 0.04840  0.93050  0.44890  Biso   1.000  C
  C416     1.0000 0.06950  0.11790  0.44890  Biso   1.000  C
  C417     1.0000 0.88210  0.95160  0.44890  Biso   1.000  C
  C418     1.0000 0.71507  0.26383  0.78223  Biso   1.000  C
  C419     1.0000 0.73617  0.45123  0.78223  Biso   1.000  C
  C420     1.0000 0.54877  0.28493  0.78223  Biso   1.000  C
  C421     1.0000 0.38173  0.59717  0.11557  Biso   1.000  C
  C422     1.0000 0.40283  0.78457  0.11557  Biso   1.000  C
  C423     1.0000 0.21543  0.61827  0.11557  Biso   1.000  C
  C424     1.0000 0.95160  0.06950  0.55110  Biso   1.000  C
  C425     1.0000 0.93050  0.88210  0.55110  Biso   1.000  C
  C426     1.0000 0.11790  0.04840  0.55110  Biso   1.000  C
  C427     1.0000 0.61827  0.40283  0.88443  Biso   1.000  C
  C428     1.0000 0.59717  0.21543  0.88443  Biso   1.000  C
  C429     1.0000 0.78457  0.38173  0.88443  Biso   1.000  C
  C430     1.0000 0.28493  0.73617  0.21777  Biso   1.000  C
  C431     1.0000 0.26383  0.54877  0.21777  Biso   1.000  C
  C432     1.0000 0.45123  0.71507  0.21777  Biso   1.000  C
  H415     1.0000 0.02960  0.92600  0.49370  Biso   1.000  H
  H416     1.0000 0.07400  0.10360  0.49370  Biso   1.000  H
  H417     1.0000 0.89640  0.97040  0.49370  Biso   1.000  H
  H418     1.0000 0.69627  0.25933  0.82703  Biso   1.000  H
  H419     1.0000 0.74067  0.43693  0.82703  Biso   1.000  H
  H420     1.0000 0.56307  0.30373  0.82703  Biso   1.000  H
  H421     1.0000 0.36293  0.59267  0.16037  Biso   1.000  H
  H422     1.0000 0.40733  0.77027  0.16037  Biso   1.000  H
  H423     1.0000 0.22973  0.63707  0.16037  Biso   1.000  H
  H424     1.0000 0.97040  0.07400  0.50630  Biso   1.000  H
  H425     1.0000 0.92600  0.89640  0.50630  Biso   1.000  H
  H426     1.0000 0.10360  0.02960  0.50630  Biso   1.000  H
  H427     1.0000 0.63707  0.40733  0.83963  Biso   1.000  H
  H428     1.0000 0.59267  0.22973  0.83963  Biso   1.000  H
  H429     1.0000 0.77027  0.36293  0.83963  Biso   1.000  H
  H430     1.0000 0.30373  0.74067  0.17297  Biso   1.000  H
  H431     1.0000 0.25933  0.56307  0.17297  Biso   1.000  H
  H432     1.0000 0.43693  0.69627  0.17297  Biso   1.000  H
  C433     1.0000 0.03970  0.93460  0.36460  Biso   1.000  C
  C434     1.0000 0.06540  0.10510  0.36460  Biso   1.000  C
  C435     1.0000 0.89490  0.96030  0.36460  Biso   1.000  C
  C436     1.0000 0.70637  0.26793  0.69793  Biso   1.000  C
  C437     1.0000 0.73207  0.43843  0.69793  Biso   1.000  C
  C438     1.0000 0.56157  0.29363  0.69793  Biso   1.000  C
  C439     1.0000 0.37303  0.60127  0.03127  Biso   1.000  C
  C440     1.0000 0.39873  0.77177  0.03127  Biso   1.000  C
  C441     1.0000 0.22823  0.62697  0.03127  Biso   1.000  C
  C442     1.0000 0.96030  0.06540  0.63540  Biso   1.000  C
  C443     1.0000 0.93460  0.89490  0.63540  Biso   1.000  C
  C444     1.0000 0.10510  0.03970  0.63540  Biso   1.000  C
  C445     1.0000 0.62697  0.39873  0.96873  Biso   1.000  C
  C446     1.0000 0.60127  0.22823  0.96873  Biso   1.000  C
  C447     1.0000 0.77177  0.37303  0.96873  Biso   1.000  C
  C448     1.0000 0.29363  0.73207  0.30207  Biso   1.000  C
  C449     1.0000 0.26793  0.56157  0.30207  Biso   1.000  C
  C450     1.0000 0.43843  0.70637  0.30207  Biso   1.000  C
  H433     1.0000 0.01430  0.93230  0.35090  Biso   1.000  H
  H434     1.0000 0.06770  0.08200  0.35090  Biso   1.000  H
  H435     1.0000 0.91800  0.98570  0.35090  Biso   1.000  H
  H436     1.0000 0.68097  0.26563  0.68423  Biso   1.000  H
  H437     1.0000 0.73437  0.41533  0.68423  Biso   1.000  H
  H438     1.0000 0.58467  0.31903  0.68423  Biso   1.000  H
  H439     1.0000 0.34763  0.59897  0.01757  Biso   1.000  H
  H440     1.0000 0.40103  0.74867  0.01757  Biso   1.000  H
  H441     1.0000 0.25133  0.65237  0.01757  Biso   1.000  H
  H442     1.0000 0.98570  0.06770  0.64910  Biso   1.000  H
  H443     1.0000 0.93230  0.91800  0.64910  Biso   1.000  H
  H444     1.0000 0.08200  0.01430  0.64910  Biso   1.000  H
  H445     1.0000 0.65237  0.40103  0.98243  Biso   1.000  H
  H446     1.0000 0.59897  0.25133  0.98243  Biso   1.000  H
  H447     1.0000 0.74867  0.34763  0.98243  Biso   1.000  H
  H448     1.0000 0.31903  0.73437  0.31577  Biso   1.000  H
  H449     1.0000 0.26563  0.58467  0.31577  Biso   1.000  H
  H450     1.0000 0.41533  0.68097  0.31577  Biso   1.000  H
  C451     1.0000 0.06750  0.94210  0.30000  Biso   1.000  C
  C452     1.0000 0.05790  0.12540  0.30000  Biso   1.000  C
  C453     1.0000 0.87460  0.93250  0.30000  Biso   1.000  C
  C454     1.0000 0.73417  0.27543  0.63333  Biso   1.000  C
  C455     1.0000 0.72457  0.45873  0.63333  Biso   1.000  C
  C456     1.0000 0.54127  0.26583  0.63333  Biso   1.000  C
  C457     1.0000 0.40083  0.60877  0.96667  Biso   1.000  C
  C458     1.0000 0.39123  0.79207  0.96667  Biso   1.000  C
  C459     1.0000 0.20793  0.59917  0.96667  Biso   1.000  C
  C460     1.0000 0.93250  0.05790  0.70000  Biso   1.000  C
  C461     1.0000 0.94210  0.87460  0.70000  Biso   1.000  C
  C462     1.0000 0.12540  0.06750  0.70000  Biso   1.000  C
  C463     1.0000 0.59917  0.39123  0.03333  Biso   1.000  C
  C464     1.0000 0.60877  0.20793  0.03333  Biso   1.000  C
  C465     1.0000 0.79207  0.40083  0.03333  Biso   1.000  C
  C466     1.0000 0.26583  0.72457  0.36667  Biso   1.000  C
  C467     1.0000 0.27543  0.54127  0.36667  Biso   1.000  C
  C468     1.0000 0.45873  0.73417  0.36667  Biso   1.000  C
  H451     1.0000 0.06140  0.94650  0.24290  Biso   1.000  H
  H452     1.0000 0.05350  0.11490  0.24290  Biso   1.000  H
  H453     1.0000 0.88510  0.93860  0.24290  Biso   1.000  H
  H454     1.0000 0.72807  0.27983  0.57623  Biso   1.000  H
  H455     1.0000 0.72017  0.44823  0.57623  Biso   1.000  H
  H456     1.0000 0.55177  0.27193  0.57623  Biso   1.000  H
  H457     1.0000 0.39473  0.61317  0.90957  Biso   1.000  H
  H458     1.0000 0.38683  0.78157  0.90957  Biso   1.000  H
  H459     1.0000 0.21843  0.60527  0.90957  Biso   1.000  H
  H460     1.0000 0.93860  0.05350  0.75710  Biso   1.000  H
  H461     1.0000 0.94650  0.88510  0.75710  Biso   1.000  H
  H462     1.0000 0.11490  0.06140  0.75710  Biso   1.000  H
  H463     1.0000 0.60527  0.38683  0.09043  Biso   1.000  H
  H464     1.0000 0.61317  0.21843  0.09043  Biso   1.000  H
  H465     1.0000 0.78157  0.39473  0.09043  Biso   1.000  H
  H466     1.0000 0.27193  0.72017  0.42377  Biso   1.000  H
  H467     1.0000 0.27983  0.55177  0.42377  Biso   1.000  H
  H468     1.0000 0.44823  0.72807  0.42377  Biso   1.000  H
  N73      1.0000 0.18743  0.99647  0.74510  Biso   1.000  N
  N74      1.0000 0.00353  0.19096  0.74510  Biso   1.000  N
  N75      1.0000 0.80904  0.81257  0.74510  Biso   1.000  N
  N76      1.0000 0.85410  0.32980  0.07843  Biso   1.000  N
  N77      1.0000 0.67020  0.52429  0.07843  Biso   1.000  N
  N78      1.0000 0.47571  0.14590  0.07843  Biso   1.000  N
  N79      1.0000 0.52076  0.66314  0.41177  Biso   1.000  N
  N80      1.0000 0.33686  0.85763  0.41177  Biso   1.000  N
  N81      1.0000 0.14237  0.47924  0.41177  Biso   1.000  N
  N82      1.0000 0.81257  0.00353  0.25490  Biso   1.000  N
  N83      1.0000 0.99647  0.80904  0.25490  Biso   1.000  N
  N84      1.0000 0.19096  0.18743  0.25490  Biso   1.000  N
  N85      1.0000 0.47924  0.33686  0.58823  Biso   1.000  N
  N86      1.0000 0.66314  0.14237  0.58823  Biso   1.000  N
  N87      1.0000 0.85763  0.52076  0.58823  Biso   1.000  N
  N88      1.0000 0.14590  0.67020  0.92157  Biso   1.000  N
  N89      1.0000 0.32980  0.47571  0.92157  Biso   1.000  N
  N90      1.0000 0.52429  0.85410  0.92157  Biso   1.000  N
  N91      1.0000 0.21063  0.02264  0.68225  Biso   1.000  N
  N92      1.0000 0.97736  0.18799  0.68225  Biso   1.000  N
  N93      1.0000 0.81201  0.78937  0.68225  Biso   1.000  N
  N94      1.0000 0.87730  0.35597  0.01558  Biso   1.000  N
  N95      1.0000 0.64403  0.52132  0.01558  Biso   1.000  N
  N96      1.0000 0.47868  0.12270  0.01558  Biso   1.000  N
  N97      1.0000 0.54396  0.68931  0.34892  Biso   1.000  N
  N98      1.0000 0.31069  0.85466  0.34892  Biso   1.000  N
  N99      1.0000 0.14534  0.45604  0.34892  Biso   1.000  N
  N100     1.0000 0.78937  0.97736  0.31775  Biso   1.000  N
  N101     1.0000 0.02264  0.81201  0.31775  Biso   1.000  N
  N102     1.0000 0.18799  0.21063  0.31775  Biso   1.000  N
  N103     1.0000 0.45604  0.31069  0.65108  Biso   1.000  N
  N104     1.0000 0.68931  0.14534  0.65108  Biso   1.000  N
  N105     1.0000 0.85466  0.54396  0.65108  Biso   1.000  N
  N106     1.0000 0.12270  0.64403  0.98442  Biso   1.000  N
  N107     1.0000 0.35597  0.47868  0.98442  Biso   1.000  N
  N108     1.0000 0.52132  0.87730  0.98442  Biso   1.000  N
  C469     1.0000 0.18602  0.01621  0.81650  Biso   1.000  C
  C470     1.0000 0.98379  0.16981  0.81650  Biso   1.000  C
  C471     1.0000 0.83019  0.81398  0.81650  Biso   1.000  C
  C472     1.0000 0.85269  0.34954  0.14983  Biso   1.000  C
  C473     1.0000 0.65046  0.50314  0.14983  Biso   1.000  C
  C474     1.0000 0.49686  0.14731  0.14983  Biso   1.000  C
  C475     1.0000 0.51935  0.68288  0.48317  Biso   1.000  C
  C476     1.0000 0.31712  0.83648  0.48317  Biso   1.000  C
  C477     1.0000 0.16352  0.48065  0.48317  Biso   1.000  C
  C478     1.0000 0.81398  0.98379  0.18350  Biso   1.000  C
  C479     1.0000 0.01621  0.83019  0.18350  Biso   1.000  C
  C480     1.0000 0.16981  0.18602  0.18350  Biso   1.000  C
  C481     1.0000 0.48065  0.31712  0.51683  Biso   1.000  C
  C482     1.0000 0.68288  0.16352  0.51683  Biso   1.000  C
  C483     1.0000 0.83648  0.51935  0.51683  Biso   1.000  C
  C484     1.0000 0.14731  0.65046  0.85017  Biso   1.000  C
  C485     1.0000 0.34954  0.49686  0.85017  Biso   1.000  C
  C486     1.0000 0.50314  0.85269  0.85017  Biso   1.000  C
  H469     1.0000 0.17150  0.00420  0.86800  Biso   1.000  H
  H470     1.0000 0.99580  0.16730  0.86800  Biso   1.000  H
  H471     1.0000 0.83270  0.82850  0.86800  Biso   1.000  H
  H472     1.0000 0.83817  0.33753  0.20133  Biso   1.000  H
  H473     1.0000 0.66247  0.50063  0.20133  Biso   1.000  H
  H474     1.0000 0.49937  0.16183  0.20133  Biso   1.000  H
  H475     1.0000 0.50483  0.67087  0.53467  Biso   1.000  H
  H476     1.0000 0.32913  0.83397  0.53467  Biso   1.000  H
  H477     1.0000 0.16603  0.49517  0.53467  Biso   1.000  H
  H478     1.0000 0.82850  0.99580  0.13200  Biso   1.000  H
  H479     1.0000 0.00420  0.83270  0.13200  Biso   1.000  H
  H480     1.0000 0.16730  0.17150  0.13200  Biso   1.000  H
  H481     1.0000 0.49517  0.32913  0.46533  Biso   1.000  H
  H482     1.0000 0.67087  0.16603  0.46533  Biso   1.000  H
  H483     1.0000 0.83397  0.50483  0.46533  Biso   1.000  H
  H484     1.0000 0.16183  0.66247  0.79867  Biso   1.000  H
  H485     1.0000 0.33753  0.49937  0.79867  Biso   1.000  H
  H486     1.0000 0.50063  0.83817  0.79867  Biso   1.000  H
  C487     1.0000 0.20953  0.05667  0.79990  Biso   1.000  C
  C488     1.0000 0.94333  0.15286  0.79990  Biso   1.000  C
  C489     1.0000 0.84714  0.79047  0.79990  Biso   1.000  C
  C490     1.0000 0.87620  0.39000  0.13323  Biso   1.000  C
  C491     1.0000 0.61000  0.48619  0.13323  Biso   1.000  C
  C492     1.0000 0.51381  0.12380  0.13323  Biso   1.000  C
  C493     1.0000 0.54286  0.72334  0.46657  Biso   1.000  C
  C494     1.0000 0.27666  0.81953  0.46657  Biso   1.000  C
  C495     1.0000 0.18047  0.45714  0.46657  Biso   1.000  C
  C496     1.0000 0.79047  0.94333  0.20010  Biso   1.000  C
  C497     1.0000 0.05667  0.84714  0.20010  Biso   1.000  C
  C498     1.0000 0.15286  0.20953  0.20010  Biso   1.000  C
  C499     1.0000 0.45714  0.27666  0.53343  Biso   1.000  C
  C500     1.0000 0.72334  0.18047  0.53343  Biso   1.000  C
  C501     1.0000 0.81953  0.54286  0.53343  Biso   1.000  C
  C502     1.0000 0.12380  0.61000  0.86677  Biso   1.000  C
  C503     1.0000 0.39000  0.51381  0.86677  Biso   1.000  C
  C504     1.0000 0.48619  0.87620  0.86677  Biso   1.000  C
  H487     1.0000 0.21500  0.07840  0.83800  Biso   1.000  H
  H488     1.0000 0.92160  0.13660  0.83800  Biso   1.000  H
  H489     1.0000 0.86340  0.78500  0.83800  Biso   1.000  H
  H490     1.0000 0.88167  0.41173  0.17133  Biso   1.000  H
  H491     1.0000 0.58827  0.46993  0.17133  Biso   1.000  H
  H492     1.0000 0.53007  0.11833  0.17133  Biso   1.000  H
  H493     1.0000 0.54833  0.74507  0.50467  Biso   1.000  H
  H494     1.0000 0.25493  0.80327  0.50467  Biso   1.000  H
  H495     1.0000 0.19673  0.45167  0.50467  Biso   1.000  H
  H496     1.0000 0.78500  0.92160  0.16200  Biso   1.000  H
  H497     1.0000 0.07840  0.86340  0.16200  Biso   1.000  H
  H498     1.0000 0.13660  0.21500  0.16200  Biso   1.000  H
  H499     1.0000 0.45167  0.25493  0.49533  Biso   1.000  H
  H500     1.0000 0.74507  0.19673  0.49533  Biso   1.000  H
  H501     1.0000 0.80327  0.54833  0.49533  Biso   1.000  H
  H502     1.0000 0.11833  0.58827  0.82867  Biso   1.000  H
  H503     1.0000 0.41173  0.53007  0.82867  Biso   1.000  H
  H504     1.0000 0.46993  0.88167  0.82867  Biso   1.000  H
  C505     1.0000 0.22393  0.05985  0.71570  Biso   1.000  C
  C506     1.0000 0.94015  0.16408  0.71570  Biso   1.000  C
  C507     1.0000 0.83592  0.77607  0.71570  Biso   1.000  C
  C508     1.0000 0.89060  0.39318  0.04903  Biso   1.000  C
  C509     1.0000 0.60682  0.49741  0.04903  Biso   1.000  C
  C510     1.0000 0.50259  0.10940  0.04903  Biso   1.000  C
  C511     1.0000 0.55726  0.72652  0.38237  Biso   1.000  C
  C512     1.0000 0.27348  0.83075  0.38237  Biso   1.000  C
  C513     1.0000 0.16925  0.44274  0.38237  Biso   1.000  C
  C514     1.0000 0.77607  0.94015  0.28430  Biso   1.000  C
  C515     1.0000 0.05985  0.83592  0.28430  Biso   1.000  C
  C516     1.0000 0.16408  0.22393  0.28430  Biso   1.000  C
  C517     1.0000 0.44274  0.27348  0.61763  Biso   1.000  C
  C518     1.0000 0.72652  0.16925  0.61763  Biso   1.000  C
  C519     1.0000 0.83075  0.55726  0.61763  Biso   1.000  C
  C520     1.0000 0.10940  0.60682  0.95097  Biso   1.000  C
  C521     1.0000 0.39318  0.50259  0.95097  Biso   1.000  C
  C522     1.0000 0.49741  0.89060  0.95097  Biso   1.000  C
  C523     1.0000 0.25130  0.09810  0.67120  Biso   1.000  C
  C524     1.0000 0.90190  0.15320  0.67120  Biso   1.000  C
  C525     1.0000 0.84680  0.74870  0.67120  Biso   1.000  C
  C526     1.0000 0.91797  0.43143  0.00453  Biso   1.000  C
  C527     1.0000 0.56857  0.48653  0.00453  Biso   1.000  C
  C528     1.0000 0.51347  0.08203  0.00453  Biso   1.000  C
  C529     1.0000 0.58463  0.76477  0.33787  Biso   1.000  C
  C530     1.0000 0.23523  0.81987  0.33787  Biso   1.000  C
  C531     1.0000 0.18013  0.41537  0.33787  Biso   1.000  C
  C532     1.0000 0.74870  0.90190  0.32880  Biso   1.000  C
  C533     1.0000 0.09810  0.84680  0.32880  Biso   1.000  C
  C534     1.0000 0.15320  0.25130  0.32880  Biso   1.000  C
  C535     1.0000 0.41537  0.23523  0.66213  Biso   1.000  C
  C536     1.0000 0.76477  0.18013  0.66213  Biso   1.000  C
  C537     1.0000 0.81987  0.58463  0.66213  Biso   1.000  C
  C538     1.0000 0.08203  0.56857  0.99547  Biso   1.000  C
  C539     1.0000 0.43143  0.51347  0.99547  Biso   1.000  C
  C540     1.0000 0.48653  0.91797  0.99547  Biso   1.000  C
  C541     1.0000 0.27280  0.13520  0.71310  Biso   1.000  C
  C542     1.0000 0.86480  0.13760  0.71310  Biso   1.000  C
  C543     1.0000 0.86240  0.72720  0.71310  Biso   1.000  C
  C544     1.0000 0.93947  0.46853  0.04643  Biso   1.000  C
  C545     1.0000 0.53147  0.47093  0.04643  Biso   1.000  C
  C546     1.0000 0.52907  0.06053  0.04643  Biso   1.000  C
  C547     1.0000 0.60613  0.80187  0.37977  Biso   1.000  C
  C548     1.0000 0.19813  0.80427  0.37977  Biso   1.000  C
  C549     1.0000 0.19573  0.39387  0.37977  Biso   1.000  C
  C550     1.0000 0.72720  0.86480  0.28690  Biso   1.000  C
  C551     1.0000 0.13520  0.86240  0.28690  Biso   1.000  C
  C552     1.0000 0.13760  0.27280  0.28690  Biso   1.000  C
  C553     1.0000 0.39387  0.19813  0.62023  Biso   1.000  C
  C554     1.0000 0.80187  0.19573  0.62023  Biso   1.000  C
  C555     1.0000 0.80427  0.60613  0.62023  Biso   1.000  C
  C556     1.0000 0.06053  0.53147  0.95357  Biso   1.000  C
  C557     1.0000 0.46853  0.52907  0.95357  Biso   1.000  C
  C558     1.0000 0.47093  0.93947  0.95357  Biso   1.000  C
  H505     1.0000 0.27070  0.13640  0.77390  Biso   1.000  H
  H506     1.0000 0.86360  0.13430  0.77390  Biso   1.000  H
  H507     1.0000 0.86570  0.72930  0.77390  Biso   1.000  H
  H508     1.0000 0.93737  0.46973  0.10723  Biso   1.000  H
  H509     1.0000 0.53027  0.46763  0.10723  Biso   1.000  H
  H510     1.0000 0.53237  0.06263  0.10723  Biso   1.000  H
  H511     1.0000 0.60403  0.80307  0.44057  Biso   1.000  H
  H512     1.0000 0.19693  0.80097  0.44057  Biso   1.000  H
  H513     1.0000 0.19903  0.39597  0.44057  Biso   1.000  H
  H514     1.0000 0.72930  0.86360  0.22610  Biso   1.000  H
  H515     1.0000 0.13640  0.86570  0.22610  Biso   1.000  H
  H516     1.0000 0.13430  0.27070  0.22610  Biso   1.000  H
  H517     1.0000 0.39597  0.19693  0.55943  Biso   1.000  H
  H518     1.0000 0.80307  0.19903  0.55943  Biso   1.000  H
  H519     1.0000 0.80097  0.60403  0.55943  Biso   1.000  H
  H520     1.0000 0.06263  0.53027  0.89277  Biso   1.000  H
  H521     1.0000 0.46973  0.53237  0.89277  Biso   1.000  H
  H522     1.0000 0.46763  0.93737  0.89277  Biso   1.000  H
  C559     1.0000 0.29700  0.17020  0.66810  Biso   1.000  C
  C560     1.0000 0.82980  0.12680  0.66810  Biso   1.000  C
  C561     1.0000 0.87320  0.70300  0.66810  Biso   1.000  C
  C562     1.0000 0.96367  0.50353  0.00143  Biso   1.000  C
  C563     1.0000 0.49647  0.46013  0.00143  Biso   1.000  C
  C564     1.0000 0.53987  0.03633  0.00143  Biso   1.000  C
  C565     1.0000 0.63033  0.83687  0.33477  Biso   1.000  C
  C566     1.0000 0.16313  0.79347  0.33477  Biso   1.000  C
  C567     1.0000 0.20653  0.36967  0.33477  Biso   1.000  C
  C568     1.0000 0.70300  0.82980  0.33190  Biso   1.000  C
  C569     1.0000 0.17020  0.87320  0.33190  Biso   1.000  C
  C570     1.0000 0.12680  0.29700  0.33190  Biso   1.000  C
  C571     1.0000 0.36967  0.16313  0.66523  Biso   1.000  C
  C572     1.0000 0.83687  0.20653  0.66523  Biso   1.000  C
  C573     1.0000 0.79347  0.63033  0.66523  Biso   1.000  C
  C574     1.0000 0.03633  0.49647  0.99857  Biso   1.000  C
  C575     1.0000 0.50353  0.53987  0.99857  Biso   1.000  C
  C576     1.0000 0.46013  0.96367  0.99857  Biso   1.000  C
  H523     1.0000 0.31070  0.19550  0.69770  Biso   1.000  H
  H524     1.0000 0.80450  0.11520  0.69770  Biso   1.000  H
  H525     1.0000 0.88480  0.68930  0.69770  Biso   1.000  H
  H526     1.0000 0.97737  0.52883  0.03103  Biso   1.000  H
  H527     1.0000 0.47117  0.44853  0.03103  Biso   1.000  H
  H528     1.0000 0.55147  0.02263  0.03103  Biso   1.000  H
  H529     1.0000 0.64403  0.86217  0.36437  Biso   1.000  H
  H530     1.0000 0.13783  0.78187  0.36437  Biso   1.000  H
  H531     1.0000 0.21813  0.35597  0.36437  Biso   1.000  H
  H532     1.0000 0.68930  0.80450  0.30230  Biso   1.000  H
  H533     1.0000 0.19550  0.88480  0.30230  Biso   1.000  H
  H534     1.0000 0.11520  0.31070  0.30230  Biso   1.000  H
  H535     1.0000 0.35597  0.13783  0.63563  Biso   1.000  H
  H536     1.0000 0.86217  0.21813  0.63563  Biso   1.000  H
  H537     1.0000 0.78187  0.64403  0.63563  Biso   1.000  H
  H538     1.0000 0.02263  0.47117  0.96897  Biso   1.000  H
  H539     1.0000 0.52883  0.55147  0.96897  Biso   1.000  H
  H540     1.0000 0.44853  0.97737  0.96897  Biso   1.000  H
  C577     1.0000 0.30150  0.16890  0.57970  Biso   1.000  C
  C578     1.0000 0.83110  0.13260  0.57970  Biso   1.000  C
  C579     1.0000 0.86740  0.69850  0.57970  Biso   1.000  C
  C580     1.0000 0.96817  0.50223  0.91303  Biso   1.000  C
  C581     1.0000 0.49777  0.46593  0.91303  Biso   1.000  C
  C582     1.0000 0.53407  0.03183  0.91303  Biso   1.000  C
  C583     1.0000 0.63483  0.83557  0.24637  Biso   1.000  C
  C584     1.0000 0.16443  0.79927  0.24637  Biso   1.000  C
  C585     1.0000 0.20073  0.36517  0.24637  Biso   1.000  C
  C586     1.0000 0.69850  0.83110  0.42030  Biso   1.000  C
  C587     1.0000 0.16890  0.86740  0.42030  Biso   1.000  C
  C588     1.0000 0.13260  0.30150  0.42030  Biso   1.000  C
  C589     1.0000 0.36517  0.16443  0.75363  Biso   1.000  C
  C590     1.0000 0.83557  0.20073  0.75363  Biso   1.000  C
  C591     1.0000 0.79927  0.63483  0.75363  Biso   1.000  C
  C592     1.0000 0.03183  0.49777  0.08697  Biso   1.000  C
  C593     1.0000 0.50223  0.53407  0.08697  Biso   1.000  C
  C594     1.0000 0.46593  0.96817  0.08697  Biso   1.000  C
  H541     1.0000 0.31870  0.19320  0.54900  Biso   1.000  H
  H542     1.0000 0.80680  0.12550  0.54900  Biso   1.000  H
  H543     1.0000 0.87450  0.68130  0.54900  Biso   1.000  H
  H544     1.0000 0.98537  0.52653  0.88233  Biso   1.000  H
  H545     1.0000 0.47347  0.45883  0.88233  Biso   1.000  H
  H546     1.0000 0.54117  0.01463  0.88233  Biso   1.000  H
  H547     1.0000 0.65203  0.85987  0.21567  Biso   1.000  H
  H548     1.0000 0.14013  0.79217  0.21567  Biso   1.000  H
  H549     1.0000 0.20783  0.34797  0.21567  Biso   1.000  H
  H550     1.0000 0.68130  0.80680  0.45100  Biso   1.000  H
  H551     1.0000 0.19320  0.87450  0.45100  Biso   1.000  H
  H552     1.0000 0.12550  0.31870  0.45100  Biso   1.000  H
  H553     1.0000 0.34797  0.14013  0.78433  Biso   1.000  H
  H554     1.0000 0.85987  0.20783  0.78433  Biso   1.000  H
  H555     1.0000 0.79217  0.65203  0.78433  Biso   1.000  H
  H556     1.0000 0.01463  0.47347  0.11767  Biso   1.000  H
  H557     1.0000 0.52653  0.54117  0.11767  Biso   1.000  H
  H558     1.0000 0.45883  0.98537  0.11767  Biso   1.000  H
  C595     1.0000 0.25530  0.09750  0.58160  Biso   1.000  C
  C596     1.0000 0.90250  0.15780  0.58160  Biso   1.000  C
  C597     1.0000 0.84220  0.74470  0.58160  Biso   1.000  C
  C598     1.0000 0.92197  0.43083  0.91493  Biso   1.000  C
  C599     1.0000 0.56917  0.49113  0.91493  Biso   1.000  C
  C600     1.0000 0.50887  0.07803  0.91493  Biso   1.000  C
  C601     1.0000 0.58863  0.76417  0.24827  Biso   1.000  C
  C602     1.0000 0.23583  0.82447  0.24827  Biso   1.000  C
  C603     1.0000 0.17553  0.41137  0.24827  Biso   1.000  C
  C604     1.0000 0.74470  0.90250  0.41840  Biso   1.000  C
  C605     1.0000 0.09750  0.84220  0.41840  Biso   1.000  C
  C606     1.0000 0.15780  0.25530  0.41840  Biso   1.000  C
  C607     1.0000 0.41137  0.23583  0.75173  Biso   1.000  C
  C608     1.0000 0.76417  0.17553  0.75173  Biso   1.000  C
  C609     1.0000 0.82447  0.58863  0.75173  Biso   1.000  C
  C610     1.0000 0.07803  0.56917  0.08507  Biso   1.000  C
  C611     1.0000 0.43083  0.50887  0.08507  Biso   1.000  C
  C612     1.0000 0.49113  0.92197  0.08507  Biso   1.000  C
  H559     1.0000 0.23990  0.07260  0.55150  Biso   1.000  H
  H560     1.0000 0.92740  0.16730  0.55150  Biso   1.000  H
  H561     1.0000 0.83270  0.76010  0.55150  Biso   1.000  H
  H562     1.0000 0.90657  0.40593  0.88483  Biso   1.000  H
  H563     1.0000 0.59407  0.50063  0.88483  Biso   1.000  H
  H564     1.0000 0.49937  0.09343  0.88483  Biso   1.000  H
  H565     1.0000 0.57323  0.73927  0.21817  Biso   1.000  H
  H566     1.0000 0.26073  0.83397  0.21817  Biso   1.000  H
  H567     1.0000 0.16603  0.42677  0.21817  Biso   1.000  H
  H568     1.0000 0.76010  0.92740  0.44850  Biso   1.000  H
  H569     1.0000 0.07260  0.83270  0.44850  Biso   1.000  H
  H570     1.0000 0.16730  0.23990  0.44850  Biso   1.000  H
  H571     1.0000 0.42677  0.26073  0.78183  Biso   1.000  H
  H572     1.0000 0.73927  0.16603  0.78183  Biso   1.000  H
  H573     1.0000 0.83397  0.57323  0.78183  Biso   1.000  H
  H574     1.0000 0.09343  0.59407  0.11517  Biso   1.000  H
  H575     1.0000 0.40593  0.49937  0.11517  Biso   1.000  H
  H576     1.0000 0.50063  0.90657  0.11517  Biso   1.000  H
  C613     1.0000 0.28100  0.13230  0.53580  Biso   1.000  C
  C614     1.0000 0.86770  0.14870  0.53580  Biso   1.000  C
  C615     1.0000 0.85130  0.71900  0.53580  Biso   1.000  C
  C616     1.0000 0.94767  0.46563  0.86913  Biso   1.000  C
  C617     1.0000 0.53437  0.48203  0.86913  Biso   1.000  C
  C618     1.0000 0.51797  0.05233  0.86913  Biso   1.000  C
  C619     1.0000 0.61433  0.79897  0.20247  Biso   1.000  C
  C620     1.0000 0.20103  0.81537  0.20247  Biso   1.000  C
  C621     1.0000 0.18463  0.38567  0.20247  Biso   1.000  C
  C622     1.0000 0.71900  0.86770  0.46420  Biso   1.000  C
  C623     1.0000 0.13230  0.85130  0.46420  Biso   1.000  C
  C624     1.0000 0.14870  0.28100  0.46420  Biso   1.000  C
  C625     1.0000 0.38567  0.20103  0.79753  Biso   1.000  C
  C626     1.0000 0.79897  0.18463  0.79753  Biso   1.000  C
  C627     1.0000 0.81537  0.61433  0.79753  Biso   1.000  C
  C628     1.0000 0.05233  0.53437  0.13087  Biso   1.000  C
  C629     1.0000 0.46563  0.51797  0.13087  Biso   1.000  C
  C630     1.0000 0.48203  0.94767  0.13087  Biso   1.000  C
  C631     1.0000 0.28640  0.13120  0.43860  Biso   1.000  C
  C632     1.0000 0.86880  0.15520  0.43860  Biso   1.000  C
  C633     1.0000 0.84480  0.71360  0.43860  Biso   1.000  C
  C634     1.0000 0.95307  0.46453  0.77193  Biso   1.000  C
  C635     1.0000 0.53547  0.48853  0.77193  Biso   1.000  C
  C636     1.0000 0.51147  0.04693  0.77193  Biso   1.000  C
  C637     1.0000 0.61973  0.79787  0.10527  Biso   1.000  C
  C638     1.0000 0.20213  0.82187  0.10527  Biso   1.000  C
  C639     1.0000 0.17813  0.38027  0.10527  Biso   1.000  C
  C640     1.0000 0.71360  0.86880  0.56140  Biso   1.000  C
  C641     1.0000 0.13120  0.84480  0.56140  Biso   1.000  C
  C642     1.0000 0.15520  0.28640  0.56140  Biso   1.000  C
  C643     1.0000 0.38027  0.20213  0.89473  Biso   1.000  C
  C644     1.0000 0.79787  0.17813  0.89473  Biso   1.000  C
  C645     1.0000 0.82187  0.61973  0.89473  Biso   1.000  C
  C646     1.0000 0.04693  0.53547  0.22807  Biso   1.000  C
  C647     1.0000 0.46453  0.51147  0.22807  Biso   1.000  C
  C648     1.0000 0.48853  0.95307  0.22807  Biso   1.000  C
  H577     1.0000 0.31330  0.15390  0.42160  Biso   1.000  H
  H578     1.0000 0.84610  0.15940  0.42160  Biso   1.000  H
  H579     1.0000 0.84060  0.68670  0.42160  Biso   1.000  H
  H580     1.0000 0.97997  0.48723  0.75493  Biso   1.000  H
  H581     1.0000 0.51277  0.49273  0.75493  Biso   1.000  H
  H582     1.0000 0.50727  0.02003  0.75493  Biso   1.000  H
  H583     1.0000 0.64663  0.82057  0.08827  Biso   1.000  H
  H584     1.0000 0.17943  0.82607  0.08827  Biso   1.000  H
  H585     1.0000 0.17393  0.35337  0.08827  Biso   1.000  H
  H586     1.0000 0.68670  0.84610  0.57840  Biso   1.000  H
  H587     1.0000 0.15390  0.84060  0.57840  Biso   1.000  H
  H588     1.0000 0.15940  0.31330  0.57840  Biso   1.000  H
  H589     1.0000 0.35337  0.17943  0.91173  Biso   1.000  H
  H590     1.0000 0.82057  0.17393  0.91173  Biso   1.000  H
  H591     1.0000 0.82607  0.64663  0.91173  Biso   1.000  H
  H592     1.0000 0.02003  0.51277  0.24507  Biso   1.000  H
  H593     1.0000 0.48723  0.50727  0.24507  Biso   1.000  H
  H594     1.0000 0.49273  0.97997  0.24507  Biso   1.000  H
  H595     1.0000 0.26540  0.13470  0.40850  Biso   1.000  H
  H596     1.0000 0.86530  0.13070  0.40850  Biso   1.000  H
  H597     1.0000 0.86930  0.73460  0.40850  Biso   1.000  H
  H598     1.0000 0.93207  0.46803  0.74183  Biso   1.000  H
  H599     1.0000 0.53197  0.46403  0.74183  Biso   1.000  H
  H600     1.0000 0.53597  0.06793  0.74183  Biso   1.000  H
  H601     1.0000 0.59873  0.80137  0.07517  Biso   1.000  H
  H602     1.0000 0.19863  0.79737  0.07517  Biso   1.000  H
  H603     1.0000 0.20263  0.40127  0.07517  Biso   1.000  H
  H604     1.0000 0.73460  0.86530  0.59150  Biso   1.000  H
  H605     1.0000 0.13470  0.86930  0.59150  Biso   1.000  H
  H606     1.0000 0.13070  0.26540  0.59150  Biso   1.000  H
  H607     1.0000 0.40127  0.19863  0.92483  Biso   1.000  H
  H608     1.0000 0.80137  0.20263  0.92483  Biso   1.000  H
  H609     1.0000 0.79737  0.59873  0.92483  Biso   1.000  H
  H610     1.0000 0.06793  0.53197  0.25817  Biso   1.000  H
  H611     1.0000 0.46803  0.53597  0.25817  Biso   1.000  H
  H612     1.0000 0.46403  0.93207  0.25817  Biso   1.000  H
  S37      1.0000 0.28221  0.08359  0.40674  Biso   1.000  S
  S38      1.0000 0.91641  0.19862  0.40674  Biso   1.000  S
  S39      1.0000 0.80138  0.71779  0.40674  Biso   1.000  S
  S40      1.0000 0.94888  0.41692  0.74007  Biso   1.000  S
  S41      1.0000 0.58308  0.53195  0.74007  Biso   1.000  S
  S42      1.0000 0.46805  0.05112  0.74007  Biso   1.000  S
  S43      1.0000 0.61554  0.75026  0.07341  Biso   1.000  S
  S44      1.0000 0.24974  0.86529  0.07341  Biso   1.000  S
  S45      1.0000 0.13471  0.38446  0.07341  Biso   1.000  S
  S46      1.0000 0.71779  0.91641  0.59326  Biso   1.000  S
  S47      1.0000 0.08359  0.80138  0.59326  Biso   1.000  S
  S48      1.0000 0.19862  0.28221  0.59326  Biso   1.000  S
  S49      1.0000 0.38446  0.24974  0.92659  Biso   1.000  S
  S50      1.0000 0.75026  0.13471  0.92659  Biso   1.000  S
  S51      1.0000 0.86529  0.61554  0.92659  Biso   1.000  S
  S52      1.0000 0.05112  0.58308  0.25993  Biso   1.000  S
  S53      1.0000 0.41692  0.46805  0.25993  Biso   1.000  S
  S54      1.0000 0.53195  0.94888  0.25993  Biso   1.000  S
  C649     1.0000 0.29970  0.09420  0.29650  Biso   1.000  C
  C650     1.0000 0.90580  0.20550  0.29650  Biso   1.000  C
  C651     1.0000 0.79450  0.70030  0.29650  Biso   1.000  C
  C652     1.0000 0.96637  0.42753  0.62983  Biso   1.000  C
  C653     1.0000 0.57247  0.53883  0.62983  Biso   1.000  C
  C654     1.0000 0.46117  0.03363  0.62983  Biso   1.000  C
  C655     1.0000 0.63303  0.76087  0.96317  Biso   1.000  C
  C656     1.0000 0.23913  0.87217  0.96317  Biso   1.000  C
  C657     1.0000 0.12783  0.36697  0.96317  Biso   1.000  C
  C658     1.0000 0.70030  0.90580  0.70350  Biso   1.000  C
  C659     1.0000 0.09420  0.79450  0.70350  Biso   1.000  C
  C660     1.0000 0.20550  0.29970  0.70350  Biso   1.000  C
  C661     1.0000 0.36697  0.23913  0.03683  Biso   1.000  C
  C662     1.0000 0.76087  0.12783  0.03683  Biso   1.000  C
  C663     1.0000 0.87217  0.63303  0.03683  Biso   1.000  C
  C664     1.0000 0.03363  0.57247  0.37017  Biso   1.000  C
  C665     1.0000 0.42753  0.46117  0.37017  Biso   1.000  C
  C666     1.0000 0.53883  0.96637  0.37017  Biso   1.000  C
  H613     1.0000 0.29230  0.11350  0.27120  Biso   1.000  H
  H614     1.0000 0.88650  0.17880  0.27120  Biso   1.000  H
  H615     1.0000 0.82120  0.70770  0.27120  Biso   1.000  H
  H616     1.0000 0.95897  0.44683  0.60453  Biso   1.000  H
  H617     1.0000 0.55317  0.51213  0.60453  Biso   1.000  H
  H618     1.0000 0.48787  0.04103  0.60453  Biso   1.000  H
  H619     1.0000 0.62563  0.78017  0.93787  Biso   1.000  H
  H620     1.0000 0.21983  0.84547  0.93787  Biso   1.000  H
  H621     1.0000 0.15453  0.37437  0.93787  Biso   1.000  H
  H622     1.0000 0.70770  0.88650  0.72880  Biso   1.000  H
  H623     1.0000 0.11350  0.82120  0.72880  Biso   1.000  H
  H624     1.0000 0.17880  0.29230  0.72880  Biso   1.000  H
  H625     1.0000 0.37437  0.21983  0.06213  Biso   1.000  H
  H626     1.0000 0.78017  0.15453  0.06213  Biso   1.000  H
  H627     1.0000 0.84547  0.62563  0.06213  Biso   1.000  H
  H628     1.0000 0.04103  0.55317  0.39547  Biso   1.000  H
  H629     1.0000 0.44683  0.48787  0.39547  Biso   1.000  H
  H630     1.0000 0.51213  0.95897  0.39547  Biso   1.000  H
  H631     1.0000 0.32960  0.10700  0.29520  Biso   1.000  H
  H632     1.0000 0.89300  0.22260  0.29520  Biso   1.000  H
  H633     1.0000 0.77740  0.67040  0.29520  Biso   1.000  H
  H634     1.0000 0.99627  0.44033  0.62853  Biso   1.000  H
  H635     1.0000 0.55967  0.55593  0.62853  Biso   1.000  H
  H636     1.0000 0.44407  0.00373  0.62853  Biso   1.000  H
  H637     1.0000 0.66293  0.77367  0.96187  Biso   1.000  H
  H638     1.0000 0.22633  0.88927  0.96187  Biso   1.000  H
  H639     1.0000 0.11073  0.33707  0.96187  Biso   1.000  H
  H640     1.0000 0.67040  0.89300  0.70480  Biso   1.000  H
  H641     1.0000 0.10700  0.77740  0.70480  Biso   1.000  H
  H642     1.0000 0.22260  0.32960  0.70480  Biso   1.000  H
  H643     1.0000 0.33707  0.22633  0.03813  Biso   1.000  H
  H644     1.0000 0.77367  0.11073  0.03813  Biso   1.000  H
  H645     1.0000 0.88927  0.66293  0.03813  Biso   1.000  H
  H646     1.0000 0.00373  0.55967  0.37147  Biso   1.000  H
  H647     1.0000 0.44033  0.44407  0.37147  Biso   1.000  H
  H648     1.0000 0.55593  0.99627  0.37147  Biso   1.000  H
  C667     1.0000 0.24430  0.09340  0.65240  Biso   1.000  C
  C668     1.0000 0.90660  0.15090  0.65240  Biso   1.000  C
  C669     1.0000 0.84910  0.75570  0.65240  Biso   1.000  C
  C670     1.0000 0.91097  0.42673  0.98573  Biso   1.000  C
  C671     1.0000 0.57327  0.48423  0.98573  Biso   1.000  C
  C672     1.0000 0.51577  0.08903  0.98573  Biso   1.000  C
  C673     1.0000 0.57763  0.76007  0.31907  Biso   1.000  C
  C674     1.0000 0.23993  0.81757  0.31907  Biso   1.000  C
  C675     1.0000 0.18243  0.42237  0.31907  Biso   1.000  C
  C676     1.0000 0.75570  0.90660  0.34760  Biso   1.000  C
  C677     1.0000 0.09340  0.84910  0.34760  Biso   1.000  C
  C678     1.0000 0.15090  0.24430  0.34760  Biso   1.000  C
  C679     1.0000 0.42237  0.23993  0.68093  Biso   1.000  C
  C680     1.0000 0.76007  0.18243  0.68093  Biso   1.000  C
  C681     1.0000 0.81757  0.57763  0.68093  Biso   1.000  C
  C682     1.0000 0.08903  0.57327  0.01427  Biso   1.000  C
  C683     1.0000 0.42673  0.51577  0.01427  Biso   1.000  C
  C684     1.0000 0.48423  0.91097  0.01427  Biso   1.000  C
  C685     1.0000 0.26360  0.13200  0.68750  Biso   1.000  C
  C686     1.0000 0.86800  0.13160  0.68750  Biso   1.000  C
  C687     1.0000 0.86840  0.73640  0.68750  Biso   1.000  C
  C688     1.0000 0.93027  0.46533  0.02083  Biso   1.000  C
  C689     1.0000 0.53467  0.46493  0.02083  Biso   1.000  C
  C690     1.0000 0.53507  0.06973  0.02083  Biso   1.000  C
  C691     1.0000 0.59693  0.79867  0.35417  Biso   1.000  C
  C692     1.0000 0.20133  0.79827  0.35417  Biso   1.000  C
  C693     1.0000 0.20173  0.40307  0.35417  Biso   1.000  C
  C694     1.0000 0.73640  0.86800  0.31250  Biso   1.000  C
  C695     1.0000 0.13200  0.86840  0.31250  Biso   1.000  C
  C696     1.0000 0.13160  0.26360  0.31250  Biso   1.000  C
  C697     1.0000 0.40307  0.20133  0.64583  Biso   1.000  C
  C698     1.0000 0.79867  0.20173  0.64583  Biso   1.000  C
  C699     1.0000 0.79827  0.59693  0.64583  Biso   1.000  C
  C700     1.0000 0.06973  0.53467  0.97917  Biso   1.000  C
  C701     1.0000 0.46533  0.53507  0.97917  Biso   1.000  C
  C702     1.0000 0.46493  0.93027  0.97917  Biso   1.000  C
  H649     1.0000 0.26290  0.13560  0.74790  Biso   1.000  H
  H650     1.0000 0.86440  0.12730  0.74790  Biso   1.000  H
  H651     1.0000 0.87270  0.73710  0.74790  Biso   1.000  H
  H652     1.0000 0.92957  0.46893  0.08123  Biso   1.000  H
  H653     1.0000 0.53107  0.46063  0.08123  Biso   1.000  H
  H654     1.0000 0.53937  0.07043  0.08123  Biso   1.000  H
  H655     1.0000 0.59623  0.80227  0.41457  Biso   1.000  H
  H656     1.0000 0.19773  0.79397  0.41457  Biso   1.000  H
  H657     1.0000 0.20603  0.40377  0.41457  Biso   1.000  H
  H658     1.0000 0.73710  0.86440  0.25210  Biso   1.000  H
  H659     1.0000 0.13560  0.87270  0.25210  Biso   1.000  H
  H660     1.0000 0.12730  0.26290  0.25210  Biso   1.000  H
  H661     1.0000 0.40377  0.19773  0.58543  Biso   1.000  H
  H662     1.0000 0.80227  0.20603  0.58543  Biso   1.000  H
  H663     1.0000 0.79397  0.59623  0.58543  Biso   1.000  H
  H664     1.0000 0.07043  0.53107  0.91877  Biso   1.000  H
  H665     1.0000 0.46893  0.53937  0.91877  Biso   1.000  H
  H666     1.0000 0.46063  0.92957  0.91877  Biso   1.000  H
  C703     1.0000 0.28440  0.16610  0.63270  Biso   1.000  C
  C704     1.0000 0.83390  0.11830  0.63270  Biso   1.000  C
  C705     1.0000 0.88170  0.71560  0.63270  Biso   1.000  C
  C706     1.0000 0.95107  0.49943  0.96603  Biso   1.000  C
  C707     1.0000 0.50057  0.45163  0.96603  Biso   1.000  C
  C708     1.0000 0.54837  0.04893  0.96603  Biso   1.000  C
  C709     1.0000 0.61773  0.83277  0.29937  Biso   1.000  C
  C710     1.0000 0.16723  0.78497  0.29937  Biso   1.000  C
  C711     1.0000 0.21503  0.38227  0.29937  Biso   1.000  C
  C712     1.0000 0.71560  0.83390  0.36730  Biso   1.000  C
  C713     1.0000 0.16610  0.88170  0.36730  Biso   1.000  C
  C714     1.0000 0.11830  0.28440  0.36730  Biso   1.000  C
  C715     1.0000 0.38227  0.16723  0.70063  Biso   1.000  C
  C716     1.0000 0.83277  0.21503  0.70063  Biso   1.000  C
  C717     1.0000 0.78497  0.61773  0.70063  Biso   1.000  C
  C718     1.0000 0.04893  0.50057  0.03397  Biso   1.000  C
  C719     1.0000 0.49943  0.54837  0.03397  Biso   1.000  C
  C720     1.0000 0.45163  0.95107  0.03397  Biso   1.000  C
  H667     1.0000 0.29710  0.19290  0.65500  Biso   1.000  H
  H668     1.0000 0.80710  0.10420  0.65500  Biso   1.000  H
  H669     1.0000 0.89580  0.70290  0.65500  Biso   1.000  H
  H670     1.0000 0.96377  0.52623  0.98833  Biso   1.000  H
  H671     1.0000 0.47377  0.43753  0.98833  Biso   1.000  H
  H672     1.0000 0.56247  0.03623  0.98833  Biso   1.000  H
  H673     1.0000 0.63043  0.85957  0.32167  Biso   1.000  H
  H674     1.0000 0.14043  0.77087  0.32167  Biso   1.000  H
  H675     1.0000 0.22913  0.36957  0.32167  Biso   1.000  H
  H676     1.0000 0.70290  0.80710  0.34500  Biso   1.000  H
  H677     1.0000 0.19290  0.89580  0.34500  Biso   1.000  H
  H678     1.0000 0.10420  0.29710  0.34500  Biso   1.000  H
  H679     1.0000 0.36957  0.14043  0.67833  Biso   1.000  H
  H680     1.0000 0.85957  0.22913  0.67833  Biso   1.000  H
  H681     1.0000 0.77087  0.63043  0.67833  Biso   1.000  H
  H682     1.0000 0.03623  0.47377  0.01167  Biso   1.000  H
  H683     1.0000 0.52623  0.56247  0.01167  Biso   1.000  H
  H684     1.0000 0.43753  0.96377  0.01167  Biso   1.000  H
  C721     1.0000 0.28550  0.15880  0.54450  Biso   1.000  C
  C722     1.0000 0.84120  0.12670  0.54450  Biso   1.000  C
  C723     1.0000 0.87330  0.71450  0.54450  Biso   1.000  C
  C724     1.0000 0.95217  0.49213  0.87783  Biso   1.000  C
  C725     1.0000 0.50787  0.46003  0.87783  Biso   1.000  C
  C726     1.0000 0.53997  0.04783  0.87783  Biso   1.000  C
  C727     1.0000 0.61883  0.82547  0.21117  Biso   1.000  C
  C728     1.0000 0.17453  0.79337  0.21117  Biso   1.000  C
  C729     1.0000 0.20663  0.38117  0.21117  Biso   1.000  C
  C730     1.0000 0.71450  0.84120  0.45550  Biso   1.000  C
  C731     1.0000 0.15880  0.87330  0.45550  Biso   1.000  C
  C732     1.0000 0.12670  0.28550  0.45550  Biso   1.000  C
  C733     1.0000 0.38117  0.17453  0.78883  Biso   1.000  C
  C734     1.0000 0.82547  0.20663  0.78883  Biso   1.000  C
  C735     1.0000 0.79337  0.61883  0.78883  Biso   1.000  C
  C736     1.0000 0.04783  0.50787  0.12217  Biso   1.000  C
  C737     1.0000 0.49213  0.53997  0.12217  Biso   1.000  C
  C738     1.0000 0.46003  0.95217  0.12217  Biso   1.000  C
  H685     1.0000 0.30070  0.18120  0.50710  Biso   1.000  H
  H686     1.0000 0.81880  0.11950  0.50710  Biso   1.000  H
  H687     1.0000 0.88050  0.69930  0.50710  Biso   1.000  H
  H688     1.0000 0.96737  0.51453  0.84043  Biso   1.000  H
  H689     1.0000 0.48547  0.45283  0.84043  Biso   1.000  H
  H690     1.0000 0.54717  0.03263  0.84043  Biso   1.000  H
  H691     1.0000 0.63403  0.84787  0.17377  Biso   1.000  H
  H692     1.0000 0.15213  0.78617  0.17377  Biso   1.000  H
  H693     1.0000 0.21383  0.36597  0.17377  Biso   1.000  H
  H694     1.0000 0.69930  0.81880  0.49290  Biso   1.000  H
  H695     1.0000 0.18120  0.88050  0.49290  Biso   1.000  H
  H696     1.0000 0.11950  0.30070  0.49290  Biso   1.000  H
  H697     1.0000 0.36597  0.15213  0.82623  Biso   1.000  H
  H698     1.0000 0.84787  0.21383  0.82623  Biso   1.000  H
  H699     1.0000 0.78617  0.63403  0.82623  Biso   1.000  H
  H700     1.0000 0.03263  0.48547  0.15957  Biso   1.000  H
  H701     1.0000 0.51453  0.54717  0.15957  Biso   1.000  H
  H702     1.0000 0.45283  0.96737  0.15957  Biso   1.000  H
  C739     1.0000 0.24430  0.08760  0.56580  Biso   1.000  C
  C740     1.0000 0.91240  0.15670  0.56580  Biso   1.000  C
  C741     1.0000 0.84330  0.75570  0.56580  Biso   1.000  C
  C742     1.0000 0.91097  0.42093  0.89913  Biso   1.000  C
  C743     1.0000 0.57907  0.49003  0.89913  Biso   1.000  C
  C744     1.0000 0.50997  0.08903  0.89913  Biso   1.000  C
  C745     1.0000 0.57763  0.75427  0.23247  Biso   1.000  C
  C746     1.0000 0.24573  0.82337  0.23247  Biso   1.000  C
  C747     1.0000 0.17663  0.42237  0.23247  Biso   1.000  C
  C748     1.0000 0.75570  0.91240  0.43420  Biso   1.000  C
  C749     1.0000 0.08760  0.84330  0.43420  Biso   1.000  C
  C750     1.0000 0.15670  0.24430  0.43420  Biso   1.000  C
  C751     1.0000 0.42237  0.24573  0.76753  Biso   1.000  C
  C752     1.0000 0.75427  0.17663  0.76753  Biso   1.000  C
  C753     1.0000 0.82337  0.57763  0.76753  Biso   1.000  C
  C754     1.0000 0.08903  0.57907  0.10087  Biso   1.000  C
  C755     1.0000 0.42093  0.50997  0.10087  Biso   1.000  C
  C756     1.0000 0.49003  0.91097  0.10087  Biso   1.000  C
  H703     1.0000 0.22980  0.06090  0.54310  Biso   1.000  H
  H704     1.0000 0.93910  0.16890  0.54310  Biso   1.000  H
  H705     1.0000 0.83110  0.77020  0.54310  Biso   1.000  H
  H706     1.0000 0.89647  0.39423  0.87643  Biso   1.000  H
  H707     1.0000 0.60577  0.50223  0.87643  Biso   1.000  H
  H708     1.0000 0.49777  0.10353  0.87643  Biso   1.000  H
  H709     1.0000 0.56313  0.72757  0.20977  Biso   1.000  H
  H710     1.0000 0.27243  0.83557  0.20977  Biso   1.000  H
  H711     1.0000 0.16443  0.43687  0.20977  Biso   1.000  H
  H712     1.0000 0.77020  0.93910  0.45690  Biso   1.000  H
  H713     1.0000 0.06090  0.83110  0.45690  Biso   1.000  H
  H714     1.0000 0.16890  0.22980  0.45690  Biso   1.000  H
  H715     1.0000 0.43687  0.27243  0.79023  Biso   1.000  H
  H716     1.0000 0.72757  0.16443  0.79023  Biso   1.000  H
  H717     1.0000 0.83557  0.56313  0.79023  Biso   1.000  H
  H718     1.0000 0.10353  0.60577  0.12357  Biso   1.000  H
  H719     1.0000 0.39423  0.49777  0.12357  Biso   1.000  H
  H720     1.0000 0.50223  0.89647  0.12357  Biso   1.000  H
  C757     1.0000 0.26530  0.12030  0.51030  Biso   1.000  C
  C758     1.0000 0.87970  0.14500  0.51030  Biso   1.000  C
  C759     1.0000 0.85500  0.73470  0.51030  Biso   1.000  C
  C760     1.0000 0.93197  0.45363  0.84363  Biso   1.000  C
  C761     1.0000 0.54637  0.47833  0.84363  Biso   1.000  C
  C762     1.0000 0.52167  0.06803  0.84363  Biso   1.000  C
  C763     1.0000 0.59863  0.78697  0.17697  Biso   1.000  C
  C764     1.0000 0.21303  0.81167  0.17697  Biso   1.000  C
  C765     1.0000 0.18833  0.40137  0.17697  Biso   1.000  C
  C766     1.0000 0.73470  0.87970  0.48970  Biso   1.000  C
  C767     1.0000 0.12030  0.85500  0.48970  Biso   1.000  C
  C768     1.0000 0.14500  0.26530  0.48970  Biso   1.000  C
  C769     1.0000 0.40137  0.21303  0.82303  Biso   1.000  C
  C770     1.0000 0.78697  0.18833  0.82303  Biso   1.000  C
  C771     1.0000 0.81167  0.59863  0.82303  Biso   1.000  C
  C772     1.0000 0.06803  0.54637  0.15637  Biso   1.000  C
  C773     1.0000 0.45363  0.52167  0.15637  Biso   1.000  C
  C774     1.0000 0.47833  0.93197  0.15637  Biso   1.000  C
  C775     1.0000 0.26750  0.11240  0.41510  Biso   1.000  C
  C776     1.0000 0.88760  0.15510  0.41510  Biso   1.000  C
  C777     1.0000 0.84490  0.73250  0.41510  Biso   1.000  C
  C778     1.0000 0.93417  0.44573  0.74843  Biso   1.000  C
  C779     1.0000 0.55427  0.48843  0.74843  Biso   1.000  C
  C780     1.0000 0.51157  0.06583  0.74843  Biso   1.000  C
  C781     1.0000 0.60083  0.77907  0.08177  Biso   1.000  C
  C782     1.0000 0.22093  0.82177  0.08177  Biso   1.000  C
  C783     1.0000 0.17823  0.39917  0.08177  Biso   1.000  C
  C784     1.0000 0.73250  0.88760  0.58490  Biso   1.000  C
  C785     1.0000 0.11240  0.84490  0.58490  Biso   1.000  C
  C786     1.0000 0.15510  0.26750  0.58490  Biso   1.000  C
  C787     1.0000 0.39917  0.22093  0.91823  Biso   1.000  C
  C788     1.0000 0.77907  0.17823  0.91823  Biso   1.000  C
  C789     1.0000 0.82177  0.60083  0.91823  Biso   1.000  C
  C790     1.0000 0.06583  0.55427  0.25157  Biso   1.000  C
  C791     1.0000 0.44573  0.51157  0.25157  Biso   1.000  C
  C792     1.0000 0.48843  0.93417  0.25157  Biso   1.000  C
  H721     1.0000 0.27140  0.13590  0.38040  Biso   1.000  H
  H722     1.0000 0.86410  0.13550  0.38040  Biso   1.000  H
  H723     1.0000 0.86450  0.72860  0.38040  Biso   1.000  H
  H724     1.0000 0.93807  0.46923  0.71373  Biso   1.000  H
  H725     1.0000 0.53077  0.46883  0.71373  Biso   1.000  H
  H726     1.0000 0.53117  0.06193  0.71373  Biso   1.000  H
  H727     1.0000 0.60473  0.80257  0.04707  Biso   1.000  H
  H728     1.0000 0.19743  0.80217  0.04707  Biso   1.000  H
  H729     1.0000 0.19783  0.39527  0.04707  Biso   1.000  H
  H730     1.0000 0.72860  0.86410  0.61960  Biso   1.000  H
  H731     1.0000 0.13590  0.86450  0.61960  Biso   1.000  H
  H732     1.0000 0.13550  0.27140  0.61960  Biso   1.000  H
  H733     1.0000 0.39527  0.19743  0.95293  Biso   1.000  H
  H734     1.0000 0.80257  0.19783  0.95293  Biso   1.000  H
  H735     1.0000 0.80217  0.60473  0.95293  Biso   1.000  H
  H736     1.0000 0.06193  0.53077  0.28627  Biso   1.000  H
  H737     1.0000 0.46923  0.53117  0.28627  Biso   1.000  H
  H738     1.0000 0.46883  0.93807  0.28627  Biso   1.000  H
  H739     1.0000 0.24210  0.08800  0.39620  Biso   1.000  H
  H740     1.0000 0.91200  0.15410  0.39620  Biso   1.000  H
  H741     1.0000 0.84590  0.75790  0.39620  Biso   1.000  H
  H742     1.0000 0.90877  0.42133  0.72953  Biso   1.000  H
  H743     1.0000 0.57867  0.48743  0.72953  Biso   1.000  H
  H744     1.0000 0.51257  0.09123  0.72953  Biso   1.000  H
  H745     1.0000 0.57543  0.75467  0.06287  Biso   1.000  H
  H746     1.0000 0.24533  0.82077  0.06287  Biso   1.000  H
  H747     1.0000 0.17923  0.42457  0.06287  Biso   1.000  H
  H748     1.0000 0.75790  0.91200  0.60380  Biso   1.000  H
  H749     1.0000 0.08800  0.84590  0.60380  Biso   1.000  H
  H750     1.0000 0.15410  0.24210  0.60380  Biso   1.000  H
  H751     1.0000 0.42457  0.24533  0.93713  Biso   1.000  H
  H752     1.0000 0.75467  0.17923  0.93713  Biso   1.000  H
  H753     1.0000 0.82077  0.57543  0.93713  Biso   1.000  H
  H754     1.0000 0.09123  0.57867  0.27047  Biso   1.000  H
  H755     1.0000 0.42133  0.51257  0.27047  Biso   1.000  H
  H756     1.0000 0.48743  0.90877  0.27047  Biso   1.000  H
  S55      1.0000 0.31056  0.10454  0.40175  Biso   1.000  S
  S56      1.0000 0.89546  0.20602  0.40175  Biso   1.000  S
  S57      1.0000 0.79398  0.68944  0.40175  Biso   1.000  S
  S58      1.0000 0.97723  0.43787  0.73508  Biso   1.000  S
  S59      1.0000 0.56213  0.53935  0.73508  Biso   1.000  S
  S60      1.0000 0.46065  0.02277  0.73508  Biso   1.000  S
  S61      1.0000 0.64389  0.77121  0.06842  Biso   1.000  S
  S62      1.0000 0.22879  0.87269  0.06842  Biso   1.000  S
  S63      1.0000 0.12731  0.35611  0.06842  Biso   1.000  S
  S64      1.0000 0.68944  0.89546  0.59825  Biso   1.000  S
  S65      1.0000 0.10454  0.79398  0.59825  Biso   1.000  S
  S66      1.0000 0.20602  0.31056  0.59825  Biso   1.000  S
  S67      1.0000 0.35611  0.22879  0.93158  Biso   1.000  S
  S68      1.0000 0.77121  0.12731  0.93158  Biso   1.000  S
  S69      1.0000 0.87269  0.64389  0.93158  Biso   1.000  S
  S70      1.0000 0.02277  0.56213  0.26492  Biso   1.000  S
  S71      1.0000 0.43787  0.46065  0.26492  Biso   1.000  S
  S72      1.0000 0.53935  0.97723  0.26492  Biso   1.000  S
  C793     1.0000 0.31330  0.10080  0.28600  Biso   1.000  C
  C794     1.0000 0.89920  0.21250  0.28600  Biso   1.000  C
  C795     1.0000 0.78750  0.68670  0.28600  Biso   1.000  C
  C796     1.0000 0.97997  0.43413  0.61933  Biso   1.000  C
  C797     1.0000 0.56587  0.54583  0.61933  Biso   1.000  C
  C798     1.0000 0.45417  0.02003  0.61933  Biso   1.000  C
  C799     1.0000 0.64663  0.76747  0.95267  Biso   1.000  C
  C800     1.0000 0.23253  0.87917  0.95267  Biso   1.000  C
  C801     1.0000 0.12083  0.35337  0.95267  Biso   1.000  C
  C802     1.0000 0.68670  0.89920  0.71400  Biso   1.000  C
  C803     1.0000 0.10080  0.78750  0.71400  Biso   1.000  C
  C804     1.0000 0.21250  0.31330  0.71400  Biso   1.000  C
  C805     1.0000 0.35337  0.23253  0.04733  Biso   1.000  C
  C806     1.0000 0.76747  0.12083  0.04733  Biso   1.000  C
  C807     1.0000 0.87917  0.64663  0.04733  Biso   1.000  C
  C808     1.0000 0.02003  0.56587  0.38067  Biso   1.000  C
  C809     1.0000 0.43413  0.45417  0.38067  Biso   1.000  C
  C810     1.0000 0.54583  0.97997  0.38067  Biso   1.000  C
  H757     1.0000 0.30840  0.12160  0.25900  Biso   1.000  H
  H758     1.0000 0.87840  0.18680  0.25900  Biso   1.000  H
  H759     1.0000 0.81320  0.69160  0.25900  Biso   1.000  H
  H760     1.0000 0.97507  0.45493  0.59233  Biso   1.000  H
  H761     1.0000 0.54507  0.52013  0.59233  Biso   1.000  H
  H762     1.0000 0.47987  0.02493  0.59233  Biso   1.000  H
  H763     1.0000 0.64173  0.78827  0.92567  Biso   1.000  H
  H764     1.0000 0.21173  0.85347  0.92567  Biso   1.000  H
  H765     1.0000 0.14653  0.35827  0.92567  Biso   1.000  H
  H766     1.0000 0.69160  0.87840  0.74100  Biso   1.000  H
  H767     1.0000 0.12160  0.81320  0.74100  Biso   1.000  H
  H768     1.0000 0.18680  0.30840  0.74100  Biso   1.000  H
  H769     1.0000 0.35827  0.21173  0.07433  Biso   1.000  H
  H770     1.0000 0.78827  0.14653  0.07433  Biso   1.000  H
  H771     1.0000 0.85347  0.64173  0.07433  Biso   1.000  H
  H772     1.0000 0.02493  0.54507  0.40767  Biso   1.000  H
  H773     1.0000 0.45493  0.47987  0.40767  Biso   1.000  H
  H774     1.0000 0.52013  0.97507  0.40767  Biso   1.000  H
  H775     1.0000 0.34120  0.10730  0.27050  Biso   1.000  H
  H776     1.0000 0.89270  0.23390  0.27050  Biso   1.000  H
  H777     1.0000 0.76610  0.65880  0.27050  Biso   1.000  H
  H778     1.0000 0.00787  0.44063  0.60383  Biso   1.000  H
  H779     1.0000 0.55937  0.56723  0.60383  Biso   1.000  H
  H780     1.0000 0.43277  0.99213  0.60383  Biso   1.000  H
  H781     1.0000 0.67453  0.77397  0.93717  Biso   1.000  H
  H782     1.0000 0.22603  0.90057  0.93717  Biso   1.000  H
  H783     1.0000 0.09943  0.32547  0.93717  Biso   1.000  H
  H784     1.0000 0.65880  0.89270  0.72950  Biso   1.000  H
  H785     1.0000 0.10730  0.76610  0.72950  Biso   1.000  H
  H786     1.0000 0.23390  0.34120  0.72950  Biso   1.000  H
  H787     1.0000 0.32547  0.22603  0.06283  Biso   1.000  H
  H788     1.0000 0.77397  0.09943  0.06283  Biso   1.000  H
  H789     1.0000 0.90057  0.67453  0.06283  Biso   1.000  H
  H790     1.0000 0.99213  0.55937  0.39617  Biso   1.000  H
  H791     1.0000 0.44063  0.43277  0.39617  Biso   1.000  H
  H792     1.0000 0.56723  0.00787  0.39617  Biso   1.000  H
  C811     1.0000 0.27396  0.99227  0.20240  Biso   1.000  C
  C812     1.0000 0.00773  0.28169  0.20240  Biso   1.000  C
  C813     1.0000 0.71831  0.72604  0.20240  Biso   1.000  C
  C814     1.0000 0.94063  0.32560  0.53573  Biso   1.000  C
  C815     1.0000 0.67440  0.61502  0.53573  Biso   1.000  C
  C816     1.0000 0.38498  0.05937  0.53573  Biso   1.000  C
  C817     1.0000 0.60729  0.65894  0.86907  Biso   1.000  C
  C818     1.0000 0.34106  0.94836  0.86907  Biso   1.000  C
  C819     1.0000 0.05164  0.39271  0.86907  Biso   1.000  C
  C820     1.0000 0.72604  0.00773  0.79760  Biso   1.000  C
  C821     1.0000 0.99227  0.71831  0.79760  Biso   1.000  C
  C822     1.0000 0.28169  0.27396  0.79760  Biso   1.000  C
  C823     1.0000 0.39271  0.34106  0.13093  Biso   1.000  C
  C824     1.0000 0.65894  0.05164  0.13093  Biso   1.000  C
  C825     1.0000 0.94836  0.60729  0.13093  Biso   1.000  C
  C826     1.0000 0.05937  0.67440  0.46427  Biso   1.000  C
  C827     1.0000 0.32560  0.38498  0.46427  Biso   1.000  C
  C828     1.0000 0.61502  0.94063  0.46427  Biso   1.000  C
  C829     1.0000 0.23723  0.98245  0.16390  Biso   1.000  C
  C830     1.0000 0.01755  0.25478  0.16390  Biso   1.000  C
  C831     1.0000 0.74522  0.76277  0.16390  Biso   1.000  C
  C832     1.0000 0.90390  0.31578  0.49723  Biso   1.000  C
  C833     1.0000 0.68422  0.58811  0.49723  Biso   1.000  C
  C834     1.0000 0.41189  0.09610  0.49723  Biso   1.000  C
  C835     1.0000 0.57056  0.64912  0.83057  Biso   1.000  C
  C836     1.0000 0.35088  0.92145  0.83057  Biso   1.000  C
  C837     1.0000 0.07855  0.42944  0.83057  Biso   1.000  C
  C838     1.0000 0.76277  0.01755  0.83610  Biso   1.000  C
  C839     1.0000 0.98245  0.74522  0.83610  Biso   1.000  C
  C840     1.0000 0.25478  0.23723  0.83610  Biso   1.000  C
  C841     1.0000 0.42944  0.35088  0.16943  Biso   1.000  C
  C842     1.0000 0.64912  0.07855  0.16943  Biso   1.000  C
  C843     1.0000 0.92145  0.57056  0.16943  Biso   1.000  C
  C844     1.0000 0.09610  0.68422  0.50277  Biso   1.000  C
  C845     1.0000 0.31578  0.41189  0.50277  Biso   1.000  C
  C846     1.0000 0.58811  0.90390  0.50277  Biso   1.000  C
  H793     1.0000 0.22150  0.95660  0.13750  Biso   1.000  H
  H794     1.0000 0.04340  0.26490  0.13750  Biso   1.000  H
  H795     1.0000 0.73510  0.77850  0.13750  Biso   1.000  H
  H796     1.0000 0.88817  0.28993  0.47083  Biso   1.000  H
  H797     1.0000 0.71007  0.59823  0.47083  Biso   1.000  H
  H798     1.0000 0.40177  0.11183  0.47083  Biso   1.000  H
  H799     1.0000 0.55483  0.62327  0.80417  Biso   1.000  H
  H800     1.0000 0.37673  0.93157  0.80417  Biso   1.000  H
  H801     1.0000 0.06843  0.44517  0.80417  Biso   1.000  H
  H802     1.0000 0.77850  0.04340  0.86250  Biso   1.000  H
  H803     1.0000 0.95660  0.73510  0.86250  Biso   1.000  H
  H804     1.0000 0.26490  0.22150  0.86250  Biso   1.000  H
  H805     1.0000 0.44517  0.37673  0.19583  Biso   1.000  H
  H806     1.0000 0.62327  0.06843  0.19583  Biso   1.000  H
  H807     1.0000 0.93157  0.55483  0.19583  Biso   1.000  H
  H808     1.0000 0.11183  0.71007  0.52917  Biso   1.000  H
  H809     1.0000 0.28993  0.40177  0.52917  Biso   1.000  H
  H810     1.0000 0.59823  0.88817  0.52917  Biso   1.000  H
  C847     1.0000 0.22306  0.00988  0.16340  Biso   1.000  C
  C848     1.0000 0.99012  0.21318  0.16340  Biso   1.000  C
  C849     1.0000 0.78682  0.77694  0.16340  Biso   1.000  C
  C850     1.0000 0.88973  0.34321  0.49673  Biso   1.000  C
  C851     1.0000 0.65679  0.54651  0.49673  Biso   1.000  C
  C852     1.0000 0.45349  0.11027  0.49673  Biso   1.000  C
  C853     1.0000 0.55639  0.67655  0.83007  Biso   1.000  C
  C854     1.0000 0.32345  0.87985  0.83007  Biso   1.000  C
  C855     1.0000 0.12015  0.44361  0.83007  Biso   1.000  C
  C856     1.0000 0.77694  0.99012  0.83660  Biso   1.000  C
  C857     1.0000 0.00988  0.78682  0.83660  Biso   1.000  C
  C858     1.0000 0.21318  0.22306  0.83660  Biso   1.000  C
  C859     1.0000 0.44361  0.32345  0.16993  Biso   1.000  C
  C860     1.0000 0.67655  0.12015  0.16993  Biso   1.000  C
  C861     1.0000 0.87985  0.55639  0.16993  Biso   1.000  C
  C862     1.0000 0.11027  0.65679  0.50327  Biso   1.000  C
  C863     1.0000 0.34321  0.45349  0.50327  Biso   1.000  C
  C864     1.0000 0.54651  0.88973  0.50327  Biso   1.000  C
  C865     1.0000 0.24535  0.04673  0.20600  Biso   1.000  C
  C866     1.0000 0.95327  0.19862  0.20600  Biso   1.000  C
  C867     1.0000 0.80138  0.75465  0.20600  Biso   1.000  C
  C868     1.0000 0.91202  0.38006  0.53933  Biso   1.000  C
  C869     1.0000 0.61994  0.53195  0.53933  Biso   1.000  C
  C870     1.0000 0.46805  0.08798  0.53933  Biso   1.000  C
  C871     1.0000 0.57868  0.71340  0.87267  Biso   1.000  C
  C872     1.0000 0.28660  0.86529  0.87267  Biso   1.000  C
  C873     1.0000 0.13471  0.42132  0.87267  Biso   1.000  C
  C874     1.0000 0.75465  0.95327  0.79400  Biso   1.000  C
  C875     1.0000 0.04673  0.80138  0.79400  Biso   1.000  C
  C876     1.0000 0.19862  0.24535  0.79400  Biso   1.000  C
  C877     1.0000 0.42132  0.28660  0.12733  Biso   1.000  C
  C878     1.0000 0.71340  0.13471  0.12733  Biso   1.000  C
  C879     1.0000 0.86529  0.57868  0.12733  Biso   1.000  C
  C880     1.0000 0.08798  0.61994  0.46067  Biso   1.000  C
  C881     1.0000 0.38006  0.46805  0.46067  Biso   1.000  C
  C882     1.0000 0.53195  0.91202  0.46067  Biso   1.000  C
  H811     1.0000 0.23520  0.06510  0.20790  Biso   1.000  H
  H812     1.0000 0.93490  0.17010  0.20790  Biso   1.000  H
  H813     1.0000 0.82990  0.76480  0.20790  Biso   1.000  H
  H814     1.0000 0.90187  0.39843  0.54123  Biso   1.000  H
  H815     1.0000 0.60157  0.50343  0.54123  Biso   1.000  H
  H816     1.0000 0.49657  0.09813  0.54123  Biso   1.000  H
  H817     1.0000 0.56853  0.73177  0.87457  Biso   1.000  H
  H818     1.0000 0.26823  0.83677  0.87457  Biso   1.000  H
  H819     1.0000 0.16323  0.43147  0.87457  Biso   1.000  H
  H820     1.0000 0.76480  0.93490  0.79210  Biso   1.000  H
  H821     1.0000 0.06510  0.82990  0.79210  Biso   1.000  H
  H822     1.0000 0.17010  0.23520  0.79210  Biso   1.000  H
  H823     1.0000 0.43147  0.26823  0.12543  Biso   1.000  H
  H824     1.0000 0.73177  0.16323  0.12543  Biso   1.000  H
  H825     1.0000 0.83677  0.56853  0.12543  Biso   1.000  H
  H826     1.0000 0.09813  0.60157  0.45877  Biso   1.000  H
  H827     1.0000 0.39843  0.49657  0.45877  Biso   1.000  H
  H828     1.0000 0.50343  0.90187  0.45877  Biso   1.000  H
  C883     1.0000 0.28186  0.05734  0.24560  Biso   1.000  C
  C884     1.0000 0.94266  0.22452  0.24560  Biso   1.000  C
  C885     1.0000 0.77548  0.71814  0.24560  Biso   1.000  C
  C886     1.0000 0.94853  0.39067  0.57893  Biso   1.000  C
  C887     1.0000 0.60933  0.55785  0.57893  Biso   1.000  C
  C888     1.0000 0.44215  0.05147  0.57893  Biso   1.000  C
  C889     1.0000 0.61519  0.72401  0.91227  Biso   1.000  C
  C890     1.0000 0.27599  0.89119  0.91227  Biso   1.000  C
  C891     1.0000 0.10881  0.38481  0.91227  Biso   1.000  C
  C892     1.0000 0.71814  0.94266  0.75440  Biso   1.000  C
  C893     1.0000 0.05734  0.77548  0.75440  Biso   1.000  C
  C894     1.0000 0.22452  0.28186  0.75440  Biso   1.000  C
  C895     1.0000 0.38481  0.27599  0.08773  Biso   1.000  C
  C896     1.0000 0.72401  0.10881  0.08773  Biso   1.000  C
  C897     1.0000 0.89119  0.61519  0.08773  Biso   1.000  C
  C898     1.0000 0.05147  0.60933  0.42107  Biso   1.000  C
  C899     1.0000 0.39067  0.44215  0.42107  Biso   1.000  C
  C900     1.0000 0.55785  0.94853  0.42107  Biso   1.000  C
  C901     1.0000 0.29630  0.02990  0.24250  Biso   1.000  C
  C902     1.0000 0.97010  0.26640  0.24250  Biso   1.000  C
  C903     1.0000 0.73360  0.70370  0.24250  Biso   1.000  C
  C904     1.0000 0.96297  0.36323  0.57583  Biso   1.000  C
  C905     1.0000 0.63677  0.59973  0.57583  Biso   1.000  C
  C906     1.0000 0.40027  0.03703  0.57583  Biso   1.000  C
  C907     1.0000 0.62963  0.69657  0.90917  Biso   1.000  C
  C908     1.0000 0.30343  0.93307  0.90917  Biso   1.000  C
  C909     1.0000 0.06693  0.37037  0.90917  Biso   1.000  C
  C910     1.0000 0.70370  0.97010  0.75750  Biso   1.000  C
  C911     1.0000 0.02990  0.73360  0.75750  Biso   1.000  C
  C912     1.0000 0.26640  0.29630  0.75750  Biso   1.000  C
  C913     1.0000 0.37037  0.30343  0.09083  Biso   1.000  C
  C914     1.0000 0.69657  0.06693  0.09083  Biso   1.000  C
  C915     1.0000 0.93307  0.62963  0.09083  Biso   1.000  C
  C916     1.0000 0.03703  0.63677  0.42417  Biso   1.000  C
  C917     1.0000 0.36323  0.40027  0.42417  Biso   1.000  C
  C918     1.0000 0.59973  0.96297  0.42417  Biso   1.000  C
  H829     1.0000 0.32170  0.03710  0.26810  Biso   1.000  H
  H830     1.0000 0.96290  0.28460  0.26810  Biso   1.000  H
  H831     1.0000 0.71540  0.67830  0.26810  Biso   1.000  H
  H832     1.0000 0.98837  0.37043  0.60143  Biso   1.000  H
  H833     1.0000 0.62957  0.61793  0.60143  Biso   1.000  H
  H834     1.0000 0.38207  0.01163  0.60143  Biso   1.000  H
  H835     1.0000 0.65503  0.70377  0.93477  Biso   1.000  H
  H836     1.0000 0.29623  0.95127  0.93477  Biso   1.000  H
  H837     1.0000 0.04873  0.34497  0.93477  Biso   1.000  H
  H838     1.0000 0.67830  0.96290  0.73190  Biso   1.000  H
  H839     1.0000 0.03710  0.71540  0.73190  Biso   1.000  H
  H840     1.0000 0.28460  0.32170  0.73190  Biso   1.000  H
  H841     1.0000 0.34497  0.29623  0.06523  Biso   1.000  H
  H842     1.0000 0.70377  0.04873  0.06523  Biso   1.000  H
  H843     1.0000 0.95127  0.65503  0.06523  Biso   1.000  H
  H844     1.0000 0.01163  0.62957  0.39857  Biso   1.000  H
  H845     1.0000 0.37043  0.38207  0.39857  Biso   1.000  H
  H846     1.0000 0.61793  0.98837  0.39857  Biso   1.000  H
  P1       1.0000 0.12697  0.89193  0.97827  Biso   1.000  P
  P2       1.0000 0.10807  0.23504  0.97827  Biso   1.000  P
  P3       1.0000 0.76496  0.87303  0.97827  Biso   1.000  P
  P4       1.0000 0.79364  0.22526  0.31160  Biso   1.000  P
  P5       1.0000 0.77474  0.56837  0.31160  Biso   1.000  P
  P6       1.0000 0.43163  0.20636  0.31160  Biso   1.000  P
  P7       1.0000 0.46030  0.55860  0.64494  Biso   1.000  P
  P8       1.0000 0.44140  0.90171  0.64494  Biso   1.000  P
  P9       1.0000 0.09829  0.53970  0.64494  Biso   1.000  P
  P10      1.0000 0.87303  0.10807  0.02173  Biso   1.000  P
  P11      1.0000 0.89193  0.76496  0.02173  Biso   1.000  P
  P12      1.0000 0.23504  0.12697  0.02173  Biso   1.000  P
  P13      1.0000 0.53970  0.44140  0.35506  Biso   1.000  P
  P14      1.0000 0.55860  0.09829  0.35506  Biso   1.000  P
  P15      1.0000 0.90171  0.46030  0.35506  Biso   1.000  P
  P16      1.0000 0.20636  0.77474  0.68840  Biso   1.000  P
  P17      1.0000 0.22526  0.43163  0.68840  Biso   1.000  P
  P18      1.0000 0.56837  0.79364  0.68840  Biso   1.000  P
  F1       1.0000 0.14711  0.89271  0.06705  Biso   1.000  F
  F2       1.0000 0.10729  0.25440  0.06705  Biso   1.000  F
  F3       1.0000 0.74560  0.85289  0.06705  Biso   1.000  F
  F4       1.0000 0.81378  0.22604  0.40038  Biso   1.000  F
  F5       1.0000 0.77396  0.58773  0.40038  Biso   1.000  F
  F6       1.0000 0.41227  0.18622  0.40038  Biso   1.000  F
  F7       1.0000 0.48044  0.55938  0.73372  Biso   1.000  F
  F8       1.0000 0.44062  0.92107  0.73372  Biso   1.000  F
  F9       1.0000 0.07893  0.51956  0.73372  Biso   1.000  F
  F10      1.0000 0.85289  0.10729  0.93295  Biso   1.000  F
  F11      1.0000 0.89271  0.74560  0.93295  Biso   1.000  F
  F12      1.0000 0.25440  0.14711  0.93295  Biso   1.000  F
  F13      1.0000 0.51956  0.44062  0.26628  Biso   1.000  F
  F14      1.0000 0.55938  0.07893  0.26628  Biso   1.000  F
  F15      1.0000 0.92107  0.48044  0.26628  Biso   1.000  F
  F16      1.0000 0.18622  0.77396  0.59962  Biso   1.000  F
  F17      1.0000 0.22604  0.41227  0.59962  Biso   1.000  F
  F18      1.0000 0.58773  0.81378  0.59962  Biso   1.000  F
  F19      1.0000 0.10707  0.89222  0.88727  Biso   1.000  F
  F20      1.0000 0.10778  0.21485  0.88727  Biso   1.000  F
  F21      1.0000 0.78515  0.89293  0.88727  Biso   1.000  F
  F22      1.0000 0.77374  0.22555  0.22060  Biso   1.000  F
  F23      1.0000 0.77445  0.54818  0.22060  Biso   1.000  F
  F24      1.0000 0.45182  0.22626  0.22060  Biso   1.000  F
  F25      1.0000 0.44040  0.55889  0.55394  Biso   1.000  F
  F26      1.0000 0.44111  0.88152  0.55394  Biso   1.000  F
  F27      1.0000 0.11848  0.55960  0.55394  Biso   1.000  F
  F28      1.0000 0.89293  0.10778  0.11273  Biso   1.000  F
  F29      1.0000 0.89222  0.78515  0.11273  Biso   1.000  F
  F30      1.0000 0.21485  0.10707  0.11273  Biso   1.000  F
  F31      1.0000 0.55960  0.44111  0.44606  Biso   1.000  F
  F32      1.0000 0.55889  0.11848  0.44606  Biso   1.000  F
  F33      1.0000 0.88152  0.44040  0.44606  Biso   1.000  F
  F34      1.0000 0.22626  0.77445  0.77940  Biso   1.000  F
  F35      1.0000 0.22555  0.45182  0.77940  Biso   1.000  F
  F36      1.0000 0.54818  0.77374  0.77940  Biso   1.000  F
  F37      1.0000 0.10968  0.91743  0.02020  Biso   1.000  F
  F38      1.0000 0.08257  0.19225  0.02020  Biso   1.000  F
  F39      1.0000 0.80775  0.89032  0.02020  Biso   1.000  F
  F40      1.0000 0.77635  0.25076  0.35353  Biso   1.000  F
  F41      1.0000 0.74924  0.52558  0.35353  Biso   1.000  F
  F42      1.0000 0.47442  0.22365  0.35353  Biso   1.000  F
  F43      1.0000 0.44301  0.58410  0.68687  Biso   1.000  F
  F44      1.0000 0.41590  0.85892  0.68687  Biso   1.000  F
  F45      1.0000 0.14108  0.55699  0.68687  Biso   1.000  F
  F46      1.0000 0.89032  0.08257  0.97980  Biso   1.000  F
  F47      1.0000 0.91743  0.80775  0.97980  Biso   1.000  F
  F48      1.0000 0.19225  0.10968  0.97980  Biso   1.000  F
  F49      1.0000 0.55699  0.41590  0.31313  Biso   1.000  F
  F50      1.0000 0.58410  0.14108  0.31313  Biso   1.000  F
  F51      1.0000 0.85892  0.44301  0.31313  Biso   1.000  F
  F52      1.0000 0.22365  0.74924  0.64647  Biso   1.000  F
  F53      1.0000 0.25076  0.47442  0.64647  Biso   1.000  F
  F54      1.0000 0.52558  0.77635  0.64647  Biso   1.000  F
  F55      1.0000 0.14431  0.86548  0.93563  Biso   1.000  F
  F56      1.0000 0.13452  0.27883  0.93563  Biso   1.000  F
  F57      1.0000 0.72117  0.85569  0.93563  Biso   1.000  F
  F58      1.0000 0.81098  0.19881  0.26896  Biso   1.000  F
  F59      1.0000 0.80119  0.61216  0.26896  Biso   1.000  F
  F60      1.0000 0.38784  0.18902  0.26896  Biso   1.000  F
  F61      1.0000 0.47764  0.53215  0.60230  Biso   1.000  F
  F62      1.0000 0.46785  0.94550  0.60230  Biso   1.000  F
  F63      1.0000 0.05450  0.52236  0.60230  Biso   1.000  F
  F64      1.0000 0.85569  0.13452  0.06437  Biso   1.000  F
  F65      1.0000 0.86548  0.72117  0.06437  Biso   1.000  F
  F66      1.0000 0.27883  0.14431  0.06437  Biso   1.000  F
  F67      1.0000 0.52236  0.46785  0.39770  Biso   1.000  F
  F68      1.0000 0.53215  0.05450  0.39770  Biso   1.000  F
  F69      1.0000 0.94550  0.47764  0.39770  Biso   1.000  F
  F70      1.0000 0.18902  0.80119  0.73104  Biso   1.000  F
  F71      1.0000 0.19881  0.38784  0.73104  Biso   1.000  F
  F72      1.0000 0.61216  0.81098  0.73104  Biso   1.000  F
  F73      1.0000 0.16731  0.93247  0.94814  Biso   1.000  F
  F74      1.0000 0.06753  0.23484  0.94814  Biso   1.000  F
  F75      1.0000 0.76516  0.83269  0.94814  Biso   1.000  F
  F76      1.0000 0.83398  0.26580  0.28147  Biso   1.000  F
  F77      1.0000 0.73420  0.56817  0.28147  Biso   1.000  F
  F78      1.0000 0.43183  0.16602  0.28147  Biso   1.000  F
  F79      1.0000 0.50064  0.59914  0.61481  Biso   1.000  F
  F80      1.0000 0.40086  0.90151  0.61481  Biso   1.000  F
  F81      1.0000 0.09849  0.49936  0.61481  Biso   1.000  F
  F82      1.0000 0.83269  0.06753  0.05186  Biso   1.000  F
  F83      1.0000 0.93247  0.76516  0.05186  Biso   1.000  F
  F84      1.0000 0.23484  0.16731  0.05186  Biso   1.000  F
  F85      1.0000 0.49936  0.40086  0.38519  Biso   1.000  F
  F86      1.0000 0.59914  0.09849  0.38519  Biso   1.000  F
  F87      1.0000 0.90151  0.50064  0.38519  Biso   1.000  F
  F88      1.0000 0.16602  0.73420  0.71853  Biso   1.000  F
  F89      1.0000 0.26580  0.43183  0.71853  Biso   1.000  F
  F90      1.0000 0.56817  0.83398  0.71853  Biso   1.000  F
  F91      1.0000 0.08703  0.85091  0.00389  Biso   1.000  F
  F92      1.0000 0.14909  0.23612  0.00389  Biso   1.000  F
  F93      1.0000 0.76388  0.91297  0.00389  Biso   1.000  F
  F94      1.0000 0.75370  0.18424  0.33722  Biso   1.000  F
  F95      1.0000 0.81576  0.56945  0.33722  Biso   1.000  F
  F96      1.0000 0.43055  0.24630  0.33722  Biso   1.000  F
  F97      1.0000 0.42036  0.51758  0.67056  Biso   1.000  F
  F98      1.0000 0.48242  0.90279  0.67056  Biso   1.000  F
  F99      1.0000 0.09721  0.57964  0.67056  Biso   1.000  F
  F100     1.0000 0.91297  0.14909  0.99611  Biso   1.000  F
  F101     1.0000 0.85091  0.76388  0.99611  Biso   1.000  F
  F102     1.0000 0.23612  0.08703  0.99611  Biso   1.000  F
  F103     1.0000 0.57964  0.48242  0.32944  Biso   1.000  F
  F104     1.0000 0.51758  0.09721  0.32944  Biso   1.000  F
  F105     1.0000 0.90279  0.42036  0.32944  Biso   1.000  F
  F106     1.0000 0.24630  0.81576  0.66278  Biso   1.000  F
  F107     1.0000 0.18424  0.43055  0.66278  Biso   1.000  F
  F108     1.0000 0.56945  0.75370  0.66278  Biso   1.000  F
  O19      1.0000 0.12140  0.09460  0.13670  Biso   1.000  O
  O20      1.0000 0.90540  0.02680  0.13670  Biso   1.000  O
  O21      1.0000 0.97320  0.87860  0.13670  Biso   1.000  O
  O22      1.0000 0.78807  0.42793  0.47003  Biso   1.000  O
  O23      1.0000 0.57207  0.36013  0.47003  Biso   1.000  O
  O24      1.0000 0.63987  0.21193  0.47003  Biso   1.000  O
  O25      1.0000 0.45473  0.76127  0.80337  Biso   1.000  O
  O26      1.0000 0.23873  0.69347  0.80337  Biso   1.000  O
  O27      1.0000 0.30653  0.54527  0.80337  Biso   1.000  O
  O28      1.0000 0.87860  0.90540  0.86330  Biso   1.000  O
  O29      1.0000 0.09460  0.97320  0.86330  Biso   1.000  O
  O30      1.0000 0.02680  0.12140  0.86330  Biso   1.000  O
  O31      1.0000 0.54527  0.23873  0.19663  Biso   1.000  O
  O32      1.0000 0.76127  0.30653  0.19663  Biso   1.000  O
  O33      1.0000 0.69347  0.45473  0.19663  Biso   1.000  O
  O34      1.0000 0.21193  0.57207  0.52997  Biso   1.000  O
  O35      1.0000 0.42793  0.63987  0.52997  Biso   1.000  O
  O36      1.0000 0.36013  0.78807  0.52997  Biso   1.000  O
  C919     1.0000 0.10310  0.08220  0.07160  Biso   1.000  C
  C920     1.0000 0.91780  0.02090  0.07160  Biso   1.000  C
  C921     1.0000 0.97910  0.89690  0.07160  Biso   1.000  C
  C922     1.0000 0.76977  0.41553  0.40493  Biso   1.000  C
  C923     1.0000 0.58447  0.35423  0.40493  Biso   1.000  C
  C924     1.0000 0.64577  0.23023  0.40493  Biso   1.000  C
  C925     1.0000 0.43643  0.74887  0.73827  Biso   1.000  C
  C926     1.0000 0.25113  0.68757  0.73827  Biso   1.000  C
  C927     1.0000 0.31243  0.56357  0.73827  Biso   1.000  C
  C928     1.0000 0.89690  0.91780  0.92840  Biso   1.000  C
  C929     1.0000 0.08220  0.97910  0.92840  Biso   1.000  C
  C930     1.0000 0.02090  0.10310  0.92840  Biso   1.000  C
  C931     1.0000 0.56357  0.25113  0.26173  Biso   1.000  C
  C932     1.0000 0.74887  0.31243  0.26173  Biso   1.000  C
  C933     1.0000 0.68757  0.43643  0.26173  Biso   1.000  C
  C934     1.0000 0.23023  0.58447  0.59507  Biso   1.000  C
  C935     1.0000 0.41553  0.64577  0.59507  Biso   1.000  C
  C936     1.0000 0.35423  0.76977  0.59507  Biso   1.000  C
  C937     1.0000 0.08330  0.10290  0.02930  Biso   1.000  C
  C938     1.0000 0.89710  0.98040  0.02930  Biso   1.000  C
  C939     1.0000 0.01960  0.91670  0.02930  Biso   1.000  C
  C940     1.0000 0.74997  0.43623  0.36263  Biso   1.000  C
  C941     1.0000 0.56377  0.31373  0.36263  Biso   1.000  C
  C942     1.0000 0.68627  0.25003  0.36263  Biso   1.000  C
  C943     1.0000 0.41663  0.76957  0.69597  Biso   1.000  C
  C944     1.0000 0.23043  0.64707  0.69597  Biso   1.000  C
  C945     1.0000 0.35293  0.58337  0.69597  Biso   1.000  C
  C946     1.0000 0.91670  0.89710  0.97070  Biso   1.000  C
  C947     1.0000 0.10290  0.01960  0.97070  Biso   1.000  C
  C948     1.0000 0.98040  0.08330  0.97070  Biso   1.000  C
  C949     1.0000 0.58337  0.23043  0.30403  Biso   1.000  C
  C950     1.0000 0.76957  0.35293  0.30403  Biso   1.000  C
  C951     1.0000 0.64707  0.41663  0.30403  Biso   1.000  C
  C952     1.0000 0.25003  0.56377  0.63737  Biso   1.000  C
  C953     1.0000 0.43623  0.68627  0.63737  Biso   1.000  C
  C954     1.0000 0.31373  0.74997  0.63737  Biso   1.000  C
  H847     1.0000 0.08050  0.12070  0.07090  Biso   1.000  H
  H848     1.0000 0.87930  0.95980  0.07090  Biso   1.000  H
  H849     1.0000 0.04020  0.91950  0.07090  Biso   1.000  H
  H850     1.0000 0.74717  0.45403  0.40423  Biso   1.000  H
  H851     1.0000 0.54597  0.29313  0.40423  Biso   1.000  H
  H852     1.0000 0.70687  0.25283  0.40423  Biso   1.000  H
  H853     1.0000 0.41383  0.78737  0.73757  Biso   1.000  H
  H854     1.0000 0.21263  0.62647  0.73757  Biso   1.000  H
  H855     1.0000 0.37353  0.58617  0.73757  Biso   1.000  H
  H856     1.0000 0.91950  0.87930  0.92910  Biso   1.000  H
  H857     1.0000 0.12070  0.04020  0.92910  Biso   1.000  H
  H858     1.0000 0.95980  0.08050  0.92910  Biso   1.000  H
  H859     1.0000 0.58617  0.21263  0.26243  Biso   1.000  H
  H860     1.0000 0.78737  0.37353  0.26243  Biso   1.000  H
  H861     1.0000 0.62647  0.41383  0.26243  Biso   1.000  H
  H862     1.0000 0.25283  0.54597  0.59577  Biso   1.000  H
  H863     1.0000 0.45403  0.70687  0.59577  Biso   1.000  H
  H864     1.0000 0.29313  0.74717  0.59577  Biso   1.000  H
  H865     1.0000 0.05640  0.08250  0.00830  Biso   1.000  H
  H866     1.0000 0.91750  0.97390  0.00830  Biso   1.000  H
  H867     1.0000 0.02610  0.94360  0.00830  Biso   1.000  H
  H868     1.0000 0.72307  0.41583  0.34163  Biso   1.000  H
  H869     1.0000 0.58417  0.30723  0.34163  Biso   1.000  H
  H870     1.0000 0.69277  0.27693  0.34163  Biso   1.000  H
  H871     1.0000 0.38973  0.74917  0.67497  Biso   1.000  H
  H872     1.0000 0.25083  0.64057  0.67497  Biso   1.000  H
  H873     1.0000 0.35943  0.61027  0.67497  Biso   1.000  H
  H874     1.0000 0.94360  0.91750  0.99170  Biso   1.000  H
  H875     1.0000 0.08250  0.02610  0.99170  Biso   1.000  H
  H876     1.0000 0.97390  0.05640  0.99170  Biso   1.000  H
  H877     1.0000 0.61027  0.25083  0.32503  Biso   1.000  H
  H878     1.0000 0.74917  0.35943  0.32503  Biso   1.000  H
  H879     1.0000 0.64057  0.38973  0.32503  Biso   1.000  H
  H880     1.0000 0.27693  0.58417  0.65837  Biso   1.000  H
  H881     1.0000 0.41583  0.69277  0.65837  Biso   1.000  H
  H882     1.0000 0.30723  0.72307  0.65837  Biso   1.000  H
  H883     1.0000 0.10000  0.11910  0.98070  Biso   1.000  H
  H884     1.0000 0.88090  0.98090  0.98070  Biso   1.000  H
  H885     1.0000 0.01910  0.90000  0.98070  Biso   1.000  H
  H886     1.0000 0.76667  0.45243  0.31403  Biso   1.000  H
  H887     1.0000 0.54757  0.31423  0.31403  Biso   1.000  H
  H888     1.0000 0.68577  0.23333  0.31403  Biso   1.000  H
  H889     1.0000 0.43333  0.78577  0.64737  Biso   1.000  H
  H890     1.0000 0.21423  0.64757  0.64737  Biso   1.000  H
  H891     1.0000 0.35243  0.56667  0.64737  Biso   1.000  H
  H892     1.0000 0.90000  0.88090  0.01930  Biso   1.000  H
  H893     1.0000 0.11910  0.01910  0.01930  Biso   1.000  H
  H894     1.0000 0.98090  0.10000  0.01930  Biso   1.000  H
  H895     1.0000 0.56667  0.21423  0.35263  Biso   1.000  H
  H896     1.0000 0.78577  0.35243  0.35263  Biso   1.000  H
  H897     1.0000 0.64757  0.43333  0.35263  Biso   1.000  H
  H898     1.0000 0.23333  0.54757  0.68597  Biso   1.000  H
  H899     1.0000 0.45243  0.68577  0.68597  Biso   1.000  H
  H900     1.0000 0.31423  0.76667  0.68597  Biso   1.000  H
  C955     1.0000 0.10140  0.04670  0.02070  Biso   1.000  C
  C956     1.0000 0.95330  0.05470  0.02070  Biso   1.000  C
  C957     1.0000 0.94530  0.89860  0.02070  Biso   1.000  C
  C958     1.0000 0.76807  0.38003  0.35403  Biso   1.000  C
  C959     1.0000 0.61997  0.38803  0.35403  Biso   1.000  C
  C960     1.0000 0.61197  0.23193  0.35403  Biso   1.000  C
  C961     1.0000 0.43473  0.71337  0.68737  Biso   1.000  C
  C962     1.0000 0.28663  0.72137  0.68737  Biso   1.000  C
  C963     1.0000 0.27863  0.56527  0.68737  Biso   1.000  C
  C964     1.0000 0.89860  0.95330  0.97930  Biso   1.000  C
  C965     1.0000 0.04670  0.94530  0.97930  Biso   1.000  C
  C966     1.0000 0.05470  0.10140  0.97930  Biso   1.000  C
  C967     1.0000 0.56527  0.28663  0.31263  Biso   1.000  C
  C968     1.0000 0.71337  0.27863  0.31263  Biso   1.000  C
  C969     1.0000 0.72137  0.43473  0.31263  Biso   1.000  C
  C970     1.0000 0.23193  0.61997  0.64597  Biso   1.000  C
  C971     1.0000 0.38003  0.61197  0.64597  Biso   1.000  C
  C972     1.0000 0.38803  0.76807  0.64597  Biso   1.000  C
  H901     1.0000 0.11650  0.05690  0.96680  Biso   1.000  H
  H902     1.0000 0.94310  0.05960  0.96680  Biso   1.000  H
  H903     1.0000 0.94040  0.88350  0.96680  Biso   1.000  H
  H904     1.0000 0.78317  0.39023  0.30013  Biso   1.000  H
  H905     1.0000 0.60977  0.39293  0.30013  Biso   1.000  H
  H906     1.0000 0.60707  0.21683  0.30013  Biso   1.000  H
  H907     1.0000 0.44983  0.72357  0.63347  Biso   1.000  H
  H908     1.0000 0.27643  0.72627  0.63347  Biso   1.000  H
  H909     1.0000 0.27373  0.55017  0.63347  Biso   1.000  H
  H910     1.0000 0.88350  0.94310  0.03320  Biso   1.000  H
  H911     1.0000 0.05690  0.94040  0.03320  Biso   1.000  H
  H912     1.0000 0.05960  0.11650  0.03320  Biso   1.000  H
  H913     1.0000 0.55017  0.27643  0.36653  Biso   1.000  H
  H914     1.0000 0.72357  0.27373  0.36653  Biso   1.000  H
  H915     1.0000 0.72627  0.44983  0.36653  Biso   1.000  H
  H916     1.0000 0.21683  0.60977  0.69987  Biso   1.000  H
  H917     1.0000 0.39023  0.60707  0.69987  Biso   1.000  H
  H918     1.0000 0.39293  0.78317  0.69987  Biso   1.000  H
  H919     1.0000 0.07300  0.02670  0.00780  Biso   1.000  H
  H920     1.0000 0.97330  0.04630  0.00780  Biso   1.000  H
  H921     1.0000 0.95370  0.92700  0.00780  Biso   1.000  H
  H922     1.0000 0.73967  0.36003  0.34113  Biso   1.000  H
  H923     1.0000 0.63997  0.37963  0.34113  Biso   1.000  H
  H924     1.0000 0.62037  0.26033  0.34113  Biso   1.000  H
  H925     1.0000 0.40633  0.69337  0.67447  Biso   1.000  H
  H926     1.0000 0.30663  0.71297  0.67447  Biso   1.000  H
  H927     1.0000 0.28703  0.59367  0.67447  Biso   1.000  H
  H928     1.0000 0.92700  0.97330  0.99220  Biso   1.000  H
  H929     1.0000 0.02670  0.95370  0.99220  Biso   1.000  H
  H930     1.0000 0.04630  0.07300  0.99220  Biso   1.000  H
  H931     1.0000 0.59367  0.30663  0.32553  Biso   1.000  H
  H932     1.0000 0.69337  0.28703  0.32553  Biso   1.000  H
  H933     1.0000 0.71297  0.40633  0.32553  Biso   1.000  H
  H934     1.0000 0.26033  0.63997  0.65887  Biso   1.000  H
  H935     1.0000 0.36003  0.62037  0.65887  Biso   1.000  H
  H936     1.0000 0.37963  0.73967  0.65887  Biso   1.000  H
  H937     1.0000 0.11350  0.03380  0.05520  Biso   1.000  H
  H938     1.0000 0.96620  0.07970  0.05520  Biso   1.000  H
  H939     1.0000 0.92030  0.88650  0.05520  Biso   1.000  H
  H940     1.0000 0.78017  0.36713  0.38853  Biso   1.000  H
  H941     1.0000 0.63287  0.41303  0.38853  Biso   1.000  H
  H942     1.0000 0.58697  0.21983  0.38853  Biso   1.000  H
  H943     1.0000 0.44683  0.70047  0.72187  Biso   1.000  H
  H944     1.0000 0.29953  0.74637  0.72187  Biso   1.000  H
  H945     1.0000 0.25363  0.55317  0.72187  Biso   1.000  H
  H946     1.0000 0.88650  0.96620  0.94480  Biso   1.000  H
  H947     1.0000 0.03380  0.92030  0.94480  Biso   1.000  H
  H948     1.0000 0.07970  0.11350  0.94480  Biso   1.000  H
  H949     1.0000 0.55317  0.29953  0.27813  Biso   1.000  H
  H950     1.0000 0.70047  0.25363  0.27813  Biso   1.000  H
  H951     1.0000 0.74637  0.44683  0.27813  Biso   1.000  H
  H952     1.0000 0.21983  0.63287  0.61147  Biso   1.000  H
  H953     1.0000 0.36713  0.58697  0.61147  Biso   1.000  H
  H954     1.0000 0.41303  0.78017  0.61147  Biso   1.000  H
  O37      1.0000 0.00000  0.00000  0.11340  Biso   1.000  O
  O38      1.0000 0.66667  0.33333  0.44673  Biso   1.000  O
  O39      1.0000 0.33333  0.66667  0.78007  Biso   1.000  O
  O40      1.0000 0.00000  0.00000  0.88660  Biso   1.000  O
  O41      1.0000 0.66667  0.33333  0.21993  Biso   1.000  O
  O42      1.0000 0.33333  0.66667  0.55327  Biso   1.000  O
