data_image0
_cell_length_a       27.0553
_cell_length_b       27.0553
_cell_length_c       63.159
_cell_angle_alpha    90
_cell_angle_beta     90
_cell_angle_gamma    120

_symmetry_space_group_name_H-M    "P 1"
_symmetry_int_tables_number       1

loop_
  _symmetry_equiv_pos_as_xyz
  'x, y, z'

loop_
  _atom_site_label
  _atom_site_occupancy
  _atom_site_fract_x
  _atom_site_fract_y
  _atom_site_fract_z
  _atom_site_thermal_displace_type
  _atom_site_B_iso_or_equiv
  _atom_site_type_symbol
  O1       1.0000 0.00000  0.00000  0.00000  Biso   1.000  O
  O2       1.0000 0.33333  0.66667  0.66667  Biso   1.000  O
  O3       1.0000 0.66667  0.33333  0.33333  Biso   1.000  O
  Cu1      1.0000 0.85702  0.08898  0.15174  Biso   1.000  Cu
  Cu2      1.0000 0.91102  0.76804  0.15174  Biso   1.000  Cu
  Cu3      1.0000 0.23196  0.14298  0.15174  Biso   1.000  Cu
  Cu4      1.0000 0.19035  0.75565  0.81841  Biso   1.000  Cu
  Cu5      1.0000 0.24435  0.43471  0.81841  Biso   1.000  Cu
  Cu6      1.0000 0.56529  0.80965  0.81841  Biso   1.000  Cu
  Cu7      1.0000 0.52369  0.42231  0.48507  Biso   1.000  Cu
  Cu8      1.0000 0.57769  0.10137  0.48507  Biso   1.000  Cu
  Cu9      1.0000 0.89863  0.47631  0.48507  Biso   1.000  Cu
  Cu10     1.0000 0.14298  0.91102  0.84826  Biso   1.000  Cu
  Cu11     1.0000 0.08898  0.23196  0.84826  Biso   1.000  Cu
  Cu12     1.0000 0.76804  0.85702  0.84826  Biso   1.000  Cu
  Cu13     1.0000 0.47631  0.57769  0.51493  Biso   1.000  Cu
  Cu14     1.0000 0.42231  0.89863  0.51493  Biso   1.000  Cu
  Cu15     1.0000 0.10137  0.52369  0.51493  Biso   1.000  Cu
  Cu16     1.0000 0.80965  0.24435  0.18159  Biso   1.000  Cu
  Cu17     1.0000 0.75565  0.56529  0.18159  Biso   1.000  Cu
  Cu18     1.0000 0.43471  0.19035  0.18159  Biso   1.000  Cu
  Cu19     1.0000 0.82884  0.70221  0.19968  Biso   1.000  Cu
  Cu20     1.0000 0.29779  0.12663  0.19968  Biso   1.000  Cu
  Cu21     1.0000 0.87337  0.17116  0.19968  Biso   1.000  Cu
  Cu22     1.0000 0.16217  0.36888  0.86635  Biso   1.000  Cu
  Cu23     1.0000 0.63112  0.79330  0.86635  Biso   1.000  Cu
  Cu24     1.0000 0.20670  0.83783  0.86635  Biso   1.000  Cu
  Cu25     1.0000 0.49551  0.03554  0.53301  Biso   1.000  Cu
  Cu26     1.0000 0.96446  0.45996  0.53301  Biso   1.000  Cu
  Cu27     1.0000 0.54004  0.50449  0.53301  Biso   1.000  Cu
  Cu28     1.0000 0.17116  0.29779  0.80032  Biso   1.000  Cu
  Cu29     1.0000 0.70221  0.87337  0.80032  Biso   1.000  Cu
  Cu30     1.0000 0.12663  0.82884  0.80032  Biso   1.000  Cu
  Cu31     1.0000 0.50449  0.96446  0.46699  Biso   1.000  Cu
  Cu32     1.0000 0.03554  0.54004  0.46699  Biso   1.000  Cu
  Cu33     1.0000 0.45996  0.49551  0.46699  Biso   1.000  Cu
  Cu34     1.0000 0.83783  0.63112  0.13365  Biso   1.000  Cu
  Cu35     1.0000 0.36888  0.20670  0.13365  Biso   1.000  Cu
  Cu36     1.0000 0.79330  0.16217  0.13365  Biso   1.000  Cu
  Cu37     1.0000 0.95630  0.42344  0.02299  Biso   1.000  Cu
  Cu38     1.0000 0.57656  0.53286  0.02299  Biso   1.000  Cu
  Cu39     1.0000 0.46714  0.04370  0.02299  Biso   1.000  Cu
  Cu40     1.0000 0.28963  0.09011  0.68966  Biso   1.000  Cu
  Cu41     1.0000 0.90989  0.19953  0.68966  Biso   1.000  Cu
  Cu42     1.0000 0.80047  0.71037  0.68966  Biso   1.000  Cu
  Cu43     1.0000 0.62297  0.75677  0.35632  Biso   1.000  Cu
  Cu44     1.0000 0.24323  0.86619  0.35632  Biso   1.000  Cu
  Cu45     1.0000 0.13381  0.37703  0.35632  Biso   1.000  Cu
  Cu46     1.0000 0.04370  0.57656  0.97701  Biso   1.000  Cu
  Cu47     1.0000 0.42344  0.46714  0.97701  Biso   1.000  Cu
  Cu48     1.0000 0.53286  0.95630  0.97701  Biso   1.000  Cu
  Cu49     1.0000 0.37703  0.24323  0.64368  Biso   1.000  Cu
  Cu50     1.0000 0.75677  0.13381  0.64368  Biso   1.000  Cu
  Cu51     1.0000 0.86619  0.62297  0.64368  Biso   1.000  Cu
  Cu52     1.0000 0.71037  0.90989  0.31034  Biso   1.000  Cu
  Cu53     1.0000 0.09011  0.80047  0.31034  Biso   1.000  Cu
  Cu54     1.0000 0.19953  0.28963  0.31034  Biso   1.000  Cu
  Cu55     1.0000 0.89884  0.49097  0.99414  Biso   1.000  Cu
  Cu56     1.0000 0.50903  0.40787  0.99414  Biso   1.000  Cu
  Cu57     1.0000 0.59213  0.10116  0.99414  Biso   1.000  Cu
  Cu58     1.0000 0.23217  0.15764  0.66081  Biso   1.000  Cu
  Cu59     1.0000 0.84236  0.07454  0.66081  Biso   1.000  Cu
  Cu60     1.0000 0.92546  0.76783  0.66081  Biso   1.000  Cu
  Cu61     1.0000 0.56551  0.82430  0.32747  Biso   1.000  Cu
  Cu62     1.0000 0.17570  0.74120  0.32747  Biso   1.000  Cu
  Cu63     1.0000 0.25880  0.43449  0.32747  Biso   1.000  Cu
  Cu64     1.0000 0.10116  0.50903  0.00586  Biso   1.000  Cu
  Cu65     1.0000 0.49097  0.59213  0.00586  Biso   1.000  Cu
  Cu66     1.0000 0.40787  0.89884  0.00586  Biso   1.000  Cu
  Cu67     1.0000 0.43449  0.17570  0.67253  Biso   1.000  Cu
  Cu68     1.0000 0.82430  0.25880  0.67253  Biso   1.000  Cu
  Cu69     1.0000 0.74120  0.56551  0.67253  Biso   1.000  Cu
  Cu70     1.0000 0.76783  0.84236  0.33919  Biso   1.000  Cu
  Cu71     1.0000 0.15764  0.92546  0.33919  Biso   1.000  Cu
  Cu72     1.0000 0.07454  0.23217  0.33919  Biso   1.000  Cu
  Si1      1.0000 0.00000  0.00000  0.22024  Biso   1.000  Si
  Si2      1.0000 0.33333  0.66667  0.88691  Biso   1.000  Si
  Si3      1.0000 0.66667  0.33333  0.55357  Biso   1.000  Si
  Si4      1.0000 0.00000  0.00000  0.77976  Biso   1.000  Si
  Si5      1.0000 0.33333  0.66667  0.44643  Biso   1.000  Si
  Si6      1.0000 0.66667  0.33333  0.11309  Biso   1.000  Si
  W1       1.0000 0.91200  0.93659  0.26455  Biso   1.000  W
  W2       1.0000 0.06341  0.97541  0.26455  Biso   1.000  W
  W3       1.0000 0.02459  0.08800  0.26455  Biso   1.000  W
  W4       1.0000 0.24533  0.60326  0.93122  Biso   1.000  W
  W5       1.0000 0.39674  0.64208  0.93122  Biso   1.000  W
  W6       1.0000 0.35792  0.75467  0.93122  Biso   1.000  W
  W7       1.0000 0.57867  0.26992  0.59788  Biso   1.000  W
  W8       1.0000 0.73008  0.30874  0.59788  Biso   1.000  W
  W9       1.0000 0.69126  0.42133  0.59788  Biso   1.000  W
  W10      1.0000 0.08800  0.06341  0.73545  Biso   1.000  W
  W11      1.0000 0.93659  0.02459  0.73545  Biso   1.000  W
  W12      1.0000 0.97541  0.91200  0.73545  Biso   1.000  W
  W13      1.0000 0.42133  0.73008  0.40212  Biso   1.000  W
  W14      1.0000 0.26992  0.69126  0.40212  Biso   1.000  W
  W15      1.0000 0.30874  0.57867  0.40212  Biso   1.000  W
  W16      1.0000 0.75467  0.39674  0.06878  Biso   1.000  W
  W17      1.0000 0.60326  0.35792  0.06878  Biso   1.000  W
  W18      1.0000 0.64208  0.24533  0.06878  Biso   1.000  W
  W19      1.0000 0.89596  0.85509  0.22239  Biso   1.000  W
  W20      1.0000 0.14491  0.04087  0.22239  Biso   1.000  W
  W21      1.0000 0.95913  0.10404  0.22239  Biso   1.000  W
  W22      1.0000 0.22929  0.52176  0.88906  Biso   1.000  W
  W23      1.0000 0.47824  0.70754  0.88906  Biso   1.000  W
  W24      1.0000 0.29246  0.77071  0.88906  Biso   1.000  W
  W25      1.0000 0.56263  0.18842  0.55572  Biso   1.000  W
  W26      1.0000 0.81158  0.37420  0.55572  Biso   1.000  W
  W27      1.0000 0.62580  0.43737  0.55572  Biso   1.000  W
  W28      1.0000 0.10404  0.14491  0.77761  Biso   1.000  W
  W29      1.0000 0.85509  0.95913  0.77761  Biso   1.000  W
  W30      1.0000 0.04087  0.89596  0.77761  Biso   1.000  W
  W31      1.0000 0.43737  0.81158  0.44428  Biso   1.000  W
  W32      1.0000 0.18842  0.62580  0.44428  Biso   1.000  W
  W33      1.0000 0.37420  0.56263  0.44428  Biso   1.000  W
  W34      1.0000 0.77071  0.47824  0.11094  Biso   1.000  W
  W35      1.0000 0.52176  0.29246  0.11094  Biso   1.000  W
  W36      1.0000 0.70754  0.22929  0.11094  Biso   1.000  W
  W37      1.0000 0.94221  0.02223  0.17353  Biso   1.000  W
  W38      1.0000 0.97777  0.91998  0.17353  Biso   1.000  W
  W39      1.0000 0.08002  0.05779  0.17353  Biso   1.000  W
  W40      1.0000 0.27554  0.68890  0.84019  Biso   1.000  W
  W41      1.0000 0.31110  0.58664  0.84019  Biso   1.000  W
  W42      1.0000 0.41336  0.72446  0.84019  Biso   1.000  W
  W43      1.0000 0.60888  0.35557  0.50686  Biso   1.000  W
  W44      1.0000 0.64443  0.25331  0.50686  Biso   1.000  W
  W45      1.0000 0.74669  0.39112  0.50686  Biso   1.000  W
  W46      1.0000 0.05779  0.97777  0.82647  Biso   1.000  W
  W47      1.0000 0.02223  0.08002  0.82647  Biso   1.000  W
  W48      1.0000 0.91998  0.94221  0.82647  Biso   1.000  W
  W49      1.0000 0.39112  0.64443  0.49314  Biso   1.000  W
  W50      1.0000 0.35557  0.74669  0.49314  Biso   1.000  W
  W51      1.0000 0.25331  0.60888  0.49314  Biso   1.000  W
  W52      1.0000 0.72446  0.31110  0.15981  Biso   1.000  W
  W53      1.0000 0.68890  0.41336  0.15981  Biso   1.000  W
  W54      1.0000 0.58664  0.27554  0.15981  Biso   1.000  W
  W55      1.0000 0.85269  0.95102  0.22024  Biso   1.000  W
  W56      1.0000 0.04898  0.90166  0.22024  Biso   1.000  W
  W57      1.0000 0.09834  0.14731  0.22024  Biso   1.000  W
  W58      1.0000 0.18602  0.61769  0.88690  Biso   1.000  W
  W59      1.0000 0.38231  0.56833  0.88690  Biso   1.000  W
  W60      1.0000 0.43167  0.81398  0.88690  Biso   1.000  W
  W61      1.0000 0.51935  0.28436  0.55357  Biso   1.000  W
  W62      1.0000 0.71564  0.23500  0.55357  Biso   1.000  W
  W63      1.0000 0.76500  0.48065  0.55357  Biso   1.000  W
  W64      1.0000 0.14731  0.04898  0.77976  Biso   1.000  W
  W65      1.0000 0.95102  0.09834  0.77976  Biso   1.000  W
  W66      1.0000 0.90166  0.85269  0.77976  Biso   1.000  W
  W67      1.0000 0.48065  0.71564  0.44643  Biso   1.000  W
  W68      1.0000 0.28436  0.76500  0.44643  Biso   1.000  W
  W69      1.0000 0.23500  0.51935  0.44643  Biso   1.000  W
  W70      1.0000 0.81398  0.38231  0.11310  Biso   1.000  W
  W71      1.0000 0.61769  0.43167  0.11310  Biso   1.000  W
  W72      1.0000 0.56833  0.18602  0.11310  Biso   1.000  W
  Si7      1.0000 0.85202  0.66346  0.92790  Biso   1.000  Si
  Si8      1.0000 0.33654  0.18856  0.92790  Biso   1.000  Si
  Si9      1.0000 0.81144  0.14798  0.92790  Biso   1.000  Si
  Si10     1.0000 0.18535  0.33013  0.59457  Biso   1.000  Si
  Si11     1.0000 0.66987  0.85523  0.59457  Biso   1.000  Si
  Si12     1.0000 0.14477  0.81465  0.59457  Biso   1.000  Si
  Si13     1.0000 0.51869  0.99679  0.26123  Biso   1.000  Si
  Si14     1.0000 0.00321  0.52189  0.26123  Biso   1.000  Si
  Si15     1.0000 0.47811  0.48131  0.26123  Biso   1.000  Si
  Si16     1.0000 0.14798  0.33654  0.07210  Biso   1.000  Si
  Si17     1.0000 0.66346  0.81144  0.07210  Biso   1.000  Si
  Si18     1.0000 0.18856  0.85202  0.07210  Biso   1.000  Si
  Si19     1.0000 0.48131  0.00321  0.73877  Biso   1.000  Si
  Si20     1.0000 0.99679  0.47811  0.73877  Biso   1.000  Si
  Si21     1.0000 0.52189  0.51869  0.73877  Biso   1.000  Si
  Si22     1.0000 0.81465  0.66987  0.40543  Biso   1.000  Si
  Si23     1.0000 0.33013  0.14477  0.40543  Biso   1.000  Si
  Si24     1.0000 0.85523  0.18535  0.40543  Biso   1.000  Si
  W73      1.0000 0.97420  0.76110  0.95640  Biso   1.000  W
  W74      1.0000 0.23890  0.21310  0.95640  Biso   1.000  W
  W75      1.0000 0.78690  0.02580  0.95640  Biso   1.000  W
  W76      1.0000 0.30753  0.42777  0.62307  Biso   1.000  W
  W77      1.0000 0.57223  0.87977  0.62307  Biso   1.000  W
  W78      1.0000 0.12023  0.69247  0.62307  Biso   1.000  W
  W79      1.0000 0.64087  0.09443  0.28973  Biso   1.000  W
  W80      1.0000 0.90557  0.54643  0.28973  Biso   1.000  W
  W81      1.0000 0.45357  0.35913  0.28973  Biso   1.000  W
  W82      1.0000 0.02580  0.23890  0.04360  Biso   1.000  W
  W83      1.0000 0.76110  0.78690  0.04360  Biso   1.000  W
  W84      1.0000 0.21310  0.97420  0.04360  Biso   1.000  W
  W85      1.0000 0.35913  0.90557  0.71027  Biso   1.000  W
  W86      1.0000 0.09443  0.45357  0.71027  Biso   1.000  W
  W87      1.0000 0.54643  0.64087  0.71027  Biso   1.000  W
  W88      1.0000 0.69247  0.57223  0.37693  Biso   1.000  W
  W89      1.0000 0.42777  0.12023  0.37693  Biso   1.000  W
  W90      1.0000 0.87977  0.30753  0.37693  Biso   1.000  W
  W91      1.0000 0.96516  0.63693  0.93576  Biso   1.000  W
  W92      1.0000 0.36307  0.32823  0.93576  Biso   1.000  W
  W93      1.0000 0.67177  0.03484  0.93576  Biso   1.000  W
  W94      1.0000 0.29849  0.30360  0.60243  Biso   1.000  W
  W95      1.0000 0.69640  0.99490  0.60243  Biso   1.000  W
  W96      1.0000 0.00510  0.70151  0.60243  Biso   1.000  W
  W97      1.0000 0.63183  0.97026  0.26909  Biso   1.000  W
  W98      1.0000 0.02974  0.66156  0.26909  Biso   1.000  W
  W99      1.0000 0.33844  0.36817  0.26909  Biso   1.000  W
  W100     1.0000 0.03484  0.36307  0.06424  Biso   1.000  W
  W101     1.0000 0.63693  0.67177  0.06424  Biso   1.000  W
  W102     1.0000 0.32823  0.96516  0.06424  Biso   1.000  W
  W103     1.0000 0.36817  0.02974  0.73091  Biso   1.000  W
  W104     1.0000 0.97026  0.33844  0.73091  Biso   1.000  W
  W105     1.0000 0.66156  0.63183  0.73091  Biso   1.000  W
  W106     1.0000 0.70151  0.69640  0.39757  Biso   1.000  W
  W107     1.0000 0.30360  0.00510  0.39757  Biso   1.000  W
  W108     1.0000 0.99490  0.29849  0.39757  Biso   1.000  W
  W109     1.0000 0.98229  0.74683  0.90143  Biso   1.000  W
  W110     1.0000 0.25317  0.23546  0.90143  Biso   1.000  W
  W111     1.0000 0.76454  0.01771  0.90143  Biso   1.000  W
  W112     1.0000 0.31562  0.41350  0.56810  Biso   1.000  W
  W113     1.0000 0.58650  0.90213  0.56810  Biso   1.000  W
  W114     1.0000 0.09787  0.68438  0.56810  Biso   1.000  W
  W115     1.0000 0.64896  0.08016  0.23476  Biso   1.000  W
  W116     1.0000 0.91984  0.56879  0.23476  Biso   1.000  W
  W117     1.0000 0.43121  0.35104  0.23476  Biso   1.000  W
  W118     1.0000 0.01771  0.25317  0.09857  Biso   1.000  W
  W119     1.0000 0.74683  0.76454  0.09857  Biso   1.000  W
  W120     1.0000 0.23546  0.98229  0.09857  Biso   1.000  W
  W121     1.0000 0.35104  0.91984  0.76524  Biso   1.000  W
  W122     1.0000 0.08016  0.43121  0.76524  Biso   1.000  W
  W123     1.0000 0.56879  0.64896  0.76524  Biso   1.000  W
  W124     1.0000 0.68438  0.58650  0.43190  Biso   1.000  W
  W125     1.0000 0.41350  0.09787  0.43190  Biso   1.000  W
  W126     1.0000 0.90213  0.31562  0.43190  Biso   1.000  W
  W127     1.0000 0.84360  0.67836  0.98315  Biso   1.000  W
  W128     1.0000 0.32164  0.16524  0.98315  Biso   1.000  W
  W129     1.0000 0.83476  0.15640  0.98315  Biso   1.000  W
  W130     1.0000 0.17693  0.34503  0.64982  Biso   1.000  W
  W131     1.0000 0.65497  0.83191  0.64982  Biso   1.000  W
  W132     1.0000 0.16809  0.82307  0.64982  Biso   1.000  W
  W133     1.0000 0.51027  0.01169  0.31648  Biso   1.000  W
  W134     1.0000 0.98831  0.49857  0.31648  Biso   1.000  W
  W135     1.0000 0.50143  0.48973  0.31648  Biso   1.000  W
  W136     1.0000 0.15640  0.32164  0.01685  Biso   1.000  W
  W137     1.0000 0.67836  0.83476  0.01685  Biso   1.000  W
  W138     1.0000 0.16524  0.84360  0.01685  Biso   1.000  W
  W139     1.0000 0.48973  0.98831  0.68352  Biso   1.000  W
  W140     1.0000 0.01169  0.50143  0.68352  Biso   1.000  W
  W141     1.0000 0.49857  0.51027  0.68352  Biso   1.000  W
  W142     1.0000 0.82307  0.65497  0.35018  Biso   1.000  W
  W143     1.0000 0.34503  0.16809  0.35018  Biso   1.000  W
  W144     1.0000 0.83191  0.17693  0.35018  Biso   1.000  W
  W145     1.0000 0.86123  0.78797  0.94876  Biso   1.000  W
  W146     1.0000 0.21203  0.07326  0.94876  Biso   1.000  W
  W147     1.0000 0.92674  0.13877  0.94876  Biso   1.000  W
  W148     1.0000 0.19456  0.45464  0.61543  Biso   1.000  W
  W149     1.0000 0.54536  0.73993  0.61543  Biso   1.000  W
  W150     1.0000 0.26007  0.80544  0.61543  Biso   1.000  W
  W151     1.0000 0.52790  0.12130  0.28209  Biso   1.000  W
  W152     1.0000 0.87870  0.40659  0.28209  Biso   1.000  W
  W153     1.0000 0.59341  0.47210  0.28209  Biso   1.000  W
  W154     1.0000 0.13877  0.21203  0.05124  Biso   1.000  W
  W155     1.0000 0.78797  0.92674  0.05124  Biso   1.000  W
  W156     1.0000 0.07326  0.86123  0.05124  Biso   1.000  W
  W157     1.0000 0.47210  0.87870  0.71791  Biso   1.000  W
  W158     1.0000 0.12130  0.59341  0.71791  Biso   1.000  W
  W159     1.0000 0.40659  0.52790  0.71791  Biso   1.000  W
  W160     1.0000 0.80544  0.54536  0.38457  Biso   1.000  W
  W161     1.0000 0.45464  0.26007  0.38457  Biso   1.000  W
  W162     1.0000 0.73993  0.19456  0.38457  Biso   1.000  W
  W163     1.0000 0.83402  0.55402  0.96217  Biso   1.000  W
  W164     1.0000 0.44598  0.28000  0.96217  Biso   1.000  W
  W165     1.0000 0.72000  0.16598  0.96217  Biso   1.000  W
  W166     1.0000 0.16735  0.22069  0.62884  Biso   1.000  W
  W167     1.0000 0.77931  0.94667  0.62884  Biso   1.000  W
  W168     1.0000 0.05333  0.83265  0.62884  Biso   1.000  W
  W169     1.0000 0.50069  0.88735  0.29550  Biso   1.000  W
  W170     1.0000 0.11265  0.61333  0.29550  Biso   1.000  W
  W171     1.0000 0.38667  0.49931  0.29550  Biso   1.000  W
  W172     1.0000 0.16598  0.44598  0.03783  Biso   1.000  W
  W173     1.0000 0.55402  0.72000  0.03783  Biso   1.000  W
  W174     1.0000 0.28000  0.83402  0.03783  Biso   1.000  W
  W175     1.0000 0.49931  0.11265  0.70450  Biso   1.000  W
  W176     1.0000 0.88735  0.38667  0.70450  Biso   1.000  W
  W177     1.0000 0.61333  0.50069  0.70450  Biso   1.000  W
  W178     1.0000 0.83265  0.77931  0.37116  Biso   1.000  W
  W179     1.0000 0.22069  0.05333  0.37116  Biso   1.000  W
  W180     1.0000 0.94667  0.16735  0.37116  Biso   1.000  W
  W181     1.0000 0.86936  0.77433  0.89375  Biso   1.000  W
  W182     1.0000 0.22567  0.09503  0.89375  Biso   1.000  W
  W183     1.0000 0.90497  0.13064  0.89375  Biso   1.000  W
  W184     1.0000 0.20269  0.44100  0.56042  Biso   1.000  W
  W185     1.0000 0.55900  0.76170  0.56042  Biso   1.000  W
  W186     1.0000 0.23830  0.79731  0.56042  Biso   1.000  W
  W187     1.0000 0.53603  0.10766  0.22708  Biso   1.000  W
  W188     1.0000 0.89234  0.42836  0.22708  Biso   1.000  W
  W189     1.0000 0.57164  0.46397  0.22708  Biso   1.000  W
  W190     1.0000 0.13064  0.22567  0.10625  Biso   1.000  W
  W191     1.0000 0.77433  0.90497  0.10625  Biso   1.000  W
  W192     1.0000 0.09503  0.86936  0.10625  Biso   1.000  W
  W193     1.0000 0.46397  0.89234  0.77292  Biso   1.000  W
  W194     1.0000 0.10766  0.57164  0.77292  Biso   1.000  W
  W195     1.0000 0.42836  0.53603  0.77292  Biso   1.000  W
  W196     1.0000 0.79731  0.55900  0.43958  Biso   1.000  W
  W197     1.0000 0.44100  0.23830  0.43958  Biso   1.000  W
  W198     1.0000 0.76170  0.20269  0.43958  Biso   1.000  W
  W199     1.0000 0.72147  0.58145  0.95492  Biso   1.000  W
  W200     1.0000 0.41855  0.14002  0.95492  Biso   1.000  W
  W201     1.0000 0.85998  0.27853  0.95492  Biso   1.000  W
  W202     1.0000 0.05480  0.24812  0.62159  Biso   1.000  W
  W203     1.0000 0.75188  0.80669  0.62159  Biso   1.000  W
  W204     1.0000 0.19331  0.94520  0.62159  Biso   1.000  W
  W205     1.0000 0.38814  0.91478  0.28825  Biso   1.000  W
  W206     1.0000 0.08522  0.47335  0.28825  Biso   1.000  W
  W207     1.0000 0.52665  0.61186  0.28825  Biso   1.000  W
  W208     1.0000 0.27853  0.41855  0.04508  Biso   1.000  W
  W209     1.0000 0.58145  0.85998  0.04508  Biso   1.000  W
  W210     1.0000 0.14002  0.72147  0.04508  Biso   1.000  W
  W211     1.0000 0.61186  0.08522  0.71175  Biso   1.000  W
  W212     1.0000 0.91478  0.52665  0.71175  Biso   1.000  W
  W213     1.0000 0.47335  0.38814  0.71175  Biso   1.000  W
  W214     1.0000 0.94520  0.75188  0.37841  Biso   1.000  W
  W215     1.0000 0.24812  0.19331  0.37841  Biso   1.000  W
  W216     1.0000 0.80669  0.05480  0.37841  Biso   1.000  W
  W217     1.0000 0.84364  0.53891  0.90711  Biso   1.000  W
  W218     1.0000 0.46109  0.30473  0.90711  Biso   1.000  W
  W219     1.0000 0.69527  0.15636  0.90711  Biso   1.000  W
  W220     1.0000 0.17697  0.20558  0.57378  Biso   1.000  W
  W221     1.0000 0.79442  0.97140  0.57378  Biso   1.000  W
  W222     1.0000 0.02860  0.82303  0.57378  Biso   1.000  W
  W223     1.0000 0.51031  0.87224  0.24044  Biso   1.000  W
  W224     1.0000 0.12776  0.63806  0.24044  Biso   1.000  W
  W225     1.0000 0.36194  0.48969  0.24044  Biso   1.000  W
  W226     1.0000 0.15636  0.46109  0.09289  Biso   1.000  W
  W227     1.0000 0.53891  0.69527  0.09289  Biso   1.000  W
  W228     1.0000 0.30473  0.84364  0.09289  Biso   1.000  W
  W229     1.0000 0.48969  0.12776  0.75956  Biso   1.000  W
  W230     1.0000 0.87224  0.36194  0.75956  Biso   1.000  W
  W231     1.0000 0.63806  0.51031  0.75956  Biso   1.000  W
  W232     1.0000 0.82303  0.79442  0.42622  Biso   1.000  W
  W233     1.0000 0.20558  0.02860  0.42622  Biso   1.000  W
  W234     1.0000 0.97140  0.17697  0.42622  Biso   1.000  W
  W235     1.0000 0.86056  0.64862  0.87308  Biso   1.000  W
  W236     1.0000 0.35138  0.21194  0.87308  Biso   1.000  W
  W237     1.0000 0.78806  0.13944  0.87308  Biso   1.000  W
  W238     1.0000 0.19389  0.31529  0.53975  Biso   1.000  W
  W239     1.0000 0.68471  0.87861  0.53975  Biso   1.000  W
  W240     1.0000 0.12139  0.80611  0.53975  Biso   1.000  W
  W241     1.0000 0.52723  0.98195  0.20641  Biso   1.000  W
  W242     1.0000 0.01805  0.54527  0.20641  Biso   1.000  W
  W243     1.0000 0.45473  0.47277  0.20641  Biso   1.000  W
  W244     1.0000 0.13944  0.35138  0.12692  Biso   1.000  W
  W245     1.0000 0.64862  0.78806  0.12692  Biso   1.000  W
  W246     1.0000 0.21194  0.86056  0.12692  Biso   1.000  W
  W247     1.0000 0.47277  0.01805  0.79359  Biso   1.000  W
  W248     1.0000 0.98195  0.45473  0.79359  Biso   1.000  W
  W249     1.0000 0.54527  0.52723  0.79359  Biso   1.000  W
  W250     1.0000 0.80611  0.68471  0.46025  Biso   1.000  W
  W251     1.0000 0.31529  0.12139  0.46025  Biso   1.000  W
  W252     1.0000 0.87861  0.19389  0.46025  Biso   1.000  W
  W253     1.0000 0.73985  0.69156  0.92010  Biso   1.000  W
  W254     1.0000 0.30844  0.04829  0.92010  Biso   1.000  W
  W255     1.0000 0.95171  0.26015  0.92010  Biso   1.000  W
  W256     1.0000 0.07318  0.35823  0.58677  Biso   1.000  W
  W257     1.0000 0.64177  0.71496  0.58677  Biso   1.000  W
  W258     1.0000 0.28504  0.92682  0.58677  Biso   1.000  W
  W259     1.0000 0.40652  0.02489  0.25343  Biso   1.000  W
  W260     1.0000 0.97511  0.38162  0.25343  Biso   1.000  W
  W261     1.0000 0.61838  0.59348  0.25343  Biso   1.000  W
  W262     1.0000 0.26015  0.30844  0.07990  Biso   1.000  W
  W263     1.0000 0.69156  0.95171  0.07990  Biso   1.000  W
  W264     1.0000 0.04829  0.73985  0.07990  Biso   1.000  W
  W265     1.0000 0.59348  0.97511  0.74657  Biso   1.000  W
  W266     1.0000 0.02489  0.61838  0.74657  Biso   1.000  W
  W267     1.0000 0.38162  0.40652  0.74657  Biso   1.000  W
  W268     1.0000 0.92682  0.64177  0.41323  Biso   1.000  W
  W269     1.0000 0.35823  0.28504  0.41323  Biso   1.000  W
  W270     1.0000 0.71496  0.07318  0.41323  Biso   1.000  W
  W271     1.0000 0.73095  0.56583  0.89964  Biso   1.000  W
  W272     1.0000 0.43417  0.16512  0.89964  Biso   1.000  W
  W273     1.0000 0.83488  0.26905  0.89964  Biso   1.000  W
  W274     1.0000 0.06428  0.23250  0.56631  Biso   1.000  W
  W275     1.0000 0.76750  0.83179  0.56631  Biso   1.000  W
  W276     1.0000 0.16821  0.93572  0.56631  Biso   1.000  W
  W277     1.0000 0.39762  0.89916  0.23297  Biso   1.000  W
  W278     1.0000 0.10084  0.49845  0.23297  Biso   1.000  W
  W279     1.0000 0.50155  0.60238  0.23297  Biso   1.000  W
  W280     1.0000 0.26905  0.43417  0.10036  Biso   1.000  W
  W281     1.0000 0.56583  0.83488  0.10036  Biso   1.000  W
  W282     1.0000 0.16512  0.73095  0.10036  Biso   1.000  W
  W283     1.0000 0.60238  0.10084  0.76703  Biso   1.000  W
  W284     1.0000 0.89916  0.50155  0.76703  Biso   1.000  W
  W285     1.0000 0.49845  0.39762  0.76703  Biso   1.000  W
  W286     1.0000 0.93572  0.76750  0.43369  Biso   1.000  W
  W287     1.0000 0.23250  0.16821  0.43369  Biso   1.000  W
  W288     1.0000 0.83179  0.06428  0.43369  Biso   1.000  W
  S1       1.0000 0.80103  0.15666  0.07562  Biso   1.000  S
  S2       1.0000 0.84334  0.64437  0.07562  Biso   1.000  S
  S3       1.0000 0.35563  0.19897  0.07562  Biso   1.000  S
  S4       1.0000 0.13436  0.82333  0.74229  Biso   1.000  S
  S5       1.0000 0.17667  0.31104  0.74229  Biso   1.000  S
  S6       1.0000 0.68896  0.86564  0.74229  Biso   1.000  S
  S7       1.0000 0.46770  0.48999  0.40895  Biso   1.000  S
  S8       1.0000 0.51001  0.97770  0.40895  Biso   1.000  S
  S9       1.0000 0.02230  0.53230  0.40895  Biso   1.000  S
  S10      1.0000 0.19897  0.84334  0.92438  Biso   1.000  S
  S11      1.0000 0.15666  0.35563  0.92438  Biso   1.000  S
  S12      1.0000 0.64437  0.80103  0.92438  Biso   1.000  S
  S13      1.0000 0.53230  0.51001  0.59105  Biso   1.000  S
  S14      1.0000 0.48999  0.02230  0.59105  Biso   1.000  S
  S15      1.0000 0.97770  0.46770  0.59105  Biso   1.000  S
  S16      1.0000 0.86564  0.17667  0.25771  Biso   1.000  S
  S17      1.0000 0.82333  0.68896  0.25771  Biso   1.000  S
  S18      1.0000 0.31104  0.13436  0.25771  Biso   1.000  S
  S19      1.0000 0.84480  0.28038  0.02911  Biso   1.000  S
  S20      1.0000 0.71962  0.56442  0.02911  Biso   1.000  S
  S21      1.0000 0.43558  0.15520  0.02911  Biso   1.000  S
  S22      1.0000 0.17813  0.94705  0.69578  Biso   1.000  S
  S23      1.0000 0.05295  0.23109  0.69578  Biso   1.000  S
  S24      1.0000 0.76891  0.82187  0.69578  Biso   1.000  S
  S25      1.0000 0.51147  0.61371  0.36244  Biso   1.000  S
  S26      1.0000 0.38629  0.89775  0.36244  Biso   1.000  S
  S27      1.0000 0.10225  0.48853  0.36244  Biso   1.000  S
  S28      1.0000 0.15520  0.71962  0.97089  Biso   1.000  S
  S29      1.0000 0.28038  0.43558  0.97089  Biso   1.000  S
  S30      1.0000 0.56442  0.84480  0.97089  Biso   1.000  S
  S31      1.0000 0.48853  0.38629  0.63756  Biso   1.000  S
  S32      1.0000 0.61371  0.10225  0.63756  Biso   1.000  S
  S33      1.0000 0.89775  0.51147  0.63756  Biso   1.000  S
  S34      1.0000 0.82187  0.05295  0.30422  Biso   1.000  S
  S35      1.0000 0.94705  0.76891  0.30422  Biso   1.000  S
  S36      1.0000 0.23109  0.17813  0.30422  Biso   1.000  S
  S37      1.0000 0.05290  0.53107  0.92619  Biso   1.000  S
  S38      1.0000 0.46893  0.52183  0.92619  Biso   1.000  S
  S39      1.0000 0.47817  0.94710  0.92619  Biso   1.000  S
  S40      1.0000 0.38623  0.19774  0.59286  Biso   1.000  S
  S41      1.0000 0.80226  0.18850  0.59286  Biso   1.000  S
  S42      1.0000 0.81150  0.61377  0.59286  Biso   1.000  S
  S43      1.0000 0.71957  0.86440  0.25952  Biso   1.000  S
  S44      1.0000 0.13560  0.85516  0.25952  Biso   1.000  S
  S45      1.0000 0.14484  0.28043  0.25952  Biso   1.000  S
  S46      1.0000 0.94710  0.46893  0.07381  Biso   1.000  S
  S47      1.0000 0.53107  0.47817  0.07381  Biso   1.000  S
  S48      1.0000 0.52183  0.05290  0.07381  Biso   1.000  S
  S49      1.0000 0.28043  0.13560  0.74048  Biso   1.000  S
  S50      1.0000 0.86440  0.14484  0.74048  Biso   1.000  S
  S51      1.0000 0.85516  0.71957  0.74048  Biso   1.000  S
  S52      1.0000 0.61377  0.80226  0.40714  Biso   1.000  S
  S53      1.0000 0.19774  0.81150  0.40714  Biso   1.000  S
  S54      1.0000 0.18850  0.38623  0.40714  Biso   1.000  S
  S55      1.0000 0.12651  0.41712  0.97147  Biso   1.000  S
  S56      1.0000 0.58288  0.70939  0.97147  Biso   1.000  S
  S57      1.0000 0.29061  0.87349  0.97147  Biso   1.000  S
  S58      1.0000 0.45984  0.08379  0.63814  Biso   1.000  S
  S59      1.0000 0.91621  0.37606  0.63814  Biso   1.000  S
  S60      1.0000 0.62394  0.54016  0.63814  Biso   1.000  S
  S61      1.0000 0.79318  0.75045  0.30480  Biso   1.000  S
  S62      1.0000 0.24955  0.04272  0.30480  Biso   1.000  S
  S63      1.0000 0.95728  0.20682  0.30480  Biso   1.000  S
  S64      1.0000 0.87349  0.58288  0.02853  Biso   1.000  S
  S65      1.0000 0.41712  0.29061  0.02853  Biso   1.000  S
  S66      1.0000 0.70939  0.12651  0.02853  Biso   1.000  S
  S67      1.0000 0.20682  0.24955  0.69520  Biso   1.000  S
  S68      1.0000 0.75045  0.95728  0.69520  Biso   1.000  S
  S69      1.0000 0.04272  0.79318  0.69520  Biso   1.000  S
  S70      1.0000 0.54016  0.91621  0.36186  Biso   1.000  S
  S71      1.0000 0.08379  0.62394  0.36186  Biso   1.000  S
  S72      1.0000 0.37606  0.45984  0.36186  Biso   1.000  S
  S73      1.0000 0.01790  0.27151  0.20423  Biso   1.000  S
  S74      1.0000 0.72849  0.74639  0.20423  Biso   1.000  S
  S75      1.0000 0.25361  0.98210  0.20423  Biso   1.000  S
  S76      1.0000 0.35123  0.93818  0.87090  Biso   1.000  S
  S77      1.0000 0.06182  0.41306  0.87090  Biso   1.000  S
  S78      1.0000 0.58694  0.64877  0.87090  Biso   1.000  S
  S79      1.0000 0.68457  0.60484  0.53756  Biso   1.000  S
  S80      1.0000 0.39516  0.07972  0.53756  Biso   1.000  S
  S81      1.0000 0.92028  0.31543  0.53756  Biso   1.000  S
  S82      1.0000 0.98210  0.72849  0.79577  Biso   1.000  S
  S83      1.0000 0.27151  0.25361  0.79577  Biso   1.000  S
  S84      1.0000 0.74639  0.01790  0.79577  Biso   1.000  S
  S85      1.0000 0.31543  0.39516  0.46244  Biso   1.000  S
  S86      1.0000 0.60484  0.92028  0.46244  Biso   1.000  S
  S87      1.0000 0.07972  0.68457  0.46244  Biso   1.000  S
  S88      1.0000 0.64877  0.06182  0.12910  Biso   1.000  S
  S89      1.0000 0.93818  0.58694  0.12910  Biso   1.000  S
  S90      1.0000 0.41306  0.35123  0.12910  Biso   1.000  S
  S91      1.0000 0.93421  0.38230  0.17185  Biso   1.000  S
  S92      1.0000 0.61770  0.55191  0.17185  Biso   1.000  S
  S93      1.0000 0.44809  0.06579  0.17185  Biso   1.000  S
  S94      1.0000 0.26754  0.04897  0.83852  Biso   1.000  S
  S95      1.0000 0.95103  0.21858  0.83852  Biso   1.000  S
  S96      1.0000 0.78142  0.73246  0.83852  Biso   1.000  S
  S97      1.0000 0.60088  0.71563  0.50518  Biso   1.000  S
  S98      1.0000 0.28437  0.88524  0.50518  Biso   1.000  S
  S99      1.0000 0.11476  0.39912  0.50518  Biso   1.000  S
  S100     1.0000 0.06579  0.61770  0.82815  Biso   1.000  S
  S101     1.0000 0.38230  0.44809  0.82815  Biso   1.000  S
  S102     1.0000 0.55191  0.93421  0.82815  Biso   1.000  S
  S103     1.0000 0.39912  0.28437  0.49482  Biso   1.000  S
  S104     1.0000 0.71563  0.11476  0.49482  Biso   1.000  S
  S105     1.0000 0.88524  0.60088  0.49482  Biso   1.000  S
  S106     1.0000 0.73246  0.95103  0.16148  Biso   1.000  S
  S107     1.0000 0.04897  0.78142  0.16148  Biso   1.000  S
  S108     1.0000 0.21858  0.26754  0.16148  Biso   1.000  S
  O4       1.0000 0.93730  0.95230  0.22892  Biso   1.000  O
  O5       1.0000 0.04770  0.98500  0.22892  Biso   1.000  O
  O6       1.0000 0.01500  0.06270  0.22892  Biso   1.000  O
  O7       1.0000 0.27063  0.61897  0.89559  Biso   1.000  O
  O8       1.0000 0.38103  0.65167  0.89559  Biso   1.000  O
  O9       1.0000 0.34833  0.72937  0.89559  Biso   1.000  O
  O10      1.0000 0.60397  0.28563  0.56225  Biso   1.000  O
  O11      1.0000 0.71437  0.31833  0.56225  Biso   1.000  O
  O12      1.0000 0.68167  0.39603  0.56225  Biso   1.000  O
  O13      1.0000 0.06270  0.04770  0.77108  Biso   1.000  O
  O14      1.0000 0.95230  0.01500  0.77108  Biso   1.000  O
  O15      1.0000 0.98500  0.93730  0.77108  Biso   1.000  O
  O16      1.0000 0.39603  0.71437  0.43775  Biso   1.000  O
  O17      1.0000 0.28563  0.68167  0.43775  Biso   1.000  O
  O18      1.0000 0.31833  0.60397  0.43775  Biso   1.000  O
  O19      1.0000 0.72937  0.38103  0.10441  Biso   1.000  O
  O20      1.0000 0.61897  0.34833  0.10441  Biso   1.000  O
  O21      1.0000 0.65167  0.27063  0.10441  Biso   1.000  O
  O22      1.0000 0.00000  0.00000  0.19465  Biso   1.000  O
  O23      1.0000 0.33333  0.66667  0.86132  Biso   1.000  O
  O24      1.0000 0.66667  0.33333  0.52798  Biso   1.000  O
  O25      1.0000 0.00000  0.00000  0.80535  Biso   1.000  O
  O26      1.0000 0.33333  0.66667  0.47202  Biso   1.000  O
  O27      1.0000 0.66667  0.33333  0.13868  Biso   1.000  O
  O28      1.0000 0.88340  0.97250  0.19285  Biso   1.000  O
  O29      1.0000 0.02750  0.91090  0.19285  Biso   1.000  O
  O30      1.0000 0.08910  0.11660  0.19285  Biso   1.000  O
  O31      1.0000 0.21673  0.63917  0.85952  Biso   1.000  O
  O32      1.0000 0.36083  0.57757  0.85952  Biso   1.000  O
  O33      1.0000 0.42243  0.78327  0.85952  Biso   1.000  O
  O34      1.0000 0.55007  0.30583  0.52618  Biso   1.000  O
  O35      1.0000 0.69417  0.24423  0.52618  Biso   1.000  O
  O36      1.0000 0.75577  0.44993  0.52618  Biso   1.000  O
  O37      1.0000 0.11660  0.02750  0.80715  Biso   1.000  O
  O38      1.0000 0.97250  0.08910  0.80715  Biso   1.000  O
  O39      1.0000 0.91090  0.88340  0.80715  Biso   1.000  O
  O40      1.0000 0.44993  0.69417  0.47382  Biso   1.000  O
  O41      1.0000 0.30583  0.75577  0.47382  Biso   1.000  O
  O42      1.0000 0.24423  0.55007  0.47382  Biso   1.000  O
  O43      1.0000 0.78327  0.36083  0.14048  Biso   1.000  O
  O44      1.0000 0.63917  0.42243  0.14048  Biso   1.000  O
  O45      1.0000 0.57757  0.21673  0.14048  Biso   1.000  O
  O46      1.0000 0.93710  0.95370  0.16189  Biso   1.000  O
  O47      1.0000 0.04630  0.98340  0.16189  Biso   1.000  O
  O48      1.0000 0.01660  0.06290  0.16189  Biso   1.000  O
  O49      1.0000 0.27043  0.62037  0.82856  Biso   1.000  O
  O50      1.0000 0.37963  0.65007  0.82856  Biso   1.000  O
  O51      1.0000 0.34993  0.72957  0.82856  Biso   1.000  O
  O52      1.0000 0.60377  0.28703  0.49522  Biso   1.000  O
  O53      1.0000 0.71297  0.31673  0.49522  Biso   1.000  O
  O54      1.0000 0.68327  0.39623  0.49522  Biso   1.000  O
  O55      1.0000 0.06290  0.04630  0.83811  Biso   1.000  O
  O56      1.0000 0.95370  0.01660  0.83811  Biso   1.000  O
  O57      1.0000 0.98340  0.93710  0.83811  Biso   1.000  O
  O58      1.0000 0.39623  0.71297  0.50478  Biso   1.000  O
  O59      1.0000 0.28703  0.68327  0.50478  Biso   1.000  O
  O60      1.0000 0.31673  0.60377  0.50478  Biso   1.000  O
  O61      1.0000 0.72957  0.37963  0.17144  Biso   1.000  O
  O62      1.0000 0.62037  0.34993  0.17144  Biso   1.000  O
  O63      1.0000 0.65007  0.27043  0.17144  Biso   1.000  O
  O64      1.0000 0.95840  0.07890  0.19375  Biso   1.000  O
  O65      1.0000 0.92110  0.87950  0.19375  Biso   1.000  O
  O66      1.0000 0.12050  0.04160  0.19375  Biso   1.000  O
  O67      1.0000 0.29173  0.74557  0.86042  Biso   1.000  O
  O68      1.0000 0.25443  0.54617  0.86042  Biso   1.000  O
  O69      1.0000 0.45383  0.70827  0.86042  Biso   1.000  O
  O70      1.0000 0.62507  0.41223  0.52708  Biso   1.000  O
  O71      1.0000 0.58777  0.21283  0.52708  Biso   1.000  O
  O72      1.0000 0.78717  0.37493  0.52708  Biso   1.000  O
  O73      1.0000 0.04160  0.92110  0.80625  Biso   1.000  O
  O74      1.0000 0.07890  0.12050  0.80625  Biso   1.000  O
  O75      1.0000 0.87950  0.95840  0.80625  Biso   1.000  O
  O76      1.0000 0.37493  0.58777  0.47292  Biso   1.000  O
  O77      1.0000 0.41223  0.78717  0.47292  Biso   1.000  O
  O78      1.0000 0.21283  0.62507  0.47292  Biso   1.000  O
  O79      1.0000 0.70827  0.25443  0.13958  Biso   1.000  O
  O80      1.0000 0.74557  0.45383  0.13958  Biso   1.000  O
  O81      1.0000 0.54617  0.29173  0.13958  Biso   1.000  O
  O82      1.0000 0.96860  0.86560  0.22686  Biso   1.000  O
  O83      1.0000 0.13440  0.10300  0.22686  Biso   1.000  O
  O84      1.0000 0.89700  0.03140  0.22686  Biso   1.000  O
  O85      1.0000 0.30193  0.53227  0.89353  Biso   1.000  O
  O86      1.0000 0.46773  0.76967  0.89353  Biso   1.000  O
  O87      1.0000 0.23033  0.69807  0.89353  Biso   1.000  O
  O88      1.0000 0.63527  0.19893  0.56019  Biso   1.000  O
  O89      1.0000 0.80107  0.43633  0.56019  Biso   1.000  O
  O90      1.0000 0.56367  0.36473  0.56019  Biso   1.000  O
  O91      1.0000 0.03140  0.13440  0.77314  Biso   1.000  O
  O92      1.0000 0.86560  0.89700  0.77314  Biso   1.000  O
  O93      1.0000 0.10300  0.96860  0.77314  Biso   1.000  O
  O94      1.0000 0.36473  0.80107  0.43981  Biso   1.000  O
  O95      1.0000 0.19893  0.56367  0.43981  Biso   1.000  O
  O96      1.0000 0.43633  0.63527  0.43981  Biso   1.000  O
  O97      1.0000 0.69807  0.46773  0.10647  Biso   1.000  O
  O98      1.0000 0.53227  0.23033  0.10647  Biso   1.000  O
  O99      1.0000 0.76967  0.30193  0.10647  Biso   1.000  O
  O100     1.0000 0.83760  0.87550  0.21663  Biso   1.000  O
  O101     1.0000 0.12450  0.96210  0.21663  Biso   1.000  O
  O102     1.0000 0.03790  0.16240  0.21663  Biso   1.000  O
  O103     1.0000 0.17093  0.54217  0.88330  Biso   1.000  O
  O104     1.0000 0.45783  0.62877  0.88330  Biso   1.000  O
  O105     1.0000 0.37123  0.82907  0.88330  Biso   1.000  O
  O106     1.0000 0.50427  0.20883  0.54996  Biso   1.000  O
  O107     1.0000 0.79117  0.29543  0.54996  Biso   1.000  O
  O108     1.0000 0.70457  0.49573  0.54996  Biso   1.000  O
  O109     1.0000 0.16240  0.12450  0.78337  Biso   1.000  O
  O110     1.0000 0.87550  0.03790  0.78337  Biso   1.000  O
  O111     1.0000 0.96210  0.83760  0.78337  Biso   1.000  O
  O112     1.0000 0.49573  0.79117  0.45004  Biso   1.000  O
  O113     1.0000 0.20883  0.70457  0.45004  Biso   1.000  O
  O114     1.0000 0.29543  0.50427  0.45004  Biso   1.000  O
  O115     1.0000 0.82907  0.45783  0.11670  Biso   1.000  O
  O116     1.0000 0.54217  0.37123  0.11670  Biso   1.000  O
  O117     1.0000 0.62877  0.17093  0.11670  Biso   1.000  O
  O118     1.0000 0.88490  0.86140  0.25148  Biso   1.000  O
  O119     1.0000 0.13860  0.02350  0.25148  Biso   1.000  O
  O120     1.0000 0.97650  0.11510  0.25148  Biso   1.000  O
  O121     1.0000 0.21823  0.52807  0.91815  Biso   1.000  O
  O122     1.0000 0.47193  0.69017  0.91815  Biso   1.000  O
  O123     1.0000 0.30983  0.78177  0.91815  Biso   1.000  O
  O124     1.0000 0.55157  0.19473  0.58481  Biso   1.000  O
  O125     1.0000 0.80527  0.35683  0.58481  Biso   1.000  O
  O126     1.0000 0.64317  0.44843  0.58481  Biso   1.000  O
  O127     1.0000 0.11510  0.13860  0.74852  Biso   1.000  O
  O128     1.0000 0.86140  0.97650  0.74852  Biso   1.000  O
  O129     1.0000 0.02350  0.88490  0.74852  Biso   1.000  O
  O130     1.0000 0.44843  0.80527  0.41519  Biso   1.000  O
  O131     1.0000 0.19473  0.64317  0.41519  Biso   1.000  O
  O132     1.0000 0.35683  0.55157  0.41519  Biso   1.000  O
  O133     1.0000 0.78177  0.47193  0.08185  Biso   1.000  O
  O134     1.0000 0.52807  0.30983  0.08185  Biso   1.000  O
  O135     1.0000 0.69017  0.21823  0.08185  Biso   1.000  O
  O136     1.0000 0.95430  0.01620  0.26763  Biso   1.000  O
  O137     1.0000 0.98380  0.93810  0.26763  Biso   1.000  O
  O138     1.0000 0.06190  0.04570  0.26763  Biso   1.000  O
  O139     1.0000 0.28763  0.68287  0.93430  Biso   1.000  O
  O140     1.0000 0.31713  0.60477  0.93430  Biso   1.000  O
  O141     1.0000 0.39523  0.71237  0.93430  Biso   1.000  O
  O142     1.0000 0.62097  0.34953  0.60096  Biso   1.000  O
  O143     1.0000 0.65047  0.27143  0.60096  Biso   1.000  O
  O144     1.0000 0.72857  0.37903  0.60096  Biso   1.000  O
  O145     1.0000 0.04570  0.98380  0.73237  Biso   1.000  O
  O146     1.0000 0.01620  0.06190  0.73237  Biso   1.000  O
  O147     1.0000 0.93810  0.95430  0.73237  Biso   1.000  O
  O148     1.0000 0.37903  0.65047  0.39904  Biso   1.000  O
  O149     1.0000 0.34953  0.72857  0.39904  Biso   1.000  O
  O150     1.0000 0.27143  0.62097  0.39904  Biso   1.000  O
  O151     1.0000 0.71237  0.31713  0.06570  Biso   1.000  O
  O152     1.0000 0.68287  0.39523  0.06570  Biso   1.000  O
  O153     1.0000 0.60477  0.28763  0.06570  Biso   1.000  O
  O154     1.0000 0.88370  0.91660  0.28937  Biso   1.000  O
  O155     1.0000 0.08340  0.96710  0.28937  Biso   1.000  O
  O156     1.0000 0.03290  0.11630  0.28937  Biso   1.000  O
  O157     1.0000 0.21703  0.58327  0.95604  Biso   1.000  O
  O158     1.0000 0.41673  0.63377  0.95604  Biso   1.000  O
  O159     1.0000 0.36623  0.78297  0.95604  Biso   1.000  O
  O160     1.0000 0.55037  0.24993  0.62270  Biso   1.000  O
  O161     1.0000 0.75007  0.30043  0.62270  Biso   1.000  O
  O162     1.0000 0.69957  0.44963  0.62270  Biso   1.000  O
  O163     1.0000 0.11630  0.08340  0.71063  Biso   1.000  O
  O164     1.0000 0.91660  0.03290  0.71063  Biso   1.000  O
  O165     1.0000 0.96710  0.88370  0.71063  Biso   1.000  O
  O166     1.0000 0.44963  0.75007  0.37730  Biso   1.000  O
  O167     1.0000 0.24993  0.69957  0.37730  Biso   1.000  O
  O168     1.0000 0.30043  0.55037  0.37730  Biso   1.000  O
  O169     1.0000 0.78297  0.41673  0.04396  Biso   1.000  O
  O170     1.0000 0.58327  0.36623  0.04396  Biso   1.000  O
  O171     1.0000 0.63377  0.21703  0.04396  Biso   1.000  O
  O172     1.0000 0.85100  0.93900  0.25057  Biso   1.000  O
  O173     1.0000 0.06100  0.91200  0.25057  Biso   1.000  O
  O174     1.0000 0.08800  0.14900  0.25057  Biso   1.000  O
  O175     1.0000 0.18433  0.60567  0.91724  Biso   1.000  O
  O176     1.0000 0.39433  0.57867  0.91724  Biso   1.000  O
  O177     1.0000 0.42133  0.81567  0.91724  Biso   1.000  O
  O178     1.0000 0.51767  0.27233  0.58390  Biso   1.000  O
  O179     1.0000 0.72767  0.24533  0.58390  Biso   1.000  O
  O180     1.0000 0.75467  0.48233  0.58390  Biso   1.000  O
  O181     1.0000 0.14900  0.06100  0.74943  Biso   1.000  O
  O182     1.0000 0.93900  0.08800  0.74943  Biso   1.000  O
  O183     1.0000 0.91200  0.85100  0.74943  Biso   1.000  O
  O184     1.0000 0.48233  0.72767  0.41610  Biso   1.000  O
  O185     1.0000 0.27233  0.75467  0.41610  Biso   1.000  O
  O186     1.0000 0.24533  0.51767  0.41610  Biso   1.000  O
  O187     1.0000 0.81567  0.39433  0.08276  Biso   1.000  O
  O188     1.0000 0.60567  0.42133  0.08276  Biso   1.000  O
  O189     1.0000 0.57867  0.18433  0.08276  Biso   1.000  O
  O190     1.0000 0.78630  0.94150  0.21643  Biso   1.000  O
  O191     1.0000 0.05850  0.84480  0.21643  Biso   1.000  O
  O192     1.0000 0.15520  0.21370  0.21643  Biso   1.000  O
  O193     1.0000 0.11963  0.60817  0.88310  Biso   1.000  O
  O194     1.0000 0.39183  0.51147  0.88310  Biso   1.000  O
  O195     1.0000 0.48853  0.88037  0.88310  Biso   1.000  O
  O196     1.0000 0.45297  0.27483  0.54976  Biso   1.000  O
  O197     1.0000 0.72517  0.17813  0.54976  Biso   1.000  O
  O198     1.0000 0.82187  0.54703  0.54976  Biso   1.000  O
  O199     1.0000 0.21370  0.05850  0.78357  Biso   1.000  O
  O200     1.0000 0.94150  0.15520  0.78357  Biso   1.000  O
  O201     1.0000 0.84480  0.78630  0.78357  Biso   1.000  O
  O202     1.0000 0.54703  0.72517  0.45024  Biso   1.000  O
  O203     1.0000 0.27483  0.82187  0.45024  Biso   1.000  O
  O204     1.0000 0.17813  0.45297  0.45024  Biso   1.000  O
  O205     1.0000 0.88037  0.39183  0.11690  Biso   1.000  O
  O206     1.0000 0.60817  0.48853  0.11690  Biso   1.000  O
  O207     1.0000 0.51147  0.11963  0.11690  Biso   1.000  O
  O208     1.0000 0.85620  0.78330  0.21950  Biso   1.000  O
  O209     1.0000 0.21670  0.07290  0.21950  Biso   1.000  O
  O210     1.0000 0.92710  0.14380  0.21950  Biso   1.000  O
  O211     1.0000 0.18953  0.44997  0.88617  Biso   1.000  O
  O212     1.0000 0.55003  0.73957  0.88617  Biso   1.000  O
  O213     1.0000 0.26043  0.81047  0.88617  Biso   1.000  O
  O214     1.0000 0.52287  0.11663  0.55283  Biso   1.000  O
  O215     1.0000 0.88337  0.40623  0.55283  Biso   1.000  O
  O216     1.0000 0.59377  0.47713  0.55283  Biso   1.000  O
  O217     1.0000 0.14380  0.21670  0.78050  Biso   1.000  O
  O218     1.0000 0.78330  0.92710  0.78050  Biso   1.000  O
  O219     1.0000 0.07290  0.85620  0.78050  Biso   1.000  O
  O220     1.0000 0.47713  0.88337  0.44717  Biso   1.000  O
  O221     1.0000 0.11663  0.59377  0.44717  Biso   1.000  O
  O222     1.0000 0.40623  0.52287  0.44717  Biso   1.000  O
  O223     1.0000 0.81047  0.55003  0.11383  Biso   1.000  O
  O224     1.0000 0.44997  0.26043  0.11383  Biso   1.000  O
  O225     1.0000 0.73957  0.18953  0.11383  Biso   1.000  O
  O226     1.0000 0.90330  0.03580  0.15561  Biso   1.000  O
  O227     1.0000 0.96420  0.86750  0.15561  Biso   1.000  O
  O228     1.0000 0.13250  0.09670  0.15561  Biso   1.000  O
  O229     1.0000 0.23663  0.70247  0.82228  Biso   1.000  O
  O230     1.0000 0.29753  0.53417  0.82228  Biso   1.000  O
  O231     1.0000 0.46583  0.76337  0.82228  Biso   1.000  O
  O232     1.0000 0.56997  0.36913  0.48894  Biso   1.000  O
  O233     1.0000 0.63087  0.20083  0.48894  Biso   1.000  O
  O234     1.0000 0.79917  0.43003  0.48894  Biso   1.000  O
  O235     1.0000 0.09670  0.96420  0.84439  Biso   1.000  O
  O236     1.0000 0.03580  0.13250  0.84439  Biso   1.000  O
  O237     1.0000 0.86750  0.90330  0.84439  Biso   1.000  O
  O238     1.0000 0.43003  0.63087  0.51106  Biso   1.000  O
  O239     1.0000 0.36913  0.79917  0.51106  Biso   1.000  O
  O240     1.0000 0.20083  0.56997  0.51106  Biso   1.000  O
  O241     1.0000 0.76337  0.29753  0.17772  Biso   1.000  O
  O242     1.0000 0.70247  0.46583  0.17772  Biso   1.000  O
  O243     1.0000 0.53417  0.23663  0.17772  Biso   1.000  O
  O244     1.0000 0.87470  0.70640  0.94690  Biso   1.000  O
  O245     1.0000 0.29360  0.16830  0.94690  Biso   1.000  O
  O246     1.0000 0.83170  0.12530  0.94690  Biso   1.000  O
  O247     1.0000 0.20803  0.37307  0.61357  Biso   1.000  O
  O248     1.0000 0.62693  0.83497  0.61357  Biso   1.000  O
  O249     1.0000 0.16503  0.79197  0.61357  Biso   1.000  O
  O250     1.0000 0.54137  0.03973  0.28023  Biso   1.000  O
  O251     1.0000 0.96027  0.50163  0.28023  Biso   1.000  O
  O252     1.0000 0.49837  0.45863  0.28023  Biso   1.000  O
  O253     1.0000 0.12530  0.29360  0.05310  Biso   1.000  O
  O254     1.0000 0.70640  0.83170  0.05310  Biso   1.000  O
  O255     1.0000 0.16830  0.87470  0.05310  Biso   1.000  O
  O256     1.0000 0.45863  0.96027  0.71977  Biso   1.000  O
  O257     1.0000 0.03973  0.49837  0.71977  Biso   1.000  O
  O258     1.0000 0.50163  0.54137  0.71977  Biso   1.000  O
  O259     1.0000 0.79197  0.62693  0.38643  Biso   1.000  O
  O260     1.0000 0.37307  0.16503  0.38643  Biso   1.000  O
  O261     1.0000 0.83497  0.20803  0.38643  Biso   1.000  O
  O262     1.0000 0.82140  0.63040  0.94900  Biso   1.000  O
  O263     1.0000 0.36960  0.19100  0.94900  Biso   1.000  O
  O264     1.0000 0.80900  0.17860  0.94900  Biso   1.000  O
  O265     1.0000 0.15473  0.29707  0.61567  Biso   1.000  O
  O266     1.0000 0.70293  0.85767  0.61567  Biso   1.000  O
  O267     1.0000 0.14233  0.84527  0.61567  Biso   1.000  O
  O268     1.0000 0.48807  0.96373  0.28233  Biso   1.000  O
  O269     1.0000 0.03627  0.52433  0.28233  Biso   1.000  O
  O270     1.0000 0.47567  0.51193  0.28233  Biso   1.000  O
  O271     1.0000 0.17860  0.36960  0.05100  Biso   1.000  O
  O272     1.0000 0.63040  0.80900  0.05100  Biso   1.000  O
  O273     1.0000 0.19100  0.82140  0.05100  Biso   1.000  O
  O274     1.0000 0.51193  0.03627  0.71767  Biso   1.000  O
  O275     1.0000 0.96373  0.47567  0.71767  Biso   1.000  O
  O276     1.0000 0.52433  0.48807  0.71767  Biso   1.000  O
  O277     1.0000 0.84527  0.70293  0.38433  Biso   1.000  O
  O278     1.0000 0.29707  0.14233  0.38433  Biso   1.000  O
  O279     1.0000 0.85767  0.15473  0.38433  Biso   1.000  O
  O280     1.0000 0.78450  0.63520  0.92670  Biso   1.000  O
  O281     1.0000 0.36480  0.14930  0.92670  Biso   1.000  O
  O282     1.0000 0.85070  0.21550  0.92670  Biso   1.000  O
  O283     1.0000 0.11783  0.30187  0.59337  Biso   1.000  O
  O284     1.0000 0.69813  0.81597  0.59337  Biso   1.000  O
  O285     1.0000 0.18403  0.88217  0.59337  Biso   1.000  O
  O286     1.0000 0.45117  0.96853  0.26003  Biso   1.000  O
  O287     1.0000 0.03147  0.48263  0.26003  Biso   1.000  O
  O288     1.0000 0.51737  0.54883  0.26003  Biso   1.000  O
  O289     1.0000 0.21550  0.36480  0.07330  Biso   1.000  O
  O290     1.0000 0.63520  0.85070  0.07330  Biso   1.000  O
  O291     1.0000 0.14930  0.78450  0.07330  Biso   1.000  O
  O292     1.0000 0.54883  0.03147  0.73997  Biso   1.000  O
  O293     1.0000 0.96853  0.51737  0.73997  Biso   1.000  O
  O294     1.0000 0.48263  0.45117  0.73997  Biso   1.000  O
  O295     1.0000 0.88217  0.69813  0.40663  Biso   1.000  O
  O296     1.0000 0.30187  0.18403  0.40663  Biso   1.000  O
  O297     1.0000 0.81597  0.11783  0.40663  Biso   1.000  O
  O298     1.0000 0.83550  0.71260  0.92360  Biso   1.000  O
  O299     1.0000 0.28740  0.12290  0.92360  Biso   1.000  O
  O300     1.0000 0.87710  0.16450  0.92360  Biso   1.000  O
  O301     1.0000 0.16883  0.37927  0.59027  Biso   1.000  O
  O302     1.0000 0.62073  0.78957  0.59027  Biso   1.000  O
  O303     1.0000 0.21043  0.83117  0.59027  Biso   1.000  O
  O304     1.0000 0.50217  0.04593  0.25693  Biso   1.000  O
  O305     1.0000 0.95407  0.45623  0.25693  Biso   1.000  O
  O306     1.0000 0.54377  0.49783  0.25693  Biso   1.000  O
  O307     1.0000 0.16450  0.28740  0.07640  Biso   1.000  O
  O308     1.0000 0.71260  0.87710  0.07640  Biso   1.000  O
  O309     1.0000 0.12290  0.83550  0.07640  Biso   1.000  O
  O310     1.0000 0.49783  0.95407  0.74307  Biso   1.000  O
  O311     1.0000 0.04593  0.54377  0.74307  Biso   1.000  O
  O312     1.0000 0.45623  0.50217  0.74307  Biso   1.000  O
  O313     1.0000 0.83117  0.62073  0.40973  Biso   1.000  O
  O314     1.0000 0.37927  0.21043  0.40973  Biso   1.000  O
  O315     1.0000 0.78957  0.16883  0.40973  Biso   1.000  O
  O316     1.0000 0.83090  0.62160  0.90820  Biso   1.000  O
  O317     1.0000 0.37840  0.20930  0.90820  Biso   1.000  O
  O318     1.0000 0.79070  0.16910  0.90820  Biso   1.000  O
  O319     1.0000 0.16423  0.28827  0.57487  Biso   1.000  O
  O320     1.0000 0.71173  0.87597  0.57487  Biso   1.000  O
  O321     1.0000 0.12403  0.83577  0.57487  Biso   1.000  O
  O322     1.0000 0.49757  0.95493  0.24153  Biso   1.000  O
  O323     1.0000 0.04507  0.54263  0.24153  Biso   1.000  O
  O324     1.0000 0.45737  0.50243  0.24153  Biso   1.000  O
  O325     1.0000 0.16910  0.37840  0.09180  Biso   1.000  O
  O326     1.0000 0.62160  0.79070  0.09180  Biso   1.000  O
  O327     1.0000 0.20930  0.83090  0.09180  Biso   1.000  O
  O328     1.0000 0.50243  0.04507  0.75847  Biso   1.000  O
  O329     1.0000 0.95493  0.45737  0.75847  Biso   1.000  O
  O330     1.0000 0.54263  0.49757  0.75847  Biso   1.000  O
  O331     1.0000 0.83577  0.71173  0.42513  Biso   1.000  O
  O332     1.0000 0.28827  0.12403  0.42513  Biso   1.000  O
  O333     1.0000 0.87597  0.16423  0.42513  Biso   1.000  O
  O334     1.0000 0.87890  0.69570  0.90660  Biso   1.000  O
  O335     1.0000 0.30430  0.18320  0.90660  Biso   1.000  O
  O336     1.0000 0.81680  0.12110  0.90660  Biso   1.000  O
  O337     1.0000 0.21223  0.36237  0.57327  Biso   1.000  O
  O338     1.0000 0.63763  0.84987  0.57327  Biso   1.000  O
  O339     1.0000 0.15013  0.78777  0.57327  Biso   1.000  O
  O340     1.0000 0.54557  0.02903  0.23993  Biso   1.000  O
  O341     1.0000 0.97097  0.51653  0.23993  Biso   1.000  O
  O342     1.0000 0.48347  0.45443  0.23993  Biso   1.000  O
  O343     1.0000 0.12110  0.30430  0.09340  Biso   1.000  O
  O344     1.0000 0.69570  0.81680  0.09340  Biso   1.000  O
  O345     1.0000 0.18320  0.87890  0.09340  Biso   1.000  O
  O346     1.0000 0.45443  0.97097  0.76007  Biso   1.000  O
  O347     1.0000 0.02903  0.48347  0.76007  Biso   1.000  O
  O348     1.0000 0.51653  0.54557  0.76007  Biso   1.000  O
  O349     1.0000 0.78777  0.63763  0.42673  Biso   1.000  O
  O350     1.0000 0.36237  0.15013  0.42673  Biso   1.000  O
  O351     1.0000 0.84987  0.21223  0.42673  Biso   1.000  O
  O352     1.0000 0.86840  0.61260  0.93230  Biso   1.000  O
  O353     1.0000 0.38740  0.25580  0.93230  Biso   1.000  O
  O354     1.0000 0.74420  0.13160  0.93230  Biso   1.000  O
  O355     1.0000 0.20173  0.27927  0.59897  Biso   1.000  O
  O356     1.0000 0.72073  0.92247  0.59897  Biso   1.000  O
  O357     1.0000 0.07753  0.79827  0.59897  Biso   1.000  O
  O358     1.0000 0.53507  0.94593  0.26563  Biso   1.000  O
  O359     1.0000 0.05407  0.58913  0.26563  Biso   1.000  O
  O360     1.0000 0.41087  0.46493  0.26563  Biso   1.000  O
  O361     1.0000 0.13160  0.38740  0.06770  Biso   1.000  O
  O362     1.0000 0.61260  0.74420  0.06770  Biso   1.000  O
  O363     1.0000 0.25580  0.86840  0.06770  Biso   1.000  O
  O364     1.0000 0.46493  0.05407  0.73437  Biso   1.000  O
  O365     1.0000 0.94593  0.41087  0.73437  Biso   1.000  O
  O366     1.0000 0.58913  0.53507  0.73437  Biso   1.000  O
  O367     1.0000 0.79827  0.72073  0.40103  Biso   1.000  O
  O368     1.0000 0.27927  0.07753  0.40103  Biso   1.000  O
  O369     1.0000 0.92247  0.20173  0.40103  Biso   1.000  O
  O370     1.0000 0.92010  0.69320  0.92990  Biso   1.000  O
  O371     1.0000 0.30680  0.22690  0.92990  Biso   1.000  O
  O372     1.0000 0.77310  0.07990  0.92990  Biso   1.000  O
  O373     1.0000 0.25343  0.35987  0.59657  Biso   1.000  O
  O374     1.0000 0.64013  0.89357  0.59657  Biso   1.000  O
  O375     1.0000 0.10643  0.74657  0.59657  Biso   1.000  O
  O376     1.0000 0.58677  0.02653  0.26323  Biso   1.000  O
  O377     1.0000 0.97347  0.56023  0.26323  Biso   1.000  O
  O378     1.0000 0.43977  0.41323  0.26323  Biso   1.000  O
  O379     1.0000 0.07990  0.30680  0.07010  Biso   1.000  O
  O380     1.0000 0.69320  0.77310  0.07010  Biso   1.000  O
  O381     1.0000 0.22690  0.92010  0.07010  Biso   1.000  O
  O382     1.0000 0.41323  0.97347  0.73677  Biso   1.000  O
  O383     1.0000 0.02653  0.43977  0.73677  Biso   1.000  O
  O384     1.0000 0.56023  0.58677  0.73677  Biso   1.000  O
  O385     1.0000 0.74657  0.64013  0.40343  Biso   1.000  O
  O386     1.0000 0.35987  0.10643  0.40343  Biso   1.000  O
  O387     1.0000 0.89357  0.25343  0.40343  Biso   1.000  O
  O388     1.0000 0.83900  0.74040  0.97230  Biso   1.000  O
  O389     1.0000 0.25960  0.09860  0.97230  Biso   1.000  O
  O390     1.0000 0.90140  0.16100  0.97230  Biso   1.000  O
  O391     1.0000 0.17233  0.40707  0.63897  Biso   1.000  O
  O392     1.0000 0.59293  0.76527  0.63897  Biso   1.000  O
  O393     1.0000 0.23473  0.82767  0.63897  Biso   1.000  O
  O394     1.0000 0.50567  0.07373  0.30563  Biso   1.000  O
  O395     1.0000 0.92627  0.43193  0.30563  Biso   1.000  O
  O396     1.0000 0.56807  0.49433  0.30563  Biso   1.000  O
  O397     1.0000 0.16100  0.25960  0.02770  Biso   1.000  O
  O398     1.0000 0.74040  0.90140  0.02770  Biso   1.000  O
  O399     1.0000 0.09860  0.83900  0.02770  Biso   1.000  O
  O400     1.0000 0.49433  0.92627  0.69437  Biso   1.000  O
  O401     1.0000 0.07373  0.56807  0.69437  Biso   1.000  O
  O402     1.0000 0.43193  0.50567  0.69437  Biso   1.000  O
  O403     1.0000 0.82767  0.59293  0.36103  Biso   1.000  O
  O404     1.0000 0.40707  0.23473  0.36103  Biso   1.000  O
  O405     1.0000 0.76527  0.17233  0.36103  Biso   1.000  O
  O406     1.0000 0.76470  0.63190  0.97606  Biso   1.000  O
  O407     1.0000 0.36810  0.13280  0.97606  Biso   1.000  O
  O408     1.0000 0.86720  0.23530  0.97606  Biso   1.000  O
  O409     1.0000 0.09803  0.29857  0.64273  Biso   1.000  O
  O410     1.0000 0.70143  0.79947  0.64273  Biso   1.000  O
  O411     1.0000 0.20053  0.90197  0.64273  Biso   1.000  O
  O412     1.0000 0.43137  0.96523  0.30939  Biso   1.000  O
  O413     1.0000 0.03477  0.46613  0.30939  Biso   1.000  O
  O414     1.0000 0.53387  0.56863  0.30939  Biso   1.000  O
  O415     1.0000 0.23530  0.36810  0.02394  Biso   1.000  O
  O416     1.0000 0.63190  0.86720  0.02394  Biso   1.000  O
  O417     1.0000 0.13280  0.76470  0.02394  Biso   1.000  O
  O418     1.0000 0.56863  0.03477  0.69061  Biso   1.000  O
  O419     1.0000 0.96523  0.53387  0.69061  Biso   1.000  O
  O420     1.0000 0.46613  0.43137  0.69061  Biso   1.000  O
  O421     1.0000 0.90197  0.70143  0.35727  Biso   1.000  O
  O422     1.0000 0.29857  0.20053  0.35727  Biso   1.000  O
  O423     1.0000 0.79947  0.09803  0.35727  Biso   1.000  O
  O424     1.0000 0.92350  0.72120  0.97830  Biso   1.000  O
  O425     1.0000 0.27880  0.20230  0.97830  Biso   1.000  O
  O426     1.0000 0.79770  0.07650  0.97830  Biso   1.000  O
  O427     1.0000 0.25683  0.38787  0.64497  Biso   1.000  O
  O428     1.0000 0.61213  0.86897  0.64497  Biso   1.000  O
  O429     1.0000 0.13103  0.74317  0.64497  Biso   1.000  O
  O430     1.0000 0.59017  0.05453  0.31163  Biso   1.000  O
  O431     1.0000 0.94547  0.53563  0.31163  Biso   1.000  O
  O432     1.0000 0.46437  0.40983  0.31163  Biso   1.000  O
  O433     1.0000 0.07650  0.27880  0.02170  Biso   1.000  O
  O434     1.0000 0.72120  0.79770  0.02170  Biso   1.000  O
  O435     1.0000 0.20230  0.92350  0.02170  Biso   1.000  O
  O436     1.0000 0.40983  0.94547  0.68837  Biso   1.000  O
  O437     1.0000 0.05453  0.46437  0.68837  Biso   1.000  O
  O438     1.0000 0.53563  0.59017  0.68837  Biso   1.000  O
  O439     1.0000 0.74317  0.61213  0.35503  Biso   1.000  O
  O440     1.0000 0.38787  0.13103  0.35503  Biso   1.000  O
  O441     1.0000 0.86897  0.25683  0.35503  Biso   1.000  O
  O442     1.0000 0.84910  0.61120  0.98230  Biso   1.000  O
  O443     1.0000 0.38880  0.23790  0.98230  Biso   1.000  O
  O444     1.0000 0.76210  0.15090  0.98230  Biso   1.000  O
  O445     1.0000 0.18243  0.27787  0.64897  Biso   1.000  O
  O446     1.0000 0.72213  0.90457  0.64897  Biso   1.000  O
  O447     1.0000 0.09543  0.81757  0.64897  Biso   1.000  O
  O448     1.0000 0.51577  0.94453  0.31563  Biso   1.000  O
  O449     1.0000 0.05547  0.57123  0.31563  Biso   1.000  O
  O450     1.0000 0.42877  0.48423  0.31563  Biso   1.000  O
  O451     1.0000 0.15090  0.38880  0.01770  Biso   1.000  O
  O452     1.0000 0.61120  0.76210  0.01770  Biso   1.000  O
  O453     1.0000 0.23790  0.84910  0.01770  Biso   1.000  O
  O454     1.0000 0.48423  0.05547  0.68437  Biso   1.000  O
  O455     1.0000 0.94453  0.42877  0.68437  Biso   1.000  O
  O456     1.0000 0.57123  0.51577  0.68437  Biso   1.000  O
  O457     1.0000 0.81757  0.72213  0.35103  Biso   1.000  O
  O458     1.0000 0.27787  0.09543  0.35103  Biso   1.000  O
  O459     1.0000 0.90457  0.18243  0.35103  Biso   1.000  O
  O460     1.0000 0.78510  0.74870  0.93996  Biso   1.000  O
  O461     1.0000 0.25130  0.03640  0.93996  Biso   1.000  O
  O462     1.0000 0.96360  0.21490  0.93996  Biso   1.000  O
  O463     1.0000 0.11843  0.41537  0.60663  Biso   1.000  O
  O464     1.0000 0.58463  0.70307  0.60663  Biso   1.000  O
  O465     1.0000 0.29693  0.88157  0.60663  Biso   1.000  O
  O466     1.0000 0.45177  0.08203  0.27329  Biso   1.000  O
  O467     1.0000 0.91797  0.36973  0.27329  Biso   1.000  O
  O468     1.0000 0.63027  0.54823  0.27329  Biso   1.000  O
  O469     1.0000 0.21490  0.25130  0.06004  Biso   1.000  O
  O470     1.0000 0.74870  0.96360  0.06004  Biso   1.000  O
  O471     1.0000 0.03640  0.78510  0.06004  Biso   1.000  O
  O472     1.0000 0.54823  0.91797  0.72671  Biso   1.000  O
  O473     1.0000 0.08203  0.63027  0.72671  Biso   1.000  O
  O474     1.0000 0.36973  0.45177  0.72671  Biso   1.000  O
  O475     1.0000 0.88157  0.58463  0.39337  Biso   1.000  O
  O476     1.0000 0.41537  0.29693  0.39337  Biso   1.000  O
  O477     1.0000 0.70307  0.11843  0.39337  Biso   1.000  O
  O478     1.0000 0.71220  0.63930  0.94293  Biso   1.000  O
  O479     1.0000 0.36070  0.07290  0.94293  Biso   1.000  O
  O480     1.0000 0.92710  0.28780  0.94293  Biso   1.000  O
  O481     1.0000 0.04553  0.30597  0.60960  Biso   1.000  O
  O482     1.0000 0.69403  0.73957  0.60960  Biso   1.000  O
  O483     1.0000 0.26043  0.95447  0.60960  Biso   1.000  O
  O484     1.0000 0.37887  0.97263  0.27626  Biso   1.000  O
  O485     1.0000 0.02737  0.40623  0.27626  Biso   1.000  O
  O486     1.0000 0.59377  0.62113  0.27626  Biso   1.000  O
  O487     1.0000 0.28780  0.36070  0.05707  Biso   1.000  O
  O488     1.0000 0.63930  0.92710  0.05707  Biso   1.000  O
  O489     1.0000 0.07290  0.71220  0.05707  Biso   1.000  O
  O490     1.0000 0.62113  0.02737  0.72374  Biso   1.000  O
  O491     1.0000 0.97263  0.59377  0.72374  Biso   1.000  O
  O492     1.0000 0.40623  0.37887  0.72374  Biso   1.000  O
  O493     1.0000 0.95447  0.69403  0.39040  Biso   1.000  O
  O494     1.0000 0.30597  0.26043  0.39040  Biso   1.000  O
  O495     1.0000 0.73957  0.04553  0.39040  Biso   1.000  O
  O496     1.0000 0.78970  0.73770  0.89882  Biso   1.000  O
  O497     1.0000 0.26230  0.05200  0.89882  Biso   1.000  O
  O498     1.0000 0.94800  0.21030  0.89882  Biso   1.000  O
  O499     1.0000 0.12303  0.40437  0.56549  Biso   1.000  O
  O500     1.0000 0.59563  0.71867  0.56549  Biso   1.000  O
  O501     1.0000 0.28133  0.87697  0.56549  Biso   1.000  O
  O502     1.0000 0.45637  0.07103  0.23215  Biso   1.000  O
  O503     1.0000 0.92897  0.38533  0.23215  Biso   1.000  O
  O504     1.0000 0.61467  0.54363  0.23215  Biso   1.000  O
  O505     1.0000 0.21030  0.26230  0.10118  Biso   1.000  O
  O506     1.0000 0.73770  0.94800  0.10118  Biso   1.000  O
  O507     1.0000 0.05200  0.78970  0.10118  Biso   1.000  O
  O508     1.0000 0.54363  0.92897  0.76785  Biso   1.000  O
  O509     1.0000 0.07103  0.61467  0.76785  Biso   1.000  O
  O510     1.0000 0.38533  0.45637  0.76785  Biso   1.000  O
  O511     1.0000 0.87697  0.59563  0.43451  Biso   1.000  O
  O512     1.0000 0.40437  0.28133  0.43451  Biso   1.000  O
  O513     1.0000 0.71867  0.12303  0.43451  Biso   1.000  O
  O514     1.0000 0.71740  0.62850  0.90232  Biso   1.000  O
  O515     1.0000 0.37150  0.08890  0.90232  Biso   1.000  O
  O516     1.0000 0.91110  0.28260  0.90232  Biso   1.000  O
  O517     1.0000 0.05073  0.29517  0.56899  Biso   1.000  O
  O518     1.0000 0.70483  0.75557  0.56899  Biso   1.000  O
  O519     1.0000 0.24443  0.94927  0.56899  Biso   1.000  O
  O520     1.0000 0.38407  0.96183  0.23565  Biso   1.000  O
  O521     1.0000 0.03817  0.42223  0.23565  Biso   1.000  O
  O522     1.0000 0.57777  0.61593  0.23565  Biso   1.000  O
  O523     1.0000 0.28260  0.37150  0.09768  Biso   1.000  O
  O524     1.0000 0.62850  0.91110  0.09768  Biso   1.000  O
  O525     1.0000 0.08890  0.71740  0.09768  Biso   1.000  O
  O526     1.0000 0.61593  0.03817  0.76435  Biso   1.000  O
  O527     1.0000 0.96183  0.57777  0.76435  Biso   1.000  O
  O528     1.0000 0.42223  0.38407  0.76435  Biso   1.000  O
  O529     1.0000 0.94927  0.70483  0.43101  Biso   1.000  O
  O530     1.0000 0.29517  0.24443  0.43101  Biso   1.000  O
  O531     1.0000 0.75557  0.05073  0.43101  Biso   1.000  O
  O532     1.0000 0.88100  0.81100  0.92035  Biso   1.000  O
  O533     1.0000 0.18900  0.07000  0.92035  Biso   1.000  O
  O534     1.0000 0.93000  0.11900  0.92035  Biso   1.000  O
  O535     1.0000 0.21433  0.47767  0.58702  Biso   1.000  O
  O536     1.0000 0.52233  0.73667  0.58702  Biso   1.000  O
  O537     1.0000 0.26333  0.78567  0.58702  Biso   1.000  O
  O538     1.0000 0.54767  0.14433  0.25368  Biso   1.000  O
  O539     1.0000 0.85567  0.40333  0.25368  Biso   1.000  O
  O540     1.0000 0.59667  0.45233  0.25368  Biso   1.000  O
  O541     1.0000 0.11900  0.18900  0.07965  Biso   1.000  O
  O542     1.0000 0.81100  0.93000  0.07965  Biso   1.000  O
  O543     1.0000 0.07000  0.88100  0.07965  Biso   1.000  O
  O544     1.0000 0.45233  0.85567  0.74632  Biso   1.000  O
  O545     1.0000 0.14433  0.59667  0.74632  Biso   1.000  O
  O546     1.0000 0.40333  0.54767  0.74632  Biso   1.000  O
  O547     1.0000 0.78567  0.52233  0.41298  Biso   1.000  O
  O548     1.0000 0.47767  0.26333  0.41298  Biso   1.000  O
  O549     1.0000 0.73667  0.21433  0.41298  Biso   1.000  O
  O550     1.0000 0.93620  0.80270  0.95270  Biso   1.000  O
  O551     1.0000 0.19730  0.13350  0.95270  Biso   1.000  O
  O552     1.0000 0.86650  0.06380  0.95270  Biso   1.000  O
  O553     1.0000 0.26953  0.46937  0.61937  Biso   1.000  O
  O554     1.0000 0.53063  0.80017  0.61937  Biso   1.000  O
  O555     1.0000 0.19983  0.73047  0.61937  Biso   1.000  O
  O556     1.0000 0.60287  0.13603  0.28603  Biso   1.000  O
  O557     1.0000 0.86397  0.46683  0.28603  Biso   1.000  O
  O558     1.0000 0.53317  0.39713  0.28603  Biso   1.000  O
  O559     1.0000 0.06380  0.19730  0.04730  Biso   1.000  O
  O560     1.0000 0.80270  0.86650  0.04730  Biso   1.000  O
  O561     1.0000 0.13350  0.93620  0.04730  Biso   1.000  O
  O562     1.0000 0.39713  0.86397  0.71397  Biso   1.000  O
  O563     1.0000 0.13603  0.53317  0.71397  Biso   1.000  O
  O564     1.0000 0.46683  0.60287  0.71397  Biso   1.000  O
  O565     1.0000 0.73047  0.53063  0.38063  Biso   1.000  O
  O566     1.0000 0.46937  0.19983  0.38063  Biso   1.000  O
  O567     1.0000 0.80017  0.26953  0.38063  Biso   1.000  O
  O568     1.0000 0.85400  0.71510  0.87472  Biso   1.000  O
  O569     1.0000 0.28490  0.13890  0.87472  Biso   1.000  O
  O570     1.0000 0.86110  0.14600  0.87472  Biso   1.000  O
  O571     1.0000 0.18733  0.38177  0.54139  Biso   1.000  O
  O572     1.0000 0.61823  0.80557  0.54139  Biso   1.000  O
  O573     1.0000 0.19443  0.81267  0.54139  Biso   1.000  O
  O574     1.0000 0.52067  0.04843  0.20805  Biso   1.000  O
  O575     1.0000 0.95157  0.47223  0.20805  Biso   1.000  O
  O576     1.0000 0.52777  0.47933  0.20805  Biso   1.000  O
  O577     1.0000 0.14600  0.28490  0.12528  Biso   1.000  O
  O578     1.0000 0.71510  0.86110  0.12528  Biso   1.000  O
  O579     1.0000 0.13890  0.85400  0.12528  Biso   1.000  O
  O580     1.0000 0.47933  0.95157  0.79195  Biso   1.000  O
  O581     1.0000 0.04843  0.52777  0.79195  Biso   1.000  O
  O582     1.0000 0.47223  0.52067  0.79195  Biso   1.000  O
  O583     1.0000 0.81267  0.61823  0.45861  Biso   1.000  O
  O584     1.0000 0.38177  0.19443  0.45861  Biso   1.000  O
  O585     1.0000 0.80557  0.18733  0.45861  Biso   1.000  O
  O586     1.0000 0.86670  0.58520  0.88320  Biso   1.000  O
  O587     1.0000 0.41480  0.28150  0.88320  Biso   1.000  O
  O588     1.0000 0.71850  0.13330  0.88320  Biso   1.000  O
  O589     1.0000 0.20003  0.25187  0.54987  Biso   1.000  O
  O590     1.0000 0.74813  0.94817  0.54987  Biso   1.000  O
  O591     1.0000 0.05183  0.79997  0.54987  Biso   1.000  O
  O592     1.0000 0.53337  0.91853  0.21653  Biso   1.000  O
  O593     1.0000 0.08147  0.61483  0.21653  Biso   1.000  O
  O594     1.0000 0.38517  0.46663  0.21653  Biso   1.000  O
  O595     1.0000 0.13330  0.41480  0.11680  Biso   1.000  O
  O596     1.0000 0.58520  0.71850  0.11680  Biso   1.000  O
  O597     1.0000 0.28150  0.86670  0.11680  Biso   1.000  O
  O598     1.0000 0.46663  0.08147  0.78347  Biso   1.000  O
  O599     1.0000 0.91853  0.38517  0.78347  Biso   1.000  O
  O600     1.0000 0.61483  0.53337  0.78347  Biso   1.000  O
  O601     1.0000 0.79997  0.74813  0.45013  Biso   1.000  O
  O602     1.0000 0.25187  0.05183  0.45013  Biso   1.000  O
  O603     1.0000 0.94817  0.20003  0.45013  Biso   1.000  O
  O604     1.0000 0.76720  0.52250  0.90280  Biso   1.000  O
  O605     1.0000 0.47750  0.24470  0.90280  Biso   1.000  O
  O606     1.0000 0.75530  0.23280  0.90280  Biso   1.000  O
  O607     1.0000 0.10053  0.18917  0.56947  Biso   1.000  O
  O608     1.0000 0.81083  0.91137  0.56947  Biso   1.000  O
  O609     1.0000 0.08863  0.89947  0.56947  Biso   1.000  O
  O610     1.0000 0.43387  0.85583  0.23613  Biso   1.000  O
  O611     1.0000 0.14417  0.57803  0.23613  Biso   1.000  O
  O612     1.0000 0.42197  0.56613  0.23613  Biso   1.000  O
  O613     1.0000 0.23280  0.47750  0.09720  Biso   1.000  O
  O614     1.0000 0.52250  0.75530  0.09720  Biso   1.000  O
  O615     1.0000 0.24470  0.76720  0.09720  Biso   1.000  O
  O616     1.0000 0.56613  0.14417  0.76387  Biso   1.000  O
  O617     1.0000 0.85583  0.42197  0.76387  Biso   1.000  O
  O618     1.0000 0.57803  0.43387  0.76387  Biso   1.000  O
  O619     1.0000 0.89947  0.81083  0.43053  Biso   1.000  O
  O620     1.0000 0.18917  0.08863  0.43053  Biso   1.000  O
  O621     1.0000 0.91137  0.10053  0.43053  Biso   1.000  O
  O622     1.0000 0.94400  0.78720  0.89490  Biso   1.000  O
  O623     1.0000 0.21280  0.15680  0.89490  Biso   1.000  O
  O624     1.0000 0.84320  0.05600  0.89490  Biso   1.000  O
  O625     1.0000 0.27733  0.45387  0.56157  Biso   1.000  O
  O626     1.0000 0.54613  0.82347  0.56157  Biso   1.000  O
  O627     1.0000 0.17653  0.72267  0.56157  Biso   1.000  O
  O628     1.0000 0.61067  0.12053  0.22823  Biso   1.000  O
  O629     1.0000 0.87947  0.49013  0.22823  Biso   1.000  O
  O630     1.0000 0.50987  0.38933  0.22823  Biso   1.000  O
  O631     1.0000 0.05600  0.21280  0.10510  Biso   1.000  O
  O632     1.0000 0.78720  0.84320  0.10510  Biso   1.000  O
  O633     1.0000 0.15680  0.94400  0.10510  Biso   1.000  O
  O634     1.0000 0.38933  0.87947  0.77177  Biso   1.000  O
  O635     1.0000 0.12053  0.50987  0.77177  Biso   1.000  O
  O636     1.0000 0.49013  0.61067  0.77177  Biso   1.000  O
  O637     1.0000 0.72267  0.54613  0.43843  Biso   1.000  O
  O638     1.0000 0.45387  0.17653  0.43843  Biso   1.000  O
  O639     1.0000 0.82347  0.27733  0.43843  Biso   1.000  O
  O640     1.0000 0.00050  0.78200  0.92861  Biso   1.000  O
  O641     1.0000 0.21800  0.21850  0.92861  Biso   1.000  O
  O642     1.0000 0.78150  0.99950  0.92861  Biso   1.000  O
  O643     1.0000 0.33383  0.44867  0.59528  Biso   1.000  O
  O644     1.0000 0.55133  0.88517  0.59528  Biso   1.000  O
  O645     1.0000 0.11483  0.66617  0.59528  Biso   1.000  O
  O646     1.0000 0.66717  0.11533  0.26194  Biso   1.000  O
  O647     1.0000 0.88467  0.55183  0.26194  Biso   1.000  O
  O648     1.0000 0.44817  0.33283  0.26194  Biso   1.000  O
  O649     1.0000 0.99950  0.21800  0.07139  Biso   1.000  O
  O650     1.0000 0.78200  0.78150  0.07139  Biso   1.000  O
  O651     1.0000 0.21850  0.00050  0.07139  Biso   1.000  O
  O652     1.0000 0.33283  0.88467  0.73806  Biso   1.000  O
  O653     1.0000 0.11533  0.44817  0.73806  Biso   1.000  O
  O654     1.0000 0.55183  0.66717  0.73806  Biso   1.000  O
  O655     1.0000 0.66617  0.55133  0.40472  Biso   1.000  O
  O656     1.0000 0.44867  0.11483  0.40472  Biso   1.000  O
  O657     1.0000 0.88517  0.33383  0.40472  Biso   1.000  O
  O658     1.0000 0.99400  0.68900  0.91307  Biso   1.000  O
  O659     1.0000 0.31100  0.30500  0.91307  Biso   1.000  O
  O660     1.0000 0.69500  0.00600  0.91307  Biso   1.000  O
  O661     1.0000 0.32733  0.35567  0.57974  Biso   1.000  O
  O662     1.0000 0.64433  0.97167  0.57974  Biso   1.000  O
  O663     1.0000 0.02833  0.67267  0.57974  Biso   1.000  O
  O664     1.0000 0.66067  0.02233  0.24640  Biso   1.000  O
  O665     1.0000 0.97767  0.63833  0.24640  Biso   1.000  O
  O666     1.0000 0.36167  0.33933  0.24640  Biso   1.000  O
  O667     1.0000 0.00600  0.31100  0.08693  Biso   1.000  O
  O668     1.0000 0.68900  0.69500  0.08693  Biso   1.000  O
  O669     1.0000 0.30500  0.99400  0.08693  Biso   1.000  O
  O670     1.0000 0.33933  0.97767  0.75360  Biso   1.000  O
  O671     1.0000 0.02233  0.36167  0.75360  Biso   1.000  O
  O672     1.0000 0.63833  0.66067  0.75360  Biso   1.000  O
  O673     1.0000 0.67267  0.64433  0.42026  Biso   1.000  O
  O674     1.0000 0.35567  0.02833  0.42026  Biso   1.000  O
  O675     1.0000 0.97167  0.32733  0.42026  Biso   1.000  O
  O676     1.0000 0.93820  0.69470  0.88080  Biso   1.000  O
  O677     1.0000 0.30530  0.24350  0.88080  Biso   1.000  O
  O678     1.0000 0.75650  0.06180  0.88080  Biso   1.000  O
  O679     1.0000 0.27153  0.36137  0.54747  Biso   1.000  O
  O680     1.0000 0.63863  0.91017  0.54747  Biso   1.000  O
  O681     1.0000 0.08983  0.72847  0.54747  Biso   1.000  O
  O682     1.0000 0.60487  0.02803  0.21413  Biso   1.000  O
  O683     1.0000 0.97197  0.57683  0.21413  Biso   1.000  O
  O684     1.0000 0.42317  0.39513  0.21413  Biso   1.000  O
  O685     1.0000 0.06180  0.30530  0.11920  Biso   1.000  O
  O686     1.0000 0.69470  0.75650  0.11920  Biso   1.000  O
  O687     1.0000 0.24350  0.93820  0.11920  Biso   1.000  O
  O688     1.0000 0.39513  0.97197  0.78587  Biso   1.000  O
  O689     1.0000 0.02803  0.42317  0.78587  Biso   1.000  O
  O690     1.0000 0.57683  0.60487  0.78587  Biso   1.000  O
  O691     1.0000 0.72847  0.63863  0.45253  Biso   1.000  O
  O692     1.0000 0.36137  0.08983  0.45253  Biso   1.000  O
  O693     1.0000 0.91017  0.27153  0.45253  Biso   1.000  O
  O694     1.0000 0.92020  0.58010  0.91600  Biso   1.000  O
  O695     1.0000 0.41990  0.34010  0.91600  Biso   1.000  O
  O696     1.0000 0.65990  0.07980  0.91600  Biso   1.000  O
  O697     1.0000 0.25353  0.24677  0.58267  Biso   1.000  O
  O698     1.0000 0.75323  0.00677  0.58267  Biso   1.000  O
  O699     1.0000 0.99323  0.74647  0.58267  Biso   1.000  O
  O700     1.0000 0.58687  0.91343  0.24933  Biso   1.000  O
  O701     1.0000 0.08657  0.67343  0.24933  Biso   1.000  O
  O702     1.0000 0.32657  0.41313  0.24933  Biso   1.000  O
  O703     1.0000 0.07980  0.41990  0.08400  Biso   1.000  O
  O704     1.0000 0.58010  0.65990  0.08400  Biso   1.000  O
  O705     1.0000 0.34010  0.92020  0.08400  Biso   1.000  O
  O706     1.0000 0.41313  0.08657  0.75067  Biso   1.000  O
  O707     1.0000 0.91343  0.32657  0.75067  Biso   1.000  O
  O708     1.0000 0.67343  0.58687  0.75067  Biso   1.000  O
  O709     1.0000 0.74647  0.75323  0.41733  Biso   1.000  O
  O710     1.0000 0.24677  0.99323  0.41733  Biso   1.000  O
  O711     1.0000 0.00677  0.25353  0.41733  Biso   1.000  O
  O712     1.0000 0.91290  0.59140  0.95678  Biso   1.000  O
  O713     1.0000 0.40860  0.32150  0.95678  Biso   1.000  O
  O714     1.0000 0.67850  0.08710  0.95678  Biso   1.000  O
  O715     1.0000 0.24623  0.25807  0.62345  Biso   1.000  O
  O716     1.0000 0.74193  0.98817  0.62345  Biso   1.000  O
  O717     1.0000 0.01183  0.75377  0.62345  Biso   1.000  O
  O718     1.0000 0.57957  0.92473  0.29011  Biso   1.000  O
  O719     1.0000 0.07527  0.65483  0.29011  Biso   1.000  O
  O720     1.0000 0.34517  0.42043  0.29011  Biso   1.000  O
  O721     1.0000 0.08710  0.40860  0.04322  Biso   1.000  O
  O722     1.0000 0.59140  0.67850  0.04322  Biso   1.000  O
  O723     1.0000 0.32150  0.91290  0.04322  Biso   1.000  O
  O724     1.0000 0.42043  0.07527  0.70989  Biso   1.000  O
  O725     1.0000 0.92473  0.34517  0.70989  Biso   1.000  O
  O726     1.0000 0.65483  0.57957  0.70989  Biso   1.000  O
  O727     1.0000 0.75377  0.74193  0.37655  Biso   1.000  O
  O728     1.0000 0.25807  0.01183  0.37655  Biso   1.000  O
  O729     1.0000 0.98817  0.24623  0.37655  Biso   1.000  O
  O730     1.0000 0.98900  0.70010  0.95394  Biso   1.000  O
  O731     1.0000 0.29990  0.28890  0.95394  Biso   1.000  O
  O732     1.0000 0.71110  0.01100  0.95394  Biso   1.000  O
  O733     1.0000 0.32233  0.36677  0.62061  Biso   1.000  O
  O734     1.0000 0.63323  0.95557  0.62061  Biso   1.000  O
  O735     1.0000 0.04443  0.67767  0.62061  Biso   1.000  O
  O736     1.0000 0.65567  0.03343  0.28727  Biso   1.000  O
  O737     1.0000 0.96657  0.62223  0.28727  Biso   1.000  O
  O738     1.0000 0.37777  0.34433  0.28727  Biso   1.000  O
  O739     1.0000 0.01100  0.29990  0.04606  Biso   1.000  O
  O740     1.0000 0.70010  0.71110  0.04606  Biso   1.000  O
  O741     1.0000 0.28890  0.98900  0.04606  Biso   1.000  O
  O742     1.0000 0.34433  0.96657  0.71273  Biso   1.000  O
  O743     1.0000 0.03343  0.37777  0.71273  Biso   1.000  O
  O744     1.0000 0.62223  0.65567  0.71273  Biso   1.000  O
  O745     1.0000 0.67767  0.63323  0.37939  Biso   1.000  O
  O746     1.0000 0.36677  0.04443  0.37939  Biso   1.000  O
  O747     1.0000 0.95557  0.32233  0.37939  Biso   1.000  O
  O748     1.0000 0.82210  0.51810  0.93575  Biso   1.000  O
  O749     1.0000 0.48190  0.30400  0.93575  Biso   1.000  O
  O750     1.0000 0.69600  0.17790  0.93575  Biso   1.000  O
  O751     1.0000 0.15543  0.18477  0.60242  Biso   1.000  O
  O752     1.0000 0.81523  0.97067  0.60242  Biso   1.000  O
  O753     1.0000 0.02933  0.84457  0.60242  Biso   1.000  O
  O754     1.0000 0.48877  0.85143  0.26908  Biso   1.000  O
  O755     1.0000 0.14857  0.63733  0.26908  Biso   1.000  O
  O756     1.0000 0.36267  0.51123  0.26908  Biso   1.000  O
  O757     1.0000 0.17790  0.48190  0.06425  Biso   1.000  O
  O758     1.0000 0.51810  0.69600  0.06425  Biso   1.000  O
  O759     1.0000 0.30400  0.82210  0.06425  Biso   1.000  O
  O760     1.0000 0.51123  0.14857  0.73092  Biso   1.000  O
  O761     1.0000 0.85143  0.36267  0.73092  Biso   1.000  O
  O762     1.0000 0.63733  0.48877  0.73092  Biso   1.000  O
  O763     1.0000 0.84457  0.81523  0.39758  Biso   1.000  O
  O764     1.0000 0.18477  0.02933  0.39758  Biso   1.000  O
  O765     1.0000 0.97067  0.15543  0.39758  Biso   1.000  O
  O766     1.0000 0.75790  0.53860  0.96131  Biso   1.000  O
  O767     1.0000 0.46140  0.21930  0.96131  Biso   1.000  O
  O768     1.0000 0.78070  0.24210  0.96131  Biso   1.000  O
  O769     1.0000 0.09123  0.20527  0.62798  Biso   1.000  O
  O770     1.0000 0.79473  0.88597  0.62798  Biso   1.000  O
  O771     1.0000 0.11403  0.90877  0.62798  Biso   1.000  O
  O772     1.0000 0.42457  0.87193  0.29464  Biso   1.000  O
  O773     1.0000 0.12807  0.55263  0.29464  Biso   1.000  O
  O774     1.0000 0.44737  0.57543  0.29464  Biso   1.000  O
  O775     1.0000 0.24210  0.46140  0.03869  Biso   1.000  O
  O776     1.0000 0.53860  0.78070  0.03869  Biso   1.000  O
  O777     1.0000 0.21930  0.75790  0.03869  Biso   1.000  O
  O778     1.0000 0.57543  0.12807  0.70536  Biso   1.000  O
  O779     1.0000 0.87193  0.44737  0.70536  Biso   1.000  O
  O780     1.0000 0.55263  0.42457  0.70536  Biso   1.000  O
  O781     1.0000 0.90877  0.79473  0.37202  Biso   1.000  O
  O782     1.0000 0.20527  0.11403  0.37202  Biso   1.000  O
  O783     1.0000 0.88597  0.09123  0.37202  Biso   1.000  O
  O784     1.0000 0.70570  0.54720  0.92782  Biso   1.000  O
  O785     1.0000 0.45280  0.15850  0.92782  Biso   1.000  O
  O786     1.0000 0.84150  0.29430  0.92782  Biso   1.000  O
  O787     1.0000 0.03903  0.21387  0.59449  Biso   1.000  O
  O788     1.0000 0.78613  0.82517  0.59449  Biso   1.000  O
  O789     1.0000 0.17483  0.96097  0.59449  Biso   1.000  O
  O790     1.0000 0.37237  0.88053  0.26115  Biso   1.000  O
  O791     1.0000 0.11947  0.49183  0.26115  Biso   1.000  O
  O792     1.0000 0.50817  0.62763  0.26115  Biso   1.000  O
  O793     1.0000 0.29430  0.45280  0.07218  Biso   1.000  O
  O794     1.0000 0.54720  0.84150  0.07218  Biso   1.000  O
  O795     1.0000 0.15850  0.70570  0.07218  Biso   1.000  O
  O796     1.0000 0.62763  0.11947  0.73885  Biso   1.000  O
  O797     1.0000 0.88053  0.50817  0.73885  Biso   1.000  O
  O798     1.0000 0.49183  0.37237  0.73885  Biso   1.000  O
  O799     1.0000 0.96097  0.78613  0.40551  Biso   1.000  O
  O800     1.0000 0.21387  0.17483  0.40551  Biso   1.000  O
  O801     1.0000 0.82517  0.03903  0.40551  Biso   1.000  O
  O802     1.0000 0.77970  0.60560  0.87750  Biso   1.000  O
  O803     1.0000 0.39440  0.17410  0.87750  Biso   1.000  O
  O804     1.0000 0.82590  0.22030  0.87750  Biso   1.000  O
  O805     1.0000 0.11303  0.27227  0.54417  Biso   1.000  O
  O806     1.0000 0.72773  0.84077  0.54417  Biso   1.000  O
  O807     1.0000 0.15923  0.88697  0.54417  Biso   1.000  O
  O808     1.0000 0.44637  0.93893  0.21083  Biso   1.000  O
  O809     1.0000 0.06107  0.50743  0.21083  Biso   1.000  O
  O810     1.0000 0.49257  0.55363  0.21083  Biso   1.000  O
  O811     1.0000 0.22030  0.39440  0.12250  Biso   1.000  O
  O812     1.0000 0.60560  0.82590  0.12250  Biso   1.000  O
  O813     1.0000 0.17410  0.77970  0.12250  Biso   1.000  O
  O814     1.0000 0.55363  0.06107  0.78917  Biso   1.000  O
  O815     1.0000 0.93893  0.49257  0.78917  Biso   1.000  O
  O816     1.0000 0.50743  0.44637  0.78917  Biso   1.000  O
  O817     1.0000 0.88697  0.72773  0.45583  Biso   1.000  O
  O818     1.0000 0.27227  0.15923  0.45583  Biso   1.000  O
  O819     1.0000 0.84077  0.11303  0.45583  Biso   1.000  O
  O820     1.0000 0.87830  0.82620  0.87783  Biso   1.000  O
  O821     1.0000 0.17380  0.05210  0.87783  Biso   1.000  O
  O822     1.0000 0.94790  0.12170  0.87783  Biso   1.000  O
  O823     1.0000 0.21163  0.49287  0.54450  Biso   1.000  O
  O824     1.0000 0.50713  0.71877  0.54450  Biso   1.000  O
  O825     1.0000 0.28123  0.78837  0.54450  Biso   1.000  O
  O826     1.0000 0.54497  0.15953  0.21116  Biso   1.000  O
  O827     1.0000 0.84047  0.38543  0.21116  Biso   1.000  O
  O828     1.0000 0.61457  0.45503  0.21116  Biso   1.000  O
  O829     1.0000 0.12170  0.17380  0.12217  Biso   1.000  O
  O830     1.0000 0.82620  0.94790  0.12217  Biso   1.000  O
  O831     1.0000 0.05210  0.87830  0.12217  Biso   1.000  O
  O832     1.0000 0.45503  0.84047  0.78884  Biso   1.000  O
  O833     1.0000 0.15953  0.61457  0.78884  Biso   1.000  O
  O834     1.0000 0.38543  0.54497  0.78884  Biso   1.000  O
  O835     1.0000 0.78837  0.50713  0.45550  Biso   1.000  O
  O836     1.0000 0.49287  0.28123  0.45550  Biso   1.000  O
  O837     1.0000 0.71877  0.21163  0.45550  Biso   1.000  O
  O838     1.0000 0.86540  0.84740  0.95889  Biso   1.000  O
  O839     1.0000 0.15260  0.01800  0.95889  Biso   1.000  O
  O840     1.0000 0.98200  0.13460  0.95889  Biso   1.000  O
  O841     1.0000 0.19873  0.51407  0.62556  Biso   1.000  O
  O842     1.0000 0.48593  0.68467  0.62556  Biso   1.000  O
  O843     1.0000 0.31533  0.80127  0.62556  Biso   1.000  O
  O844     1.0000 0.53207  0.18073  0.29222  Biso   1.000  O
  O845     1.0000 0.81927  0.35133  0.29222  Biso   1.000  O
  O846     1.0000 0.64867  0.46793  0.29222  Biso   1.000  O
  O847     1.0000 0.13460  0.15260  0.04111  Biso   1.000  O
  O848     1.0000 0.84740  0.98200  0.04111  Biso   1.000  O
  O849     1.0000 0.01800  0.86540  0.04111  Biso   1.000  O
  O850     1.0000 0.46793  0.81927  0.70778  Biso   1.000  O
  O851     1.0000 0.18073  0.64867  0.70778  Biso   1.000  O
  O852     1.0000 0.35133  0.53207  0.70778  Biso   1.000  O
  O853     1.0000 0.80127  0.48593  0.37444  Biso   1.000  O
  O854     1.0000 0.51407  0.31533  0.37444  Biso   1.000  O
  O855     1.0000 0.68467  0.19873  0.37444  Biso   1.000  O
  O856     1.0000 0.68590  0.70450  0.91604  Biso   1.000  O
  O857     1.0000 0.29550  0.98140  0.91604  Biso   1.000  O
  O858     1.0000 0.01860  0.31410  0.91604  Biso   1.000  O
  O859     1.0000 0.01923  0.37117  0.58271  Biso   1.000  O
  O860     1.0000 0.62883  0.64807  0.58271  Biso   1.000  O
  O861     1.0000 0.35193  0.98077  0.58271  Biso   1.000  O
  O862     1.0000 0.35257  0.03783  0.24937  Biso   1.000  O
  O863     1.0000 0.96217  0.31473  0.24937  Biso   1.000  O
  O864     1.0000 0.68527  0.64743  0.24937  Biso   1.000  O
  O865     1.0000 0.31410  0.29550  0.08396  Biso   1.000  O
  O866     1.0000 0.70450  0.01860  0.08396  Biso   1.000  O
  O867     1.0000 0.98140  0.68590  0.08396  Biso   1.000  O
  O868     1.0000 0.64743  0.96217  0.75063  Biso   1.000  O
  O869     1.0000 0.03783  0.68527  0.75063  Biso   1.000  O
  O870     1.0000 0.31473  0.35257  0.75063  Biso   1.000  O
  O871     1.0000 0.98077  0.62883  0.41729  Biso   1.000  O
  O872     1.0000 0.37117  0.35193  0.41729  Biso   1.000  O
  O873     1.0000 0.64807  0.01923  0.41729  Biso   1.000  O
  O874     1.0000 0.67290  0.52120  0.88627  Biso   1.000  O
  O875     1.0000 0.47880  0.15170  0.88627  Biso   1.000  O
  O876     1.0000 0.84830  0.32710  0.88627  Biso   1.000  O
  O877     1.0000 0.00623  0.18787  0.55294  Biso   1.000  O
  O878     1.0000 0.81213  0.81837  0.55294  Biso   1.000  O
  O879     1.0000 0.18163  0.99377  0.55294  Biso   1.000  O
  O880     1.0000 0.33957  0.85453  0.21960  Biso   1.000  O
  O881     1.0000 0.14547  0.48503  0.21960  Biso   1.000  O
  O882     1.0000 0.51497  0.66043  0.21960  Biso   1.000  O
  O883     1.0000 0.32710  0.47880  0.11373  Biso   1.000  O
  O884     1.0000 0.52120  0.84830  0.11373  Biso   1.000  O
  O885     1.0000 0.15170  0.67290  0.11373  Biso   1.000  O
  O886     1.0000 0.66043  0.14547  0.78040  Biso   1.000  O
  O887     1.0000 0.85453  0.51497  0.78040  Biso   1.000  O
  O888     1.0000 0.48503  0.33957  0.78040  Biso   1.000  O
  O889     1.0000 0.99377  0.81213  0.44706  Biso   1.000  O
  O890     1.0000 0.18787  0.18163  0.44706  Biso   1.000  O
  O891     1.0000 0.81837  0.00623  0.44706  Biso   1.000  O
  O892     1.0000 0.82920  0.50240  0.97824  Biso   1.000  O
  O893     1.0000 0.49760  0.32680  0.97824  Biso   1.000  O
  O894     1.0000 0.67320  0.17080  0.97824  Biso   1.000  O
  O895     1.0000 0.16253  0.16907  0.64491  Biso   1.000  O
  O896     1.0000 0.83093  0.99347  0.64491  Biso   1.000  O
  O897     1.0000 0.00653  0.83747  0.64491  Biso   1.000  O
  O898     1.0000 0.49587  0.83573  0.31157  Biso   1.000  O
  O899     1.0000 0.16427  0.66013  0.31157  Biso   1.000  O
  O900     1.0000 0.33987  0.50413  0.31157  Biso   1.000  O
  O901     1.0000 0.17080  0.49760  0.02176  Biso   1.000  O
  O902     1.0000 0.50240  0.67320  0.02176  Biso   1.000  O
  O903     1.0000 0.32680  0.82920  0.02176  Biso   1.000  O
  O904     1.0000 0.50413  0.16427  0.68843  Biso   1.000  O
  O905     1.0000 0.83573  0.33987  0.68843  Biso   1.000  O
  O906     1.0000 0.66013  0.49587  0.68843  Biso   1.000  O
  O907     1.0000 0.83747  0.83093  0.35509  Biso   1.000  O
  O908     1.0000 0.16907  0.00653  0.35509  Biso   1.000  O
  O909     1.0000 0.99347  0.16253  0.35509  Biso   1.000  O
  O910     1.0000 0.01820  0.62290  0.93953  Biso   1.000  O
  O911     1.0000 0.37710  0.39530  0.93953  Biso   1.000  O
  O912     1.0000 0.60470  0.98180  0.93953  Biso   1.000  O
  O913     1.0000 0.35153  0.28957  0.60620  Biso   1.000  O
  O914     1.0000 0.71043  0.06197  0.60620  Biso   1.000  O
  O915     1.0000 0.93803  0.64847  0.60620  Biso   1.000  O
  O916     1.0000 0.68487  0.95623  0.27286  Biso   1.000  O
  O917     1.0000 0.04377  0.72863  0.27286  Biso   1.000  O
  O918     1.0000 0.27137  0.31513  0.27286  Biso   1.000  O
  O919     1.0000 0.98180  0.37710  0.06047  Biso   1.000  O
  O920     1.0000 0.62290  0.60470  0.06047  Biso   1.000  O
  O921     1.0000 0.39530  0.01820  0.06047  Biso   1.000  O
  O922     1.0000 0.31513  0.04377  0.72714  Biso   1.000  O
  O923     1.0000 0.95623  0.27137  0.72714  Biso   1.000  O
  O924     1.0000 0.72863  0.68487  0.72714  Biso   1.000  O
  O925     1.0000 0.64847  0.71043  0.39380  Biso   1.000  O
  O926     1.0000 0.28957  0.93803  0.39380  Biso   1.000  O
  O927     1.0000 0.06197  0.35153  0.39380  Biso   1.000  O
  O928     1.0000 0.03150  0.80760  0.96980  Biso   1.000  O
  O929     1.0000 0.19240  0.22390  0.96980  Biso   1.000  O
  O930     1.0000 0.77610  0.96850  0.96980  Biso   1.000  O
  O931     1.0000 0.36483  0.47427  0.63647  Biso   1.000  O
  O932     1.0000 0.52573  0.89057  0.63647  Biso   1.000  O
  O933     1.0000 0.10943  0.63517  0.63647  Biso   1.000  O
  O934     1.0000 0.69817  0.14093  0.30313  Biso   1.000  O
  O935     1.0000 0.85907  0.55723  0.30313  Biso   1.000  O
  O936     1.0000 0.44277  0.30183  0.30313  Biso   1.000  O
  O937     1.0000 0.96850  0.19240  0.03020  Biso   1.000  O
  O938     1.0000 0.80760  0.77610  0.03020  Biso   1.000  O
  O939     1.0000 0.22390  0.03150  0.03020  Biso   1.000  O
  O940     1.0000 0.30183  0.85907  0.69687  Biso   1.000  O
  O941     1.0000 0.14093  0.44277  0.69687  Biso   1.000  O
  O942     1.0000 0.55723  0.69817  0.69687  Biso   1.000  O
  O943     1.0000 0.63517  0.52573  0.36353  Biso   1.000  O
  O944     1.0000 0.47427  0.10943  0.36353  Biso   1.000  O
  O945     1.0000 0.89057  0.36483  0.36353  Biso   1.000  O
  O946     1.0000 0.04400  0.78720  0.88905  Biso   1.000  O
  O947     1.0000 0.21280  0.25680  0.88905  Biso   1.000  O
  O948     1.0000 0.74320  0.95600  0.88905  Biso   1.000  O
  O949     1.0000 0.37733  0.45387  0.55572  Biso   1.000  O
  O950     1.0000 0.54613  0.92347  0.55572  Biso   1.000  O
  O951     1.0000 0.07653  0.62267  0.55572  Biso   1.000  O
  O952     1.0000 0.71067  0.12053  0.22238  Biso   1.000  O
  O953     1.0000 0.87947  0.59013  0.22238  Biso   1.000  O
  O954     1.0000 0.40987  0.28933  0.22238  Biso   1.000  O
  O955     1.0000 0.95600  0.21280  0.11095  Biso   1.000  O
  O956     1.0000 0.78720  0.74320  0.11095  Biso   1.000  O
  O957     1.0000 0.25680  0.04400  0.11095  Biso   1.000  O
  O958     1.0000 0.28933  0.87947  0.77762  Biso   1.000  O
  O959     1.0000 0.12053  0.40987  0.77762  Biso   1.000  O
  O960     1.0000 0.59013  0.71067  0.77762  Biso   1.000  O
  O961     1.0000 0.62267  0.54613  0.44428  Biso   1.000  O
  O962     1.0000 0.45387  0.07653  0.44428  Biso   1.000  O
  O963     1.0000 0.92347  0.37733  0.44428  Biso   1.000  O
  O964     1.0000 0.86520  0.64290  0.84699  Biso   1.000  O
  O965     1.0000 0.35710  0.22230  0.84699  Biso   1.000  O
  O966     1.0000 0.77770  0.13480  0.84699  Biso   1.000  O
  O967     1.0000 0.19853  0.30957  0.51366  Biso   1.000  O
  O968     1.0000 0.69043  0.88897  0.51366  Biso   1.000  O
  O969     1.0000 0.11103  0.80147  0.51366  Biso   1.000  O
  O970     1.0000 0.53187  0.97623  0.18032  Biso   1.000  O
  O971     1.0000 0.02377  0.55563  0.18032  Biso   1.000  O
  O972     1.0000 0.44437  0.46813  0.18032  Biso   1.000  O
  O973     1.0000 0.13480  0.35710  0.15301  Biso   1.000  O
  O974     1.0000 0.64290  0.77770  0.15301  Biso   1.000  O
  O975     1.0000 0.22230  0.86520  0.15301  Biso   1.000  O
  O976     1.0000 0.46813  0.02377  0.81968  Biso   1.000  O
  O977     1.0000 0.97623  0.44437  0.81968  Biso   1.000  O
  O978     1.0000 0.55563  0.53187  0.81968  Biso   1.000  O
  O979     1.0000 0.80147  0.69043  0.48634  Biso   1.000  O
  O980     1.0000 0.30957  0.11103  0.48634  Biso   1.000  O
  O981     1.0000 0.88897  0.19853  0.48634  Biso   1.000  O
  O982     1.0000 0.83900  0.47970  0.89760  Biso   1.000  O
  O983     1.0000 0.52030  0.35930  0.89760  Biso   1.000  O
  O984     1.0000 0.64070  0.16100  0.89760  Biso   1.000  O
  O985     1.0000 0.17233  0.14637  0.56427  Biso   1.000  O
  O986     1.0000 0.85363  0.02597  0.56427  Biso   1.000  O
  O987     1.0000 0.97403  0.82767  0.56427  Biso   1.000  O
  O988     1.0000 0.50567  0.81303  0.23093  Biso   1.000  O
  O989     1.0000 0.18697  0.69263  0.23093  Biso   1.000  O
  O990     1.0000 0.30737  0.49433  0.23093  Biso   1.000  O
  O991     1.0000 0.16100  0.52030  0.10240  Biso   1.000  O
  O992     1.0000 0.47970  0.64070  0.10240  Biso   1.000  O
  O993     1.0000 0.35930  0.83900  0.10240  Biso   1.000  O
  O994     1.0000 0.49433  0.18697  0.76907  Biso   1.000  O
  O995     1.0000 0.81303  0.30737  0.76907  Biso   1.000  O
  O996     1.0000 0.69263  0.50567  0.76907  Biso   1.000  O
  O997     1.0000 0.82767  0.85363  0.43573  Biso   1.000  O
  O998     1.0000 0.14637  0.97403  0.43573  Biso   1.000  O
  O999     1.0000 0.02597  0.17233  0.43573  Biso   1.000  O
  O1000    1.0000 0.66020  0.54340  0.96770  Biso   1.000  O
  O1001    1.0000 0.45660  0.11680  0.96770  Biso   1.000  O
  O1002    1.0000 0.88320  0.33980  0.96770  Biso   1.000  O
  O1003    1.0000 0.99353  0.21007  0.63437  Biso   1.000  O
  O1004    1.0000 0.78993  0.78347  0.63437  Biso   1.000  O
  O1005    1.0000 0.21653  0.00647  0.63437  Biso   1.000  O
  O1006    1.0000 0.32687  0.87673  0.30103  Biso   1.000  O
  O1007    1.0000 0.12327  0.45013  0.30103  Biso   1.000  O
  O1008    1.0000 0.54987  0.67313  0.30103  Biso   1.000  O
  O1009    1.0000 0.33980  0.45660  0.03230  Biso   1.000  O
  O1010    1.0000 0.54340  0.88320  0.03230  Biso   1.000  O
  O1011    1.0000 0.11680  0.66020  0.03230  Biso   1.000  O
  O1012    1.0000 0.67313  0.12327  0.69897  Biso   1.000  O
  O1013    1.0000 0.87673  0.54987  0.69897  Biso   1.000  O
  O1014    1.0000 0.45013  0.32687  0.69897  Biso   1.000  O
  O1015    1.0000 0.00647  0.78993  0.36563  Biso   1.000  O
  O1016    1.0000 0.21007  0.21653  0.36563  Biso   1.000  O
  O1017    1.0000 0.78347  0.99353  0.36563  Biso   1.000  O
  O1018    1.0000 0.84170  0.68710  0.00928  Biso   1.000  O
  O1019    1.0000 0.31290  0.15460  0.00928  Biso   1.000  O
  O1020    1.0000 0.84540  0.15830  0.00928  Biso   1.000  O
  O1021    1.0000 0.17503  0.35377  0.67595  Biso   1.000  O
  O1022    1.0000 0.64623  0.82127  0.67595  Biso   1.000  O
  O1023    1.0000 0.17873  0.82497  0.67595  Biso   1.000  O
  O1024    1.0000 0.50837  0.02043  0.34261  Biso   1.000  O
  O1025    1.0000 0.97957  0.48793  0.34261  Biso   1.000  O
  O1026    1.0000 0.51207  0.49163  0.34261  Biso   1.000  O
  O1027    1.0000 0.15830  0.31290  0.99072  Biso   1.000  O
  O1028    1.0000 0.68710  0.84540  0.99072  Biso   1.000  O
  O1029    1.0000 0.15460  0.84170  0.99072  Biso   1.000  O
  O1030    1.0000 0.49163  0.97957  0.65739  Biso   1.000  O
  O1031    1.0000 0.02043  0.51207  0.65739  Biso   1.000  O
  O1032    1.0000 0.48793  0.50837  0.65739  Biso   1.000  O
  O1033    1.0000 0.82497  0.64623  0.32405  Biso   1.000  O
  O1034    1.0000 0.35377  0.17873  0.32405  Biso   1.000  O
  O1035    1.0000 0.82127  0.17503  0.32405  Biso   1.000  O
  N1       1.0000 0.85510  0.10020  0.08863  Biso   1.000  N
  N2       1.0000 0.89980  0.75490  0.08863  Biso   1.000  N
  N3       1.0000 0.24510  0.14490  0.08863  Biso   1.000  N
  N4       1.0000 0.18843  0.76687  0.75530  Biso   1.000  N
  N5       1.0000 0.23313  0.42157  0.75530  Biso   1.000  N
  N6       1.0000 0.57843  0.81157  0.75530  Biso   1.000  N
  N7       1.0000 0.52177  0.43353  0.42196  Biso   1.000  N
  N8       1.0000 0.56647  0.08823  0.42196  Biso   1.000  N
  N9       1.0000 0.91177  0.47823  0.42196  Biso   1.000  N
  N10      1.0000 0.14490  0.89980  0.91137  Biso   1.000  N
  N11      1.0000 0.10020  0.24510  0.91137  Biso   1.000  N
  N12      1.0000 0.75490  0.85510  0.91137  Biso   1.000  N
  N13      1.0000 0.47823  0.56647  0.57804  Biso   1.000  N
  N14      1.0000 0.43353  0.91177  0.57804  Biso   1.000  N
  N15      1.0000 0.08823  0.52177  0.57804  Biso   1.000  N
  N16      1.0000 0.81157  0.23313  0.24470  Biso   1.000  N
  N17      1.0000 0.76687  0.57843  0.24470  Biso   1.000  N
  N18      1.0000 0.42157  0.18843  0.24470  Biso   1.000  N
  N19      1.0000 0.86590  0.07980  0.10603  Biso   1.000  N
  N20      1.0000 0.92020  0.78610  0.10603  Biso   1.000  N
  N21      1.0000 0.21390  0.13410  0.10603  Biso   1.000  N
  N22      1.0000 0.19923  0.74647  0.77270  Biso   1.000  N
  N23      1.0000 0.25353  0.45277  0.77270  Biso   1.000  N
  N24      1.0000 0.54723  0.80077  0.77270  Biso   1.000  N
  N25      1.0000 0.53257  0.41313  0.43936  Biso   1.000  N
  N26      1.0000 0.58687  0.11943  0.43936  Biso   1.000  N
  N27      1.0000 0.88057  0.46743  0.43936  Biso   1.000  N
  N28      1.0000 0.13410  0.92020  0.89397  Biso   1.000  N
  N29      1.0000 0.07980  0.21390  0.89397  Biso   1.000  N
  N30      1.0000 0.78610  0.86590  0.89397  Biso   1.000  N
  N31      1.0000 0.46743  0.58687  0.56064  Biso   1.000  N
  N32      1.0000 0.41313  0.88057  0.56064  Biso   1.000  N
  N33      1.0000 0.11943  0.53257  0.56064  Biso   1.000  N
  N34      1.0000 0.80077  0.25353  0.22730  Biso   1.000  N
  N35      1.0000 0.74647  0.54723  0.22730  Biso   1.000  N
  N36      1.0000 0.45277  0.19923  0.22730  Biso   1.000  N
  N37      1.0000 0.84480  0.09480  0.12151  Biso   1.000  N
  N38      1.0000 0.90520  0.75000  0.12151  Biso   1.000  N
  N39      1.0000 0.25000  0.15520  0.12151  Biso   1.000  N
  N40      1.0000 0.17813  0.76147  0.78818  Biso   1.000  N
  N41      1.0000 0.23853  0.41667  0.78818  Biso   1.000  N
  N42      1.0000 0.58333  0.82187  0.78818  Biso   1.000  N
  N43      1.0000 0.51147  0.42813  0.45484  Biso   1.000  N
  N44      1.0000 0.57187  0.08333  0.45484  Biso   1.000  N
  N45      1.0000 0.91667  0.48853  0.45484  Biso   1.000  N
  N46      1.0000 0.15520  0.90520  0.87849  Biso   1.000  N
  N47      1.0000 0.09480  0.25000  0.87849  Biso   1.000  N
  N48      1.0000 0.75000  0.84480  0.87849  Biso   1.000  N
  N49      1.0000 0.48853  0.57187  0.54516  Biso   1.000  N
  N50      1.0000 0.42813  0.91667  0.54516  Biso   1.000  N
  N51      1.0000 0.08333  0.51147  0.54516  Biso   1.000  N
  N52      1.0000 0.82187  0.23853  0.21182  Biso   1.000  N
  N53      1.0000 0.76147  0.58333  0.21182  Biso   1.000  N
  N54      1.0000 0.41667  0.17813  0.21182  Biso   1.000  N
  N55      1.0000 0.79080  0.63760  0.21902  Biso   1.000  N
  N56      1.0000 0.36240  0.15320  0.21902  Biso   1.000  N
  N57      1.0000 0.84680  0.20920  0.21902  Biso   1.000  N
  N58      1.0000 0.12413  0.30427  0.88569  Biso   1.000  N
  N59      1.0000 0.69573  0.81987  0.88569  Biso   1.000  N
  N60      1.0000 0.18013  0.87587  0.88569  Biso   1.000  N
  N61      1.0000 0.45747  0.97093  0.55235  Biso   1.000  N
  N62      1.0000 0.02907  0.48653  0.55235  Biso   1.000  N
  N63      1.0000 0.51347  0.54253  0.55235  Biso   1.000  N
  N64      1.0000 0.20920  0.36240  0.78098  Biso   1.000  N
  N65      1.0000 0.63760  0.84680  0.78098  Biso   1.000  N
  N66      1.0000 0.15320  0.79080  0.78098  Biso   1.000  N
  N67      1.0000 0.54253  0.02907  0.44765  Biso   1.000  N
  N68      1.0000 0.97093  0.51347  0.44765  Biso   1.000  N
  N69      1.0000 0.48653  0.45747  0.44765  Biso   1.000  N
  N70      1.0000 0.87587  0.69573  0.11431  Biso   1.000  N
  N71      1.0000 0.30427  0.18013  0.11431  Biso   1.000  N
  N72      1.0000 0.81987  0.12413  0.11431  Biso   1.000  N
  N73      1.0000 0.78910  0.33030  0.00988  Biso   1.000  N
  N74      1.0000 0.66970  0.45880  0.00988  Biso   1.000  N
  N75      1.0000 0.54120  0.21090  0.00988  Biso   1.000  N
  N76      1.0000 0.12243  0.99697  0.67655  Biso   1.000  N
  N77      1.0000 0.00303  0.12547  0.67655  Biso   1.000  N
  N78      1.0000 0.87453  0.87757  0.67655  Biso   1.000  N
  N79      1.0000 0.45577  0.66363  0.34321  Biso   1.000  N
  N80      1.0000 0.33637  0.79213  0.34321  Biso   1.000  N
  N81      1.0000 0.20787  0.54423  0.34321  Biso   1.000  N
  N82      1.0000 0.21090  0.66970  0.99012  Biso   1.000  N
  N83      1.0000 0.33030  0.54120  0.99012  Biso   1.000  N
  N84      1.0000 0.45880  0.78910  0.99012  Biso   1.000  N
  N85      1.0000 0.54423  0.33637  0.65679  Biso   1.000  N
  N86      1.0000 0.66363  0.20787  0.65679  Biso   1.000  N
  N87      1.0000 0.79213  0.45577  0.65679  Biso   1.000  N
  N88      1.0000 0.87757  0.00303  0.32345  Biso   1.000  N
  N89      1.0000 0.99697  0.87453  0.32345  Biso   1.000  N
  N90      1.0000 0.12547  0.12243  0.32345  Biso   1.000  N
  N91      1.0000 0.80030  0.38030  0.00159  Biso   1.000  N
  N92      1.0000 0.61970  0.42000  0.00159  Biso   1.000  N
  N93      1.0000 0.58000  0.19970  0.00159  Biso   1.000  N
  N94      1.0000 0.13363  0.04697  0.66826  Biso   1.000  N
  N95      1.0000 0.95303  0.08667  0.66826  Biso   1.000  N
  N96      1.0000 0.91333  0.86637  0.66826  Biso   1.000  N
  N97      1.0000 0.46697  0.71363  0.33492  Biso   1.000  N
  N98      1.0000 0.28637  0.75333  0.33492  Biso   1.000  N
  N99      1.0000 0.24667  0.53303  0.33492  Biso   1.000  N
  N100     1.0000 0.19970  0.61970  0.99841  Biso   1.000  N
  N101     1.0000 0.38030  0.58000  0.99841  Biso   1.000  N
  N102     1.0000 0.42000  0.80030  0.99841  Biso   1.000  N
  N103     1.0000 0.53303  0.28637  0.66508  Biso   1.000  N
  N104     1.0000 0.71363  0.24667  0.66508  Biso   1.000  N
  N105     1.0000 0.75333  0.46697  0.66508  Biso   1.000  N
  N106     1.0000 0.86637  0.95303  0.33174  Biso   1.000  N
  N107     1.0000 0.04697  0.91333  0.33174  Biso   1.000  N
  N108     1.0000 0.08667  0.13363  0.33174  Biso   1.000  N
  N109     1.0000 0.85390  0.41490  0.00591  Biso   1.000  N
  N110     1.0000 0.58510  0.43900  0.00591  Biso   1.000  N
  N111     1.0000 0.56100  0.14610  0.00591  Biso   1.000  N
  N112     1.0000 0.18723  0.08157  0.67258  Biso   1.000  N
  N113     1.0000 0.91843  0.10567  0.67258  Biso   1.000  N
  N114     1.0000 0.89433  0.81277  0.67258  Biso   1.000  N
  N115     1.0000 0.52057  0.74823  0.33924  Biso   1.000  N
  N116     1.0000 0.25177  0.77233  0.33924  Biso   1.000  N
  N117     1.0000 0.22767  0.47943  0.33924  Biso   1.000  N
  N118     1.0000 0.14610  0.58510  0.99409  Biso   1.000  N
  N119     1.0000 0.41490  0.56100  0.99409  Biso   1.000  N
  N120     1.0000 0.43900  0.85390  0.99409  Biso   1.000  N
  N121     1.0000 0.47943  0.25177  0.66076  Biso   1.000  N
  N122     1.0000 0.74823  0.22767  0.66076  Biso   1.000  N
  N123     1.0000 0.77233  0.52057  0.66076  Biso   1.000  N
  N124     1.0000 0.81277  0.91843  0.32742  Biso   1.000  N
  N125     1.0000 0.08157  0.89433  0.32742  Biso   1.000  N
  N126     1.0000 0.10567  0.18723  0.32742  Biso   1.000  N
  N127     1.0000 0.87670  0.38770  0.01601  Biso   1.000  N
  N128     1.0000 0.61230  0.48900  0.01601  Biso   1.000  N
  N129     1.0000 0.51100  0.12330  0.01601  Biso   1.000  N
  N130     1.0000 0.21003  0.05437  0.68268  Biso   1.000  N
  N131     1.0000 0.94563  0.15567  0.68268  Biso   1.000  N
  N132     1.0000 0.84433  0.78997  0.68268  Biso   1.000  N
  N133     1.0000 0.54337  0.72103  0.34934  Biso   1.000  N
  N134     1.0000 0.27897  0.82233  0.34934  Biso   1.000  N
  N135     1.0000 0.17767  0.45663  0.34934  Biso   1.000  N
  N136     1.0000 0.12330  0.61230  0.98399  Biso   1.000  N
  N137     1.0000 0.38770  0.51100  0.98399  Biso   1.000  N
  N138     1.0000 0.48900  0.87670  0.98399  Biso   1.000  N
  N139     1.0000 0.45663  0.27897  0.65066  Biso   1.000  N
  N140     1.0000 0.72103  0.17767  0.65066  Biso   1.000  N
  N141     1.0000 0.82233  0.54337  0.65066  Biso   1.000  N
  N142     1.0000 0.78997  0.94563  0.31732  Biso   1.000  N
  N143     1.0000 0.05437  0.84433  0.31732  Biso   1.000  N
  N144     1.0000 0.15567  0.21003  0.31732  Biso   1.000  N
  N145     1.0000 0.01820  0.20820  0.16968  Biso   1.000  N
  N146     1.0000 0.79180  0.81000  0.16968  Biso   1.000  N
  N147     1.0000 0.19000  0.98180  0.16968  Biso   1.000  N
  N148     1.0000 0.35153  0.87487  0.83635  Biso   1.000  N
  N149     1.0000 0.12513  0.47667  0.83635  Biso   1.000  N
  N150     1.0000 0.52333  0.64847  0.83635  Biso   1.000  N
  N151     1.0000 0.68487  0.54153  0.50301  Biso   1.000  N
  N152     1.0000 0.45847  0.14333  0.50301  Biso   1.000  N
  N153     1.0000 0.85667  0.31513  0.50301  Biso   1.000  N
  N154     1.0000 0.98180  0.79180  0.83032  Biso   1.000  N
  N155     1.0000 0.20820  0.19000  0.83032  Biso   1.000  N
  N156     1.0000 0.81000  0.01820  0.83032  Biso   1.000  N
  N157     1.0000 0.31513  0.45847  0.49699  Biso   1.000  N
  N158     1.0000 0.54153  0.85667  0.49699  Biso   1.000  N
  N159     1.0000 0.14333  0.68487  0.49699  Biso   1.000  N
  N160     1.0000 0.64847  0.12513  0.16365  Biso   1.000  N
  N161     1.0000 0.87487  0.52333  0.16365  Biso   1.000  N
  N162     1.0000 0.47667  0.35153  0.16365  Biso   1.000  N
  N163     1.0000 0.98090  0.16860  0.15678  Biso   1.000  N
  N164     1.0000 0.83140  0.81230  0.15678  Biso   1.000  N
  N165     1.0000 0.18770  0.01910  0.15678  Biso   1.000  N
  N166     1.0000 0.31423  0.83527  0.82345  Biso   1.000  N
  N167     1.0000 0.16473  0.47897  0.82345  Biso   1.000  N
  N168     1.0000 0.52103  0.68577  0.82345  Biso   1.000  N
  N169     1.0000 0.64757  0.50193  0.49011  Biso   1.000  N
  N170     1.0000 0.49807  0.14563  0.49011  Biso   1.000  N
  N171     1.0000 0.85437  0.35243  0.49011  Biso   1.000  N
  N172     1.0000 0.01910  0.83140  0.84322  Biso   1.000  N
  N173     1.0000 0.16860  0.18770  0.84322  Biso   1.000  N
  N174     1.0000 0.81230  0.98090  0.84322  Biso   1.000  N
  N175     1.0000 0.35243  0.49807  0.50989  Biso   1.000  N
  N176     1.0000 0.50193  0.85437  0.50989  Biso   1.000  N
  N177     1.0000 0.14563  0.64757  0.50989  Biso   1.000  N
  N178     1.0000 0.68577  0.16473  0.17655  Biso   1.000  N
  N179     1.0000 0.83527  0.52103  0.17655  Biso   1.000  N
  N180     1.0000 0.47897  0.31423  0.17655  Biso   1.000  N
  N181     1.0000 0.93080  0.15940  0.16194  Biso   1.000  N
  N182     1.0000 0.84060  0.77140  0.16194  Biso   1.000  N
  N183     1.0000 0.22860  0.06920  0.16194  Biso   1.000  N
  N184     1.0000 0.26413  0.82607  0.82861  Biso   1.000  N
  N185     1.0000 0.17393  0.43807  0.82861  Biso   1.000  N
  N186     1.0000 0.56193  0.73587  0.82861  Biso   1.000  N
  N187     1.0000 0.59747  0.49273  0.49527  Biso   1.000  N
  N188     1.0000 0.50727  0.10473  0.49527  Biso   1.000  N
  N189     1.0000 0.89527  0.40253  0.49527  Biso   1.000  N
  N190     1.0000 0.06920  0.84060  0.83806  Biso   1.000  N
  N191     1.0000 0.15940  0.22860  0.83806  Biso   1.000  N
  N192     1.0000 0.77140  0.93080  0.83806  Biso   1.000  N
  N193     1.0000 0.40253  0.50727  0.50473  Biso   1.000  N
  N194     1.0000 0.49273  0.89527  0.50473  Biso   1.000  N
  N195     1.0000 0.10473  0.59747  0.50473  Biso   1.000  N
  N196     1.0000 0.73587  0.17393  0.17139  Biso   1.000  N
  N197     1.0000 0.82607  0.56193  0.17139  Biso   1.000  N
  N198     1.0000 0.43807  0.26413  0.17139  Biso   1.000  N
  N199     1.0000 0.80600  0.74150  0.17846  Biso   1.000  N
  N200     1.0000 0.25850  0.06450  0.17846  Biso   1.000  N
  N201     1.0000 0.93550  0.19400  0.17846  Biso   1.000  N
  N202     1.0000 0.13933  0.40817  0.84513  Biso   1.000  N
  N203     1.0000 0.59183  0.73117  0.84513  Biso   1.000  N
  N204     1.0000 0.26883  0.86067  0.84513  Biso   1.000  N
  N205     1.0000 0.47267  0.07483  0.51179  Biso   1.000  N
  N206     1.0000 0.92517  0.39783  0.51179  Biso   1.000  N
  N207     1.0000 0.60217  0.52733  0.51179  Biso   1.000  N
  N208     1.0000 0.19400  0.25850  0.82154  Biso   1.000  N
  N209     1.0000 0.74150  0.93550  0.82154  Biso   1.000  N
  N210     1.0000 0.06450  0.80600  0.82154  Biso   1.000  N
  N211     1.0000 0.52733  0.92517  0.48821  Biso   1.000  N
  N212     1.0000 0.07483  0.60217  0.48821  Biso   1.000  N
  N213     1.0000 0.39783  0.47267  0.48821  Biso   1.000  N
  N214     1.0000 0.86067  0.59183  0.15487  Biso   1.000  N
  N215     1.0000 0.40817  0.26883  0.15487  Biso   1.000  N
  N216     1.0000 0.73117  0.13933  0.15487  Biso   1.000  N
  N217     1.0000 0.99260  0.73210  0.19865  Biso   1.000  N
  N218     1.0000 0.26790  0.26050  0.19865  Biso   1.000  N
  N219     1.0000 0.73950  0.00740  0.19865  Biso   1.000  N
  N220     1.0000 0.32593  0.39877  0.86532  Biso   1.000  N
  N221     1.0000 0.60123  0.92717  0.86532  Biso   1.000  N
  N222     1.0000 0.07283  0.67407  0.86532  Biso   1.000  N
  N223     1.0000 0.65927  0.06543  0.53198  Biso   1.000  N
  N224     1.0000 0.93457  0.59383  0.53198  Biso   1.000  N
  N225     1.0000 0.40617  0.34073  0.53198  Biso   1.000  N
  N226     1.0000 0.00740  0.26790  0.80135  Biso   1.000  N
  N227     1.0000 0.73210  0.73950  0.80135  Biso   1.000  N
  N228     1.0000 0.26050  0.99260  0.80135  Biso   1.000  N
  N229     1.0000 0.34073  0.93457  0.46802  Biso   1.000  N
  N230     1.0000 0.06543  0.40617  0.46802  Biso   1.000  N
  N231     1.0000 0.59383  0.65927  0.46802  Biso   1.000  N
  N232     1.0000 0.67407  0.60123  0.13468  Biso   1.000  N
  N233     1.0000 0.39877  0.07283  0.13468  Biso   1.000  N
  N234     1.0000 0.92717  0.32593  0.13468  Biso   1.000  N
  N235     1.0000 0.94250  0.71480  0.20755  Biso   1.000  N
  N236     1.0000 0.28520  0.22770  0.20755  Biso   1.000  N
  N237     1.0000 0.77230  0.05750  0.20755  Biso   1.000  N
  N238     1.0000 0.27583  0.38147  0.87422  Biso   1.000  N
  N239     1.0000 0.61853  0.89437  0.87422  Biso   1.000  N
  N240     1.0000 0.10563  0.72417  0.87422  Biso   1.000  N
  N241     1.0000 0.60917  0.04813  0.54088  Biso   1.000  N
  N242     1.0000 0.95187  0.56103  0.54088  Biso   1.000  N
  N243     1.0000 0.43897  0.39083  0.54088  Biso   1.000  N
  N244     1.0000 0.05750  0.28520  0.79245  Biso   1.000  N
  N245     1.0000 0.71480  0.77230  0.79245  Biso   1.000  N
  N246     1.0000 0.22770  0.94250  0.79245  Biso   1.000  N
  N247     1.0000 0.39083  0.95187  0.45912  Biso   1.000  N
  N248     1.0000 0.04813  0.43897  0.45912  Biso   1.000  N
  N249     1.0000 0.56103  0.60917  0.45912  Biso   1.000  N
  N250     1.0000 0.72417  0.61853  0.12578  Biso   1.000  N
  N251     1.0000 0.38147  0.10563  0.12578  Biso   1.000  N
  N252     1.0000 0.89437  0.27583  0.12578  Biso   1.000  N
  N253     1.0000 0.91200  0.72340  0.19426  Biso   1.000  N
  N254     1.0000 0.27660  0.18860  0.19426  Biso   1.000  N
  N255     1.0000 0.81140  0.08800  0.19426  Biso   1.000  N
  N256     1.0000 0.24533  0.39007  0.86093  Biso   1.000  N
  N257     1.0000 0.60993  0.85527  0.86093  Biso   1.000  N
  N258     1.0000 0.14473  0.75467  0.86093  Biso   1.000  N
  N259     1.0000 0.57867  0.05673  0.52759  Biso   1.000  N
  N260     1.0000 0.94327  0.52193  0.52759  Biso   1.000  N
  N261     1.0000 0.47807  0.42133  0.52759  Biso   1.000  N
  N262     1.0000 0.08800  0.27660  0.80574  Biso   1.000  N
  N263     1.0000 0.72340  0.81140  0.80574  Biso   1.000  N
  N264     1.0000 0.18860  0.91200  0.80574  Biso   1.000  N
  N265     1.0000 0.42133  0.94327  0.47241  Biso   1.000  N
  N266     1.0000 0.05673  0.47807  0.47241  Biso   1.000  N
  N267     1.0000 0.52193  0.57867  0.47241  Biso   1.000  N
  N268     1.0000 0.75467  0.60993  0.13907  Biso   1.000  N
  N269     1.0000 0.39007  0.14473  0.13907  Biso   1.000  N
  N270     1.0000 0.85527  0.24533  0.13907  Biso   1.000  N
  N271     1.0000 0.80460  0.05790  0.17593  Biso   1.000  N
  N272     1.0000 0.94210  0.74670  0.17593  Biso   1.000  N
  N273     1.0000 0.25330  0.19540  0.17593  Biso   1.000  N
  N274     1.0000 0.13793  0.72457  0.84260  Biso   1.000  N
  N275     1.0000 0.27543  0.41337  0.84260  Biso   1.000  N
  N276     1.0000 0.58663  0.86207  0.84260  Biso   1.000  N
  N277     1.0000 0.47127  0.39123  0.50926  Biso   1.000  N
  N278     1.0000 0.60877  0.08003  0.50926  Biso   1.000  N
  N279     1.0000 0.91997  0.52873  0.50926  Biso   1.000  N
  N280     1.0000 0.19540  0.94210  0.82407  Biso   1.000  N
  N281     1.0000 0.05790  0.25330  0.82407  Biso   1.000  N
  N282     1.0000 0.74670  0.80460  0.82407  Biso   1.000  N
  N283     1.0000 0.52873  0.60877  0.49074  Biso   1.000  N
  N284     1.0000 0.39123  0.91997  0.49074  Biso   1.000  N
  N285     1.0000 0.08003  0.47127  0.49074  Biso   1.000  N
  N286     1.0000 0.86207  0.27543  0.15740  Biso   1.000  N
  N287     1.0000 0.72457  0.58663  0.15740  Biso   1.000  N
  N288     1.0000 0.41337  0.13793  0.15740  Biso   1.000  N
  N289     1.0000 0.93960  0.46240  0.93427  Biso   1.000  N
  N290     1.0000 0.53760  0.47720  0.93427  Biso   1.000  N
  N291     1.0000 0.52280  0.06040  0.93427  Biso   1.000  N
  N292     1.0000 0.27293  0.12907  0.60094  Biso   1.000  N
  N293     1.0000 0.87093  0.14387  0.60094  Biso   1.000  N
  N294     1.0000 0.85613  0.72707  0.60094  Biso   1.000  N
  N295     1.0000 0.60627  0.79573  0.26760  Biso   1.000  N
  N296     1.0000 0.20427  0.81053  0.26760  Biso   1.000  N
  N297     1.0000 0.18947  0.39373  0.26760  Biso   1.000  N
  N298     1.0000 0.06040  0.53760  0.06573  Biso   1.000  N
  N299     1.0000 0.46240  0.52280  0.06573  Biso   1.000  N
  N300     1.0000 0.47720  0.93960  0.06573  Biso   1.000  N
  N301     1.0000 0.39373  0.20427  0.73240  Biso   1.000  N
  N302     1.0000 0.79573  0.18947  0.73240  Biso   1.000  N
  N303     1.0000 0.81053  0.60627  0.73240  Biso   1.000  N
  N304     1.0000 0.72707  0.87093  0.39906  Biso   1.000  N
  N305     1.0000 0.12907  0.85613  0.39906  Biso   1.000  N
  N306     1.0000 0.14387  0.27293  0.39906  Biso   1.000  N
  N307     1.0000 0.90150  0.45090  0.94988  Biso   1.000  N
  N308     1.0000 0.54910  0.45060  0.94988  Biso   1.000  N
  N309     1.0000 0.54940  0.09850  0.94988  Biso   1.000  N
  N310     1.0000 0.23483  0.11757  0.61655  Biso   1.000  N
  N311     1.0000 0.88243  0.11727  0.61655  Biso   1.000  N
  N312     1.0000 0.88273  0.76517  0.61655  Biso   1.000  N
  N313     1.0000 0.56817  0.78423  0.28321  Biso   1.000  N
  N314     1.0000 0.21577  0.78393  0.28321  Biso   1.000  N
  N315     1.0000 0.21607  0.43183  0.28321  Biso   1.000  N
  N316     1.0000 0.09850  0.54910  0.05012  Biso   1.000  N
  N317     1.0000 0.45090  0.54940  0.05012  Biso   1.000  N
  N318     1.0000 0.45060  0.90150  0.05012  Biso   1.000  N
  N319     1.0000 0.43183  0.21577  0.71679  Biso   1.000  N
  N320     1.0000 0.78423  0.21607  0.71679  Biso   1.000  N
  N321     1.0000 0.78393  0.56817  0.71679  Biso   1.000  N
  N322     1.0000 0.76517  0.88243  0.38345  Biso   1.000  N
  N323     1.0000 0.11757  0.88273  0.38345  Biso   1.000  N
  N324     1.0000 0.11727  0.23483  0.38345  Biso   1.000  N
  N325     1.0000 0.93050  0.48080  0.96550  Biso   1.000  N
  N326     1.0000 0.51920  0.44970  0.96550  Biso   1.000  N
  N327     1.0000 0.55030  0.06950  0.96550  Biso   1.000  N
  N328     1.0000 0.26383  0.14747  0.63217  Biso   1.000  N
  N329     1.0000 0.85253  0.11637  0.63217  Biso   1.000  N
  N330     1.0000 0.88363  0.73617  0.63217  Biso   1.000  N
  N331     1.0000 0.59717  0.81413  0.29883  Biso   1.000  N
  N332     1.0000 0.18587  0.78303  0.29883  Biso   1.000  N
  N333     1.0000 0.21697  0.40283  0.29883  Biso   1.000  N
  N334     1.0000 0.06950  0.51920  0.03450  Biso   1.000  N
  N335     1.0000 0.48080  0.55030  0.03450  Biso   1.000  N
  N336     1.0000 0.44970  0.93050  0.03450  Biso   1.000  N
  N337     1.0000 0.40283  0.18587  0.70117  Biso   1.000  N
  N338     1.0000 0.81413  0.21697  0.70117  Biso   1.000  N
  N339     1.0000 0.78303  0.59717  0.70117  Biso   1.000  N
  N340     1.0000 0.73617  0.85253  0.36783  Biso   1.000  N
  N341     1.0000 0.14747  0.88363  0.36783  Biso   1.000  N
  N342     1.0000 0.11637  0.26383  0.36783  Biso   1.000  N
  N343     1.0000 0.01260  0.48700  0.03916  Biso   1.000  N
  N344     1.0000 0.51300  0.52560  0.03916  Biso   1.000  N
  N345     1.0000 0.47440  0.98740  0.03916  Biso   1.000  N
  N346     1.0000 0.34593  0.15367  0.70583  Biso   1.000  N
  N347     1.0000 0.84633  0.19227  0.70583  Biso   1.000  N
  N348     1.0000 0.80773  0.65407  0.70583  Biso   1.000  N
  N349     1.0000 0.67927  0.82033  0.37249  Biso   1.000  N
  N350     1.0000 0.17967  0.85893  0.37249  Biso   1.000  N
  N351     1.0000 0.14107  0.32073  0.37249  Biso   1.000  N
  N352     1.0000 0.98740  0.51300  0.96084  Biso   1.000  N
  N353     1.0000 0.48700  0.47440  0.96084  Biso   1.000  N
  N354     1.0000 0.52560  0.01260  0.96084  Biso   1.000  N
  N355     1.0000 0.32073  0.17967  0.62751  Biso   1.000  N
  N356     1.0000 0.82033  0.14107  0.62751  Biso   1.000  N
  N357     1.0000 0.85893  0.67927  0.62751  Biso   1.000  N
  N358     1.0000 0.65407  0.84633  0.29417  Biso   1.000  N
  N359     1.0000 0.15367  0.80773  0.29417  Biso   1.000  N
  N360     1.0000 0.19227  0.34593  0.29417  Biso   1.000  N
  N361     1.0000 0.02300  0.34260  0.98911  Biso   1.000  N
  N362     1.0000 0.65740  0.68040  0.98911  Biso   1.000  N
  N363     1.0000 0.31960  0.97700  0.98911  Biso   1.000  N
  N364     1.0000 0.35633  0.00927  0.65578  Biso   1.000  N
  N365     1.0000 0.99073  0.34707  0.65578  Biso   1.000  N
  N366     1.0000 0.65293  0.64367  0.65578  Biso   1.000  N
  N367     1.0000 0.68967  0.67593  0.32244  Biso   1.000  N
  N368     1.0000 0.32407  0.01373  0.32244  Biso   1.000  N
  N369     1.0000 0.98627  0.31033  0.32244  Biso   1.000  N
  N370     1.0000 0.97700  0.65740  0.01089  Biso   1.000  N
  N371     1.0000 0.34260  0.31960  0.01089  Biso   1.000  N
  N372     1.0000 0.68040  0.02300  0.01089  Biso   1.000  N
  N373     1.0000 0.31033  0.32407  0.67756  Biso   1.000  N
  N374     1.0000 0.67593  0.98627  0.67756  Biso   1.000  N
  N375     1.0000 0.01373  0.68967  0.67756  Biso   1.000  N
  N376     1.0000 0.64367  0.99073  0.34422  Biso   1.000  N
  N377     1.0000 0.00927  0.65293  0.34422  Biso   1.000  N
  N378     1.0000 0.34707  0.35633  0.34422  Biso   1.000  N
  N379     1.0000 0.98300  0.34310  0.00127  Biso   1.000  N
  N380     1.0000 0.65690  0.63990  0.00127  Biso   1.000  N
  N381     1.0000 0.36010  0.01700  0.00127  Biso   1.000  N
  N382     1.0000 0.31633  0.00977  0.66794  Biso   1.000  N
  N383     1.0000 0.99023  0.30657  0.66794  Biso   1.000  N
  N384     1.0000 0.69343  0.68367  0.66794  Biso   1.000  N
  N385     1.0000 0.64967  0.67643  0.33460  Biso   1.000  N
  N386     1.0000 0.32357  0.97323  0.33460  Biso   1.000  N
  N387     1.0000 0.02677  0.35033  0.33460  Biso   1.000  N
  N388     1.0000 0.01700  0.65690  0.99873  Biso   1.000  N
  N389     1.0000 0.34310  0.36010  0.99873  Biso   1.000  N
  N390     1.0000 0.63990  0.98300  0.99873  Biso   1.000  N
  N391     1.0000 0.35033  0.32357  0.66540  Biso   1.000  N
  N392     1.0000 0.67643  0.02677  0.66540  Biso   1.000  N
  N393     1.0000 0.97323  0.64967  0.66540  Biso   1.000  N
  N394     1.0000 0.68367  0.99023  0.33206  Biso   1.000  N
  N395     1.0000 0.00977  0.69343  0.33206  Biso   1.000  N
  N396     1.0000 0.30657  0.31633  0.33206  Biso   1.000  N
  N397     1.0000 0.00120  0.39570  0.00614  Biso   1.000  N
  N398     1.0000 0.60430  0.60550  0.00614  Biso   1.000  N
  N399     1.0000 0.39450  0.99880  0.00614  Biso   1.000  N
  N400     1.0000 0.33453  0.06237  0.67281  Biso   1.000  N
  N401     1.0000 0.93763  0.27217  0.67281  Biso   1.000  N
  N402     1.0000 0.72783  0.66547  0.67281  Biso   1.000  N
  N403     1.0000 0.66787  0.72903  0.33947  Biso   1.000  N
  N404     1.0000 0.27097  0.93883  0.33947  Biso   1.000  N
  N405     1.0000 0.06117  0.33213  0.33947  Biso   1.000  N
  N406     1.0000 0.99880  0.60430  0.99386  Biso   1.000  N
  N407     1.0000 0.39570  0.39450  0.99386  Biso   1.000  N
  N408     1.0000 0.60550  0.00120  0.99386  Biso   1.000  N
  N409     1.0000 0.33213  0.27097  0.66053  Biso   1.000  N
  N410     1.0000 0.72903  0.06117  0.66053  Biso   1.000  N
  N411     1.0000 0.93883  0.66787  0.66053  Biso   1.000  N
  N412     1.0000 0.66547  0.93763  0.32719  Biso   1.000  N
  N413     1.0000 0.06237  0.72783  0.32719  Biso   1.000  N
  N414     1.0000 0.27217  0.33453  0.32719  Biso   1.000  N
  N415     1.0000 0.94770  0.57020  0.00268  Biso   1.000  N
  N416     1.0000 0.42980  0.37750  0.00268  Biso   1.000  N
  N417     1.0000 0.62250  0.05230  0.00268  Biso   1.000  N
  N418     1.0000 0.28103  0.23687  0.66935  Biso   1.000  N
  N419     1.0000 0.76313  0.04417  0.66935  Biso   1.000  N
  N420     1.0000 0.95583  0.71897  0.66935  Biso   1.000  N
  N421     1.0000 0.61437  0.90353  0.33601  Biso   1.000  N
  N422     1.0000 0.09647  0.71083  0.33601  Biso   1.000  N
  N423     1.0000 0.28917  0.38563  0.33601  Biso   1.000  N
  N424     1.0000 0.05230  0.42980  0.99732  Biso   1.000  N
  N425     1.0000 0.57020  0.62250  0.99732  Biso   1.000  N
  N426     1.0000 0.37750  0.94770  0.99732  Biso   1.000  N
  N427     1.0000 0.38563  0.09647  0.66399  Biso   1.000  N
  N428     1.0000 0.90353  0.28917  0.66399  Biso   1.000  N
  N429     1.0000 0.71083  0.61437  0.66399  Biso   1.000  N
  N430     1.0000 0.71897  0.76313  0.33065  Biso   1.000  N
  N431     1.0000 0.23687  0.95583  0.33065  Biso   1.000  N
  N432     1.0000 0.04417  0.28103  0.33065  Biso   1.000  N
  C1       1.0000 0.82560  0.12690  0.09360  Biso   1.000  C
  C2       1.0000 0.87310  0.69870  0.09360  Biso   1.000  C
  C3       1.0000 0.30130  0.17440  0.09360  Biso   1.000  C
  C4       1.0000 0.15893  0.79357  0.76027  Biso   1.000  C
  C5       1.0000 0.20643  0.36537  0.76027  Biso   1.000  C
  C6       1.0000 0.63463  0.84107  0.76027  Biso   1.000  C
  C7       1.0000 0.49227  0.46023  0.42693  Biso   1.000  C
  C8       1.0000 0.53977  0.03203  0.42693  Biso   1.000  C
  C9       1.0000 0.96797  0.50773  0.42693  Biso   1.000  C
  C10      1.0000 0.17440  0.87310  0.90640  Biso   1.000  C
  C11      1.0000 0.12690  0.30130  0.90640  Biso   1.000  C
  C12      1.0000 0.69870  0.82560  0.90640  Biso   1.000  C
  C13      1.0000 0.50773  0.53977  0.57307  Biso   1.000  C
  C14      1.0000 0.46023  0.96797  0.57307  Biso   1.000  C
  C15      1.0000 0.03203  0.49227  0.57307  Biso   1.000  C
  C16      1.0000 0.84107  0.20643  0.23973  Biso   1.000  C
  C17      1.0000 0.79357  0.63463  0.23973  Biso   1.000  C
  C18      1.0000 0.36537  0.15893  0.23973  Biso   1.000  C
  C19      1.0000 0.86440  0.22480  0.07120  Biso   1.000  C
  C20      1.0000 0.77520  0.63960  0.07120  Biso   1.000  C
  C21      1.0000 0.36040  0.13560  0.07120  Biso   1.000  C
  C22      1.0000 0.19773  0.89147  0.73787  Biso   1.000  C
  C23      1.0000 0.10853  0.30627  0.73787  Biso   1.000  C
  C24      1.0000 0.69373  0.80227  0.73787  Biso   1.000  C
  C25      1.0000 0.53107  0.55813  0.40453  Biso   1.000  C
  C26      1.0000 0.44187  0.97293  0.40453  Biso   1.000  C
  C27      1.0000 0.02707  0.46893  0.40453  Biso   1.000  C
  C28      1.0000 0.13560  0.77520  0.92880  Biso   1.000  C
  C29      1.0000 0.22480  0.36040  0.92880  Biso   1.000  C
  C30      1.0000 0.63960  0.86440  0.92880  Biso   1.000  C
  C31      1.0000 0.46893  0.44187  0.59547  Biso   1.000  C
  C32      1.0000 0.55813  0.02707  0.59547  Biso   1.000  C
  C33      1.0000 0.97293  0.53107  0.59547  Biso   1.000  C
  C34      1.0000 0.80227  0.10853  0.26213  Biso   1.000  C
  C35      1.0000 0.89147  0.69373  0.26213  Biso   1.000  C
  C36      1.0000 0.30627  0.19773  0.26213  Biso   1.000  C
  H1       1.0000 0.89360  0.23080  0.08190  Biso   1.000  H
  H2       1.0000 0.76920  0.66280  0.08190  Biso   1.000  H
  H3       1.0000 0.33720  0.10640  0.08190  Biso   1.000  H
  H4       1.0000 0.22693  0.89747  0.74857  Biso   1.000  H
  H5       1.0000 0.10253  0.32947  0.74857  Biso   1.000  H
  H6       1.0000 0.67053  0.77307  0.74857  Biso   1.000  H
  H7       1.0000 0.56027  0.56413  0.41523  Biso   1.000  H
  H8       1.0000 0.43587  0.99613  0.41523  Biso   1.000  H
  H9       1.0000 0.00387  0.43973  0.41523  Biso   1.000  H
  H10      1.0000 0.10640  0.76920  0.91810  Biso   1.000  H
  H11      1.0000 0.23080  0.33720  0.91810  Biso   1.000  H
  H12      1.0000 0.66280  0.89360  0.91810  Biso   1.000  H
  H13      1.0000 0.43973  0.43587  0.58477  Biso   1.000  H
  H14      1.0000 0.56413  0.00387  0.58477  Biso   1.000  H
  H15      1.0000 0.99613  0.56027  0.58477  Biso   1.000  H
  H16      1.0000 0.77307  0.10253  0.25143  Biso   1.000  H
  H17      1.0000 0.89747  0.67053  0.25143  Biso   1.000  H
  H18      1.0000 0.32947  0.22693  0.25143  Biso   1.000  H
  H19      1.0000 0.88020  0.22500  0.05700  Biso   1.000  H
  H20      1.0000 0.77500  0.65520  0.05700  Biso   1.000  H
  H21      1.0000 0.34480  0.11980  0.05700  Biso   1.000  H
  H22      1.0000 0.21353  0.89167  0.72367  Biso   1.000  H
  H23      1.0000 0.10833  0.32187  0.72367  Biso   1.000  H
  H24      1.0000 0.67813  0.78647  0.72367  Biso   1.000  H
  H25      1.0000 0.54687  0.55833  0.39033  Biso   1.000  H
  H26      1.0000 0.44167  0.98853  0.39033  Biso   1.000  H
  H27      1.0000 0.01147  0.45313  0.39033  Biso   1.000  H
  H28      1.0000 0.11980  0.77500  0.94300  Biso   1.000  H
  H29      1.0000 0.22500  0.34480  0.94300  Biso   1.000  H
  H30      1.0000 0.65520  0.88020  0.94300  Biso   1.000  H
  H31      1.0000 0.45313  0.44167  0.60967  Biso   1.000  H
  H32      1.0000 0.55833  0.01147  0.60967  Biso   1.000  H
  H33      1.0000 0.98853  0.54687  0.60967  Biso   1.000  H
  H34      1.0000 0.78647  0.10833  0.27633  Biso   1.000  H
  H35      1.0000 0.89167  0.67813  0.27633  Biso   1.000  H
  H36      1.0000 0.32187  0.21353  0.27633  Biso   1.000  H
  C37      1.0000 0.85160  0.27150  0.07240  Biso   1.000  C
  C38      1.0000 0.72850  0.58010  0.07240  Biso   1.000  C
  C39      1.0000 0.41990  0.14840  0.07240  Biso   1.000  C
  C40      1.0000 0.18493  0.93817  0.73907  Biso   1.000  C
  C41      1.0000 0.06183  0.24677  0.73907  Biso   1.000  C
  C42      1.0000 0.75323  0.81507  0.73907  Biso   1.000  C
  C43      1.0000 0.51827  0.60483  0.40573  Biso   1.000  C
  C44      1.0000 0.39517  0.91343  0.40573  Biso   1.000  C
  C45      1.0000 0.08657  0.48173  0.40573  Biso   1.000  C
  C46      1.0000 0.14840  0.72850  0.92760  Biso   1.000  C
  C47      1.0000 0.27150  0.41990  0.92760  Biso   1.000  C
  C48      1.0000 0.58010  0.85160  0.92760  Biso   1.000  C
  C49      1.0000 0.48173  0.39517  0.59427  Biso   1.000  C
  C50      1.0000 0.60483  0.08657  0.59427  Biso   1.000  C
  C51      1.0000 0.91343  0.51827  0.59427  Biso   1.000  C
  C52      1.0000 0.81507  0.06183  0.26093  Biso   1.000  C
  C53      1.0000 0.93817  0.75323  0.26093  Biso   1.000  C
  C54      1.0000 0.24677  0.18493  0.26093  Biso   1.000  C
  H37      1.0000 0.83320  0.26870  0.08630  Biso   1.000  H
  H38      1.0000 0.73130  0.56450  0.08630  Biso   1.000  H
  H39      1.0000 0.43550  0.16680  0.08630  Biso   1.000  H
  H40      1.0000 0.16653  0.93537  0.75297  Biso   1.000  H
  H41      1.0000 0.06463  0.23117  0.75297  Biso   1.000  H
  H42      1.0000 0.76883  0.83347  0.75297  Biso   1.000  H
  H43      1.0000 0.49987  0.60203  0.41963  Biso   1.000  H
  H44      1.0000 0.39797  0.89783  0.41963  Biso   1.000  H
  H45      1.0000 0.10217  0.50013  0.41963  Biso   1.000  H
  H46      1.0000 0.16680  0.73130  0.91370  Biso   1.000  H
  H47      1.0000 0.26870  0.43550  0.91370  Biso   1.000  H
  H48      1.0000 0.56450  0.83320  0.91370  Biso   1.000  H
  H49      1.0000 0.50013  0.39797  0.58037  Biso   1.000  H
  H50      1.0000 0.60203  0.10217  0.58037  Biso   1.000  H
  H51      1.0000 0.89783  0.49987  0.58037  Biso   1.000  H
  H52      1.0000 0.83347  0.06463  0.24703  Biso   1.000  H
  H53      1.0000 0.93537  0.76883  0.24703  Biso   1.000  H
  H54      1.0000 0.23117  0.16653  0.24703  Biso   1.000  H
  H55      1.0000 0.88820  0.30800  0.07230  Biso   1.000  H
  H56      1.0000 0.69200  0.58020  0.07230  Biso   1.000  H
  H57      1.0000 0.41980  0.11180  0.07230  Biso   1.000  H
  H58      1.0000 0.22153  0.97467  0.73897  Biso   1.000  H
  H59      1.0000 0.02533  0.24687  0.73897  Biso   1.000  H
  H60      1.0000 0.75313  0.77847  0.73897  Biso   1.000  H
  H61      1.0000 0.55487  0.64133  0.40563  Biso   1.000  H
  H62      1.0000 0.35867  0.91353  0.40563  Biso   1.000  H
  H63      1.0000 0.08647  0.44513  0.40563  Biso   1.000  H
  H64      1.0000 0.11180  0.69200  0.92770  Biso   1.000  H
  H65      1.0000 0.30800  0.41980  0.92770  Biso   1.000  H
  H66      1.0000 0.58020  0.88820  0.92770  Biso   1.000  H
  H67      1.0000 0.44513  0.35867  0.59437  Biso   1.000  H
  H68      1.0000 0.64133  0.08647  0.59437  Biso   1.000  H
  H69      1.0000 0.91353  0.55487  0.59437  Biso   1.000  H
  H70      1.0000 0.77847  0.02533  0.26103  Biso   1.000  H
  H71      1.0000 0.97467  0.75313  0.26103  Biso   1.000  H
  H72      1.0000 0.24687  0.22153  0.26103  Biso   1.000  H
  C55      1.0000 0.81550  0.27410  0.05610  Biso   1.000  C
  C56      1.0000 0.72590  0.54140  0.05610  Biso   1.000  C
  C57      1.0000 0.45860  0.18450  0.05610  Biso   1.000  C
  C58      1.0000 0.14883  0.94077  0.72277  Biso   1.000  C
  C59      1.0000 0.05923  0.20807  0.72277  Biso   1.000  C
  C60      1.0000 0.79193  0.85117  0.72277  Biso   1.000  C
  C61      1.0000 0.48217  0.60743  0.38943  Biso   1.000  C
  C62      1.0000 0.39257  0.87473  0.38943  Biso   1.000  C
  C63      1.0000 0.12527  0.51783  0.38943  Biso   1.000  C
  C64      1.0000 0.18450  0.72590  0.94390  Biso   1.000  C
  C65      1.0000 0.27410  0.45860  0.94390  Biso   1.000  C
  C66      1.0000 0.54140  0.81550  0.94390  Biso   1.000  C
  C67      1.0000 0.51783  0.39257  0.61057  Biso   1.000  C
  C68      1.0000 0.60743  0.12527  0.61057  Biso   1.000  C
  C69      1.0000 0.87473  0.48217  0.61057  Biso   1.000  C
  C70      1.0000 0.85117  0.05923  0.27723  Biso   1.000  C
  C71      1.0000 0.94077  0.79193  0.27723  Biso   1.000  C
  C72      1.0000 0.20807  0.14883  0.27723  Biso   1.000  C
  H73      1.0000 0.81040  0.30740  0.05880  Biso   1.000  H
  H74      1.0000 0.69260  0.50300  0.05880  Biso   1.000  H
  H75      1.0000 0.49700  0.18960  0.05880  Biso   1.000  H
  H76      1.0000 0.14373  0.97407  0.72547  Biso   1.000  H
  H77      1.0000 0.02593  0.16967  0.72547  Biso   1.000  H
  H78      1.0000 0.83033  0.85627  0.72547  Biso   1.000  H
  H79      1.0000 0.47707  0.64073  0.39213  Biso   1.000  H
  H80      1.0000 0.35927  0.83633  0.39213  Biso   1.000  H
  H81      1.0000 0.16367  0.52293  0.39213  Biso   1.000  H
  H82      1.0000 0.18960  0.69260  0.94120  Biso   1.000  H
  H83      1.0000 0.30740  0.49700  0.94120  Biso   1.000  H
  H84      1.0000 0.50300  0.81040  0.94120  Biso   1.000  H
  H85      1.0000 0.52293  0.35927  0.60787  Biso   1.000  H
  H86      1.0000 0.64073  0.16367  0.60787  Biso   1.000  H
  H87      1.0000 0.83633  0.47707  0.60787  Biso   1.000  H
  H88      1.0000 0.85627  0.02593  0.27453  Biso   1.000  H
  H89      1.0000 0.97407  0.83033  0.27453  Biso   1.000  H
  H90      1.0000 0.16967  0.14373  0.27453  Biso   1.000  H
  H91      1.0000 0.77740  0.23930  0.05680  Biso   1.000  H
  H92      1.0000 0.76070  0.53810  0.05680  Biso   1.000  H
  H93      1.0000 0.46190  0.22260  0.05680  Biso   1.000  H
  H94      1.0000 0.11073  0.90597  0.72347  Biso   1.000  H
  H95      1.0000 0.09403  0.20477  0.72347  Biso   1.000  H
  H96      1.0000 0.79523  0.88927  0.72347  Biso   1.000  H
  H97      1.0000 0.44407  0.57263  0.39013  Biso   1.000  H
  H98      1.0000 0.42737  0.87143  0.39013  Biso   1.000  H
  H99      1.0000 0.12857  0.55593  0.39013  Biso   1.000  H
  H100     1.0000 0.22260  0.76070  0.94320  Biso   1.000  H
  H101     1.0000 0.23930  0.46190  0.94320  Biso   1.000  H
  H102     1.0000 0.53810  0.77740  0.94320  Biso   1.000  H
  H103     1.0000 0.55593  0.42737  0.60987  Biso   1.000  H
  H104     1.0000 0.57263  0.12857  0.60987  Biso   1.000  H
  H105     1.0000 0.87143  0.44407  0.60987  Biso   1.000  H
  H106     1.0000 0.88927  0.09403  0.27653  Biso   1.000  H
  H107     1.0000 0.90597  0.79523  0.27653  Biso   1.000  H
  H108     1.0000 0.20477  0.11073  0.27653  Biso   1.000  H
  C73      1.0000 0.83600  0.33460  0.01822  Biso   1.000  C
  C74      1.0000 0.66540  0.50140  0.01822  Biso   1.000  C
  C75      1.0000 0.49860  0.16400  0.01822  Biso   1.000  C
  C76      1.0000 0.16933  0.00127  0.68489  Biso   1.000  C
  C77      1.0000 0.99873  0.16807  0.68489  Biso   1.000  C
  C78      1.0000 0.83193  0.83067  0.68489  Biso   1.000  C
  C79      1.0000 0.50267  0.66793  0.35155  Biso   1.000  C
  C80      1.0000 0.33207  0.83473  0.35155  Biso   1.000  C
  C81      1.0000 0.16527  0.49733  0.35155  Biso   1.000  C
  C82      1.0000 0.16400  0.66540  0.98178  Biso   1.000  C
  C83      1.0000 0.33460  0.49860  0.98178  Biso   1.000  C
  C84      1.0000 0.50140  0.83600  0.98178  Biso   1.000  C
  C85      1.0000 0.49733  0.33207  0.64845  Biso   1.000  C
  C86      1.0000 0.66793  0.16527  0.64845  Biso   1.000  C
  C87      1.0000 0.83473  0.50267  0.64845  Biso   1.000  C
  C88      1.0000 0.83067  0.99873  0.31511  Biso   1.000  C
  C89      1.0000 0.00127  0.83193  0.31511  Biso   1.000  C
  C90      1.0000 0.16807  0.16933  0.31511  Biso   1.000  C
  C91      1.0000 0.87380  0.09280  0.06810  Biso   1.000  C
  C92      1.0000 0.90720  0.78100  0.06810  Biso   1.000  C
  C93      1.0000 0.21900  0.12620  0.06810  Biso   1.000  C
  C94      1.0000 0.20713  0.75947  0.73477  Biso   1.000  C
  C95      1.0000 0.24053  0.44767  0.73477  Biso   1.000  C
  C96      1.0000 0.55233  0.79287  0.73477  Biso   1.000  C
  C97      1.0000 0.54047  0.42613  0.40143  Biso   1.000  C
  C98      1.0000 0.57387  0.11433  0.40143  Biso   1.000  C
  C99      1.0000 0.88567  0.45953  0.40143  Biso   1.000  C
  C100     1.0000 0.12620  0.90720  0.93190  Biso   1.000  C
  C101     1.0000 0.09280  0.21900  0.93190  Biso   1.000  C
  C102     1.0000 0.78100  0.87380  0.93190  Biso   1.000  C
  C103     1.0000 0.45953  0.57387  0.59857  Biso   1.000  C
  C104     1.0000 0.42613  0.88567  0.59857  Biso   1.000  C
  C105     1.0000 0.11433  0.54047  0.59857  Biso   1.000  C
  C106     1.0000 0.79287  0.24053  0.26523  Biso   1.000  C
  C107     1.0000 0.75947  0.55233  0.26523  Biso   1.000  C
  C108     1.0000 0.44767  0.20713  0.26523  Biso   1.000  C
  H109     1.0000 0.89440  0.07180  0.06960  Biso   1.000  H
  H110     1.0000 0.92820  0.82260  0.06960  Biso   1.000  H
  H111     1.0000 0.17740  0.10560  0.06960  Biso   1.000  H
  H112     1.0000 0.22773  0.73847  0.73627  Biso   1.000  H
  H113     1.0000 0.26153  0.48927  0.73627  Biso   1.000  H
  H114     1.0000 0.51073  0.77227  0.73627  Biso   1.000  H
  H115     1.0000 0.56107  0.40513  0.40293  Biso   1.000  H
  H116     1.0000 0.59487  0.15593  0.40293  Biso   1.000  H
  H117     1.0000 0.84407  0.43893  0.40293  Biso   1.000  H
  H118     1.0000 0.10560  0.92820  0.93040  Biso   1.000  H
  H119     1.0000 0.07180  0.17740  0.93040  Biso   1.000  H
  H120     1.0000 0.82260  0.89440  0.93040  Biso   1.000  H
  H121     1.0000 0.43893  0.59487  0.59707  Biso   1.000  H
  H122     1.0000 0.40513  0.84407  0.59707  Biso   1.000  H
  H123     1.0000 0.15593  0.56107  0.59707  Biso   1.000  H
  H124     1.0000 0.77227  0.26153  0.26373  Biso   1.000  H
  H125     1.0000 0.73847  0.51073  0.26373  Biso   1.000  H
  H126     1.0000 0.48927  0.22773  0.26373  Biso   1.000  H
  H127     1.0000 0.89910  0.13030  0.06180  Biso   1.000  H
  H128     1.0000 0.86970  0.76880  0.06180  Biso   1.000  H
  H129     1.0000 0.23120  0.10090  0.06180  Biso   1.000  H
  H130     1.0000 0.23243  0.79697  0.72847  Biso   1.000  H
  H131     1.0000 0.20303  0.43547  0.72847  Biso   1.000  H
  H132     1.0000 0.56453  0.76757  0.72847  Biso   1.000  H
  H133     1.0000 0.56577  0.46363  0.39513  Biso   1.000  H
  H134     1.0000 0.53637  0.10213  0.39513  Biso   1.000  H
  H135     1.0000 0.89787  0.43423  0.39513  Biso   1.000  H
  H136     1.0000 0.10090  0.86970  0.93820  Biso   1.000  H
  H137     1.0000 0.13030  0.23120  0.93820  Biso   1.000  H
  H138     1.0000 0.76880  0.89910  0.93820  Biso   1.000  H
  H139     1.0000 0.43423  0.53637  0.60487  Biso   1.000  H
  H140     1.0000 0.46363  0.89787  0.60487  Biso   1.000  H
  H141     1.0000 0.10213  0.56577  0.60487  Biso   1.000  H
  H142     1.0000 0.76757  0.20303  0.27153  Biso   1.000  H
  H143     1.0000 0.79697  0.56453  0.27153  Biso   1.000  H
  H144     1.0000 0.43547  0.23243  0.27153  Biso   1.000  H
  H145     1.0000 0.84050  0.07140  0.05890  Biso   1.000  H
  H146     1.0000 0.92860  0.76910  0.05890  Biso   1.000  H
  H147     1.0000 0.23090  0.15950  0.05890  Biso   1.000  H
  H148     1.0000 0.17383  0.73807  0.72557  Biso   1.000  H
  H149     1.0000 0.26193  0.43577  0.72557  Biso   1.000  H
  H150     1.0000 0.56423  0.82617  0.72557  Biso   1.000  H
  H151     1.0000 0.50717  0.40473  0.39223  Biso   1.000  H
  H152     1.0000 0.59527  0.10243  0.39223  Biso   1.000  H
  H153     1.0000 0.89757  0.49283  0.39223  Biso   1.000  H
  H154     1.0000 0.15950  0.92860  0.94110  Biso   1.000  H
  H155     1.0000 0.07140  0.23090  0.94110  Biso   1.000  H
  H156     1.0000 0.76910  0.84050  0.94110  Biso   1.000  H
  H157     1.0000 0.49283  0.59527  0.60777  Biso   1.000  H
  H158     1.0000 0.40473  0.89757  0.60777  Biso   1.000  H
  H159     1.0000 0.10243  0.50717  0.60777  Biso   1.000  H
  H160     1.0000 0.82617  0.26193  0.27443  Biso   1.000  H
  H161     1.0000 0.73807  0.56423  0.27443  Biso   1.000  H
  H162     1.0000 0.43577  0.17383  0.27443  Biso   1.000  H
  C109     1.0000 0.73130  0.28030  0.00780  Biso   1.000  C
  C110     1.0000 0.71970  0.45100  0.00780  Biso   1.000  C
  C111     1.0000 0.54900  0.26870  0.00780  Biso   1.000  C
  C112     1.0000 0.06463  0.94697  0.67447  Biso   1.000  C
  C113     1.0000 0.05303  0.11767  0.67447  Biso   1.000  C
  C114     1.0000 0.88233  0.93537  0.67447  Biso   1.000  C
  C115     1.0000 0.39797  0.61363  0.34113  Biso   1.000  C
  C116     1.0000 0.38637  0.78433  0.34113  Biso   1.000  C
  C117     1.0000 0.21567  0.60203  0.34113  Biso   1.000  C
  C118     1.0000 0.26870  0.71970  0.99220  Biso   1.000  C
  C119     1.0000 0.28030  0.54900  0.99220  Biso   1.000  C
  C120     1.0000 0.45100  0.73130  0.99220  Biso   1.000  C
  C121     1.0000 0.60203  0.38637  0.65887  Biso   1.000  C
  C122     1.0000 0.61363  0.21567  0.65887  Biso   1.000  C
  C123     1.0000 0.78433  0.39797  0.65887  Biso   1.000  C
  C124     1.0000 0.93537  0.05303  0.32553  Biso   1.000  C
  C125     1.0000 0.94697  0.88233  0.32553  Biso   1.000  C
  C126     1.0000 0.11767  0.06463  0.32553  Biso   1.000  C
  H163     1.0000 0.73000  0.24740  0.01490  Biso   1.000  H
  H164     1.0000 0.75260  0.48260  0.01490  Biso   1.000  H
  H165     1.0000 0.51740  0.27000  0.01490  Biso   1.000  H
  H166     1.0000 0.06333  0.91407  0.68157  Biso   1.000  H
  H167     1.0000 0.08593  0.14927  0.68157  Biso   1.000  H
  H168     1.0000 0.85073  0.93667  0.68157  Biso   1.000  H
  H169     1.0000 0.39667  0.58073  0.34823  Biso   1.000  H
  H170     1.0000 0.41927  0.81593  0.34823  Biso   1.000  H
  H171     1.0000 0.18407  0.60333  0.34823  Biso   1.000  H
  H172     1.0000 0.27000  0.75260  0.98510  Biso   1.000  H
  H173     1.0000 0.24740  0.51740  0.98510  Biso   1.000  H
  H174     1.0000 0.48260  0.73000  0.98510  Biso   1.000  H
  H175     1.0000 0.60333  0.41927  0.65177  Biso   1.000  H
  H176     1.0000 0.58073  0.18407  0.65177  Biso   1.000  H
  H177     1.0000 0.81593  0.39667  0.65177  Biso   1.000  H
  H178     1.0000 0.93667  0.08593  0.31843  Biso   1.000  H
  H179     1.0000 0.91407  0.85073  0.31843  Biso   1.000  H
  H180     1.0000 0.14927  0.06333  0.31843  Biso   1.000  H
  H181     1.0000 0.72210  0.27150  0.99280  Biso   1.000  H
  H182     1.0000 0.72850  0.45060  0.99280  Biso   1.000  H
  H183     1.0000 0.54940  0.27790  0.99280  Biso   1.000  H
  H184     1.0000 0.05543  0.93817  0.65947  Biso   1.000  H
  H185     1.0000 0.06183  0.11727  0.65947  Biso   1.000  H
  H186     1.0000 0.88273  0.94457  0.65947  Biso   1.000  H
  H187     1.0000 0.38877  0.60483  0.32613  Biso   1.000  H
  H188     1.0000 0.39517  0.78393  0.32613  Biso   1.000  H
  H189     1.0000 0.21607  0.61123  0.32613  Biso   1.000  H
  H190     1.0000 0.27790  0.72850  0.00720  Biso   1.000  H
  H191     1.0000 0.27150  0.54940  0.00720  Biso   1.000  H
  H192     1.0000 0.45060  0.72210  0.00720  Biso   1.000  H
  H193     1.0000 0.61123  0.39517  0.67387  Biso   1.000  H
  H194     1.0000 0.60483  0.21607  0.67387  Biso   1.000  H
  H195     1.0000 0.78393  0.38877  0.67387  Biso   1.000  H
  H196     1.0000 0.94457  0.06183  0.34053  Biso   1.000  H
  H197     1.0000 0.93817  0.88273  0.34053  Biso   1.000  H
  H198     1.0000 0.11727  0.05543  0.34053  Biso   1.000  H
  H199     1.0000 0.70350  0.28870  0.01440  Biso   1.000  H
  H200     1.0000 0.71130  0.41480  0.01440  Biso   1.000  H
  H201     1.0000 0.58520  0.29650  0.01440  Biso   1.000  H
  H202     1.0000 0.03683  0.95537  0.68107  Biso   1.000  H
  H203     1.0000 0.04463  0.08147  0.68107  Biso   1.000  H
  H204     1.0000 0.91853  0.96317  0.68107  Biso   1.000  H
  H205     1.0000 0.37017  0.62203  0.34773  Biso   1.000  H
  H206     1.0000 0.37797  0.74813  0.34773  Biso   1.000  H
  H207     1.0000 0.25187  0.62983  0.34773  Biso   1.000  H
  H208     1.0000 0.29650  0.71130  0.98560  Biso   1.000  H
  H209     1.0000 0.28870  0.58520  0.98560  Biso   1.000  H
  H210     1.0000 0.41480  0.70350  0.98560  Biso   1.000  H
  H211     1.0000 0.62983  0.37797  0.65227  Biso   1.000  H
  H212     1.0000 0.62203  0.25187  0.65227  Biso   1.000  H
  H213     1.0000 0.74813  0.37017  0.65227  Biso   1.000  H
  H214     1.0000 0.96317  0.04463  0.31893  Biso   1.000  H
  H215     1.0000 0.95537  0.91853  0.31893  Biso   1.000  H
  H216     1.0000 0.08147  0.03683  0.31893  Biso   1.000  H
  C127     1.0000 0.98950  0.22460  0.18350  Biso   1.000  C
  C128     1.0000 0.77540  0.76490  0.18350  Biso   1.000  C
  C129     1.0000 0.23510  0.01050  0.18350  Biso   1.000  C
  C130     1.0000 0.32283  0.89127  0.85017  Biso   1.000  C
  C131     1.0000 0.10873  0.43157  0.85017  Biso   1.000  C
  C132     1.0000 0.56843  0.67717  0.85017  Biso   1.000  C
  C133     1.0000 0.65617  0.55793  0.51683  Biso   1.000  C
  C134     1.0000 0.44207  0.09823  0.51683  Biso   1.000  C
  C135     1.0000 0.90177  0.34383  0.51683  Biso   1.000  C
  C136     1.0000 0.01050  0.77540  0.81650  Biso   1.000  C
  C137     1.0000 0.22460  0.23510  0.81650  Biso   1.000  C
  C138     1.0000 0.76490  0.98950  0.81650  Biso   1.000  C
  C139     1.0000 0.34383  0.44207  0.48317  Biso   1.000  C
  C140     1.0000 0.55793  0.90177  0.48317  Biso   1.000  C
  C141     1.0000 0.09823  0.65617  0.48317  Biso   1.000  C
  C142     1.0000 0.67717  0.10873  0.14983  Biso   1.000  C
  C143     1.0000 0.89127  0.56843  0.14983  Biso   1.000  C
  C144     1.0000 0.43157  0.32283  0.14983  Biso   1.000  C
  C145     1.0000 0.05220  0.33980  0.19370  Biso   1.000  C
  C146     1.0000 0.66020  0.71240  0.19370  Biso   1.000  C
  C147     1.0000 0.28760  0.94780  0.19370  Biso   1.000  C
  C148     1.0000 0.38553  0.00647  0.86037  Biso   1.000  C
  C149     1.0000 0.99353  0.37907  0.86037  Biso   1.000  C
  C150     1.0000 0.62093  0.61447  0.86037  Biso   1.000  C
  C151     1.0000 0.71887  0.67313  0.52703  Biso   1.000  C
  C152     1.0000 0.32687  0.04573  0.52703  Biso   1.000  C
  C153     1.0000 0.95427  0.28113  0.52703  Biso   1.000  C
  C154     1.0000 0.94780  0.66020  0.80630  Biso   1.000  C
  C155     1.0000 0.33980  0.28760  0.80630  Biso   1.000  C
  C156     1.0000 0.71240  0.05220  0.80630  Biso   1.000  C
  C157     1.0000 0.28113  0.32687  0.47297  Biso   1.000  C
  C158     1.0000 0.67313  0.95427  0.47297  Biso   1.000  C
  C159     1.0000 0.04573  0.71887  0.47297  Biso   1.000  C
  C160     1.0000 0.61447  0.99353  0.13963  Biso   1.000  C
  C161     1.0000 0.00647  0.62093  0.13963  Biso   1.000  C
  C162     1.0000 0.37907  0.38553  0.13963  Biso   1.000  C
  H217     1.0000 0.06290  0.36690  0.20560  Biso   1.000  H
  H218     1.0000 0.63310  0.69600  0.20560  Biso   1.000  H
  H219     1.0000 0.30400  0.93710  0.20560  Biso   1.000  H
  H220     1.0000 0.39623  0.03357  0.87227  Biso   1.000  H
  H221     1.0000 0.96643  0.36267  0.87227  Biso   1.000  H
  H222     1.0000 0.63733  0.60377  0.87227  Biso   1.000  H
  H223     1.0000 0.72957  0.70023  0.53893  Biso   1.000  H
  H224     1.0000 0.29977  0.02933  0.53893  Biso   1.000  H
  H225     1.0000 0.97067  0.27043  0.53893  Biso   1.000  H
  H226     1.0000 0.93710  0.63310  0.79440  Biso   1.000  H
  H227     1.0000 0.36690  0.30400  0.79440  Biso   1.000  H
  H228     1.0000 0.69600  0.06290  0.79440  Biso   1.000  H
  H229     1.0000 0.27043  0.29977  0.46107  Biso   1.000  H
  H230     1.0000 0.70023  0.97067  0.46107  Biso   1.000  H
  H231     1.0000 0.02933  0.72957  0.46107  Biso   1.000  H
  H232     1.0000 0.60377  0.96643  0.12773  Biso   1.000  H
  H233     1.0000 0.03357  0.63733  0.12773  Biso   1.000  H
  H234     1.0000 0.36267  0.39623  0.12773  Biso   1.000  H
  H235     1.0000 0.08830  0.34610  0.18720  Biso   1.000  H
  H236     1.0000 0.65390  0.74220  0.18720  Biso   1.000  H
  H237     1.0000 0.25780  0.91170  0.18720  Biso   1.000  H
  H238     1.0000 0.42163  0.01277  0.85387  Biso   1.000  H
  H239     1.0000 0.98723  0.40887  0.85387  Biso   1.000  H
  H240     1.0000 0.59113  0.57837  0.85387  Biso   1.000  H
  H241     1.0000 0.75497  0.67943  0.52053  Biso   1.000  H
  H242     1.0000 0.32057  0.07553  0.52053  Biso   1.000  H
  H243     1.0000 0.92447  0.24503  0.52053  Biso   1.000  H
  H244     1.0000 0.91170  0.65390  0.81280  Biso   1.000  H
  H245     1.0000 0.34610  0.25780  0.81280  Biso   1.000  H
  H246     1.0000 0.74220  0.08830  0.81280  Biso   1.000  H
  H247     1.0000 0.24503  0.32057  0.47947  Biso   1.000  H
  H248     1.0000 0.67943  0.92447  0.47947  Biso   1.000  H
  H249     1.0000 0.07553  0.75497  0.47947  Biso   1.000  H
  H250     1.0000 0.57837  0.98723  0.14613  Biso   1.000  H
  H251     1.0000 0.01277  0.59113  0.14613  Biso   1.000  H
  H252     1.0000 0.40887  0.42163  0.14613  Biso   1.000  H
  C163     1.0000 0.02310  0.35630  0.17780  Biso   1.000  C
  C164     1.0000 0.64370  0.66680  0.17780  Biso   1.000  C
  C165     1.0000 0.33320  0.97690  0.17780  Biso   1.000  C
  C166     1.0000 0.35643  0.02297  0.84447  Biso   1.000  C
  C167     1.0000 0.97703  0.33347  0.84447  Biso   1.000  C
  C168     1.0000 0.66653  0.64357  0.84447  Biso   1.000  C
  C169     1.0000 0.68977  0.68963  0.51113  Biso   1.000  C
  C170     1.0000 0.31037  0.00013  0.51113  Biso   1.000  C
  C171     1.0000 0.99987  0.31023  0.51113  Biso   1.000  C
  C172     1.0000 0.97690  0.64370  0.82220  Biso   1.000  C
  C173     1.0000 0.35630  0.33320  0.82220  Biso   1.000  C
  C174     1.0000 0.66680  0.02310  0.82220  Biso   1.000  C
  C175     1.0000 0.31023  0.31037  0.48887  Biso   1.000  C
  C176     1.0000 0.68963  0.99987  0.48887  Biso   1.000  C
  C177     1.0000 0.00013  0.68977  0.48887  Biso   1.000  C
  C178     1.0000 0.64357  0.97703  0.15553  Biso   1.000  C
  C179     1.0000 0.02297  0.66653  0.15553  Biso   1.000  C
  C180     1.0000 0.33347  0.35643  0.15553  Biso   1.000  C
  H253     1.0000 0.00710  0.32720  0.16640  Biso   1.000  H
  H254     1.0000 0.67280  0.67990  0.16640  Biso   1.000  H
  H255     1.0000 0.32010  0.99290  0.16640  Biso   1.000  H
  H256     1.0000 0.34043  0.99387  0.83307  Biso   1.000  H
  H257     1.0000 0.00613  0.34657  0.83307  Biso   1.000  H
  H258     1.0000 0.65343  0.65957  0.83307  Biso   1.000  H
  H259     1.0000 0.67377  0.66053  0.49973  Biso   1.000  H
  H260     1.0000 0.33947  0.01323  0.49973  Biso   1.000  H
  H261     1.0000 0.98677  0.32623  0.49973  Biso   1.000  H
  H262     1.0000 0.99290  0.67280  0.83360  Biso   1.000  H
  H263     1.0000 0.32720  0.32010  0.83360  Biso   1.000  H
  H264     1.0000 0.67990  0.00710  0.83360  Biso   1.000  H
  H265     1.0000 0.32623  0.33947  0.50027  Biso   1.000  H
  H266     1.0000 0.66053  0.98677  0.50027  Biso   1.000  H
  H267     1.0000 0.01323  0.67377  0.50027  Biso   1.000  H
  H268     1.0000 0.65957  0.00613  0.16693  Biso   1.000  H
  H269     1.0000 0.99387  0.65343  0.16693  Biso   1.000  H
  H270     1.0000 0.34657  0.34043  0.16693  Biso   1.000  H
  H271     1.0000 0.05080  0.39330  0.17130  Biso   1.000  H
  H272     1.0000 0.60670  0.65750  0.17130  Biso   1.000  H
  H273     1.0000 0.34250  0.94920  0.17130  Biso   1.000  H
  H274     1.0000 0.38413  0.05997  0.83797  Biso   1.000  H
  H275     1.0000 0.94003  0.32417  0.83797  Biso   1.000  H
  H276     1.0000 0.67583  0.61587  0.83797  Biso   1.000  H
  H277     1.0000 0.71747  0.72663  0.50463  Biso   1.000  H
  H278     1.0000 0.27337  0.99083  0.50463  Biso   1.000  H
  H279     1.0000 0.00917  0.28253  0.50463  Biso   1.000  H
  H280     1.0000 0.94920  0.60670  0.82870  Biso   1.000  H
  H281     1.0000 0.39330  0.34250  0.82870  Biso   1.000  H
  H282     1.0000 0.65750  0.05080  0.82870  Biso   1.000  H
  H283     1.0000 0.28253  0.27337  0.49537  Biso   1.000  H
  H284     1.0000 0.72663  0.00917  0.49537  Biso   1.000  H
  H285     1.0000 0.99083  0.71747  0.49537  Biso   1.000  H
  H286     1.0000 0.61587  0.94003  0.16203  Biso   1.000  H
  H287     1.0000 0.05997  0.67583  0.16203  Biso   1.000  H
  H288     1.0000 0.32417  0.38413  0.16203  Biso   1.000  H
  C181     1.0000 0.97320  0.36160  0.18890  Biso   1.000  C
  C182     1.0000 0.63840  0.61160  0.18890  Biso   1.000  C
  C183     1.0000 0.38840  0.02680  0.18890  Biso   1.000  C
  C184     1.0000 0.30653  0.02827  0.85557  Biso   1.000  C
  C185     1.0000 0.97173  0.27827  0.85557  Biso   1.000  C
  C186     1.0000 0.72173  0.69347  0.85557  Biso   1.000  C
  C187     1.0000 0.63987  0.69493  0.52223  Biso   1.000  C
  C188     1.0000 0.30507  0.94493  0.52223  Biso   1.000  C
  C189     1.0000 0.05507  0.36013  0.52223  Biso   1.000  C
  C190     1.0000 0.02680  0.63840  0.81110  Biso   1.000  C
  C191     1.0000 0.36160  0.38840  0.81110  Biso   1.000  C
  C192     1.0000 0.61160  0.97320  0.81110  Biso   1.000  C
  C193     1.0000 0.36013  0.30507  0.47777  Biso   1.000  C
  C194     1.0000 0.69493  0.05507  0.47777  Biso   1.000  C
  C195     1.0000 0.94493  0.63987  0.47777  Biso   1.000  C
  C196     1.0000 0.69347  0.97173  0.14443  Biso   1.000  C
  C197     1.0000 0.02827  0.72173  0.14443  Biso   1.000  C
  C198     1.0000 0.27827  0.30653  0.14443  Biso   1.000  C
  H289     1.0000 0.94620  0.32430  0.19530  Biso   1.000  H
  H290     1.0000 0.67570  0.62190  0.19530  Biso   1.000  H
  H291     1.0000 0.37810  0.05380  0.19530  Biso   1.000  H
  H292     1.0000 0.27953  0.99097  0.86197  Biso   1.000  H
  H293     1.0000 0.00903  0.28857  0.86197  Biso   1.000  H
  H294     1.0000 0.71143  0.72047  0.86197  Biso   1.000  H
  H295     1.0000 0.61287  0.65763  0.52863  Biso   1.000  H
  H296     1.0000 0.34237  0.95523  0.52863  Biso   1.000  H
  H297     1.0000 0.04477  0.38713  0.52863  Biso   1.000  H
  H298     1.0000 0.05380  0.67570  0.80470  Biso   1.000  H
  H299     1.0000 0.32430  0.37810  0.80470  Biso   1.000  H
  H300     1.0000 0.62190  0.94620  0.80470  Biso   1.000  H
  H301     1.0000 0.38713  0.34237  0.47137  Biso   1.000  H
  H302     1.0000 0.65763  0.04477  0.47137  Biso   1.000  H
  H303     1.0000 0.95523  0.61287  0.47137  Biso   1.000  H
  H304     1.0000 0.72047  0.00903  0.13803  Biso   1.000  H
  H305     1.0000 0.99097  0.71143  0.13803  Biso   1.000  H
  H306     1.0000 0.28857  0.27953  0.13803  Biso   1.000  H
  H307     1.0000 0.98980  0.38990  0.20050  Biso   1.000  H
  H308     1.0000 0.61010  0.59990  0.20050  Biso   1.000  H
  H309     1.0000 0.40010  0.01020  0.20050  Biso   1.000  H
  H310     1.0000 0.32313  0.05657  0.86717  Biso   1.000  H
  H311     1.0000 0.94343  0.26657  0.86717  Biso   1.000  H
  H312     1.0000 0.73343  0.67687  0.86717  Biso   1.000  H
  H313     1.0000 0.65647  0.72323  0.53383  Biso   1.000  H
  H314     1.0000 0.27677  0.93323  0.53383  Biso   1.000  H
  H315     1.0000 0.06677  0.34353  0.53383  Biso   1.000  H
  H316     1.0000 0.01020  0.61010  0.79950  Biso   1.000  H
  H317     1.0000 0.38990  0.40010  0.79950  Biso   1.000  H
  H318     1.0000 0.59990  0.98980  0.79950  Biso   1.000  H
  H319     1.0000 0.34353  0.27677  0.46617  Biso   1.000  H
  H320     1.0000 0.72323  0.06677  0.46617  Biso   1.000  H
  H321     1.0000 0.93323  0.65647  0.46617  Biso   1.000  H
  H322     1.0000 0.67687  0.94343  0.13283  Biso   1.000  H
  H323     1.0000 0.05657  0.73343  0.13283  Biso   1.000  H
  H324     1.0000 0.26657  0.32313  0.13283  Biso   1.000  H
  C199     1.0000 0.99300  0.75240  0.17970  Biso   1.000  C
  C200     1.0000 0.24760  0.24060  0.17970  Biso   1.000  C
  C201     1.0000 0.75940  0.00700  0.17970  Biso   1.000  C
  C202     1.0000 0.32633  0.41907  0.84637  Biso   1.000  C
  C203     1.0000 0.58093  0.90727  0.84637  Biso   1.000  C
  C204     1.0000 0.09273  0.67367  0.84637  Biso   1.000  C
  C205     1.0000 0.65967  0.08573  0.51303  Biso   1.000  C
  C206     1.0000 0.91427  0.57393  0.51303  Biso   1.000  C
  C207     1.0000 0.42607  0.34033  0.51303  Biso   1.000  C
  C208     1.0000 0.00700  0.24760  0.82030  Biso   1.000  C
  C209     1.0000 0.75240  0.75940  0.82030  Biso   1.000  C
  C210     1.0000 0.24060  0.99300  0.82030  Biso   1.000  C
  C211     1.0000 0.34033  0.91427  0.48697  Biso   1.000  C
  C212     1.0000 0.08573  0.42607  0.48697  Biso   1.000  C
  C213     1.0000 0.57393  0.65967  0.48697  Biso   1.000  C
  C214     1.0000 0.67367  0.58093  0.15363  Biso   1.000  C
  C215     1.0000 0.41907  0.09273  0.15363  Biso   1.000  C
  C216     1.0000 0.90727  0.32633  0.15363  Biso   1.000  C
  C217     1.0000 0.07680  0.22340  0.16970  Biso   1.000  C
  C218     1.0000 0.77660  0.85340  0.16970  Biso   1.000  C
  C219     1.0000 0.14660  0.92320  0.16970  Biso   1.000  C
  C220     1.0000 0.41013  0.89007  0.83637  Biso   1.000  C
  C221     1.0000 0.10993  0.52007  0.83637  Biso   1.000  C
  C222     1.0000 0.47993  0.58987  0.83637  Biso   1.000  C
  C223     1.0000 0.74347  0.55673  0.50303  Biso   1.000  C
  C224     1.0000 0.44327  0.18673  0.50303  Biso   1.000  C
  C225     1.0000 0.81327  0.25653  0.50303  Biso   1.000  C
  C226     1.0000 0.92320  0.77660  0.83030  Biso   1.000  C
  C227     1.0000 0.22340  0.14660  0.83030  Biso   1.000  C
  C228     1.0000 0.85340  0.07680  0.83030  Biso   1.000  C
  C229     1.0000 0.25653  0.44327  0.49697  Biso   1.000  C
  C230     1.0000 0.55673  0.81327  0.49697  Biso   1.000  C
  C231     1.0000 0.18673  0.74347  0.49697  Biso   1.000  C
  C232     1.0000 0.58987  0.10993  0.16363  Biso   1.000  C
  C233     1.0000 0.89007  0.47993  0.16363  Biso   1.000  C
  C234     1.0000 0.52007  0.41013  0.16363  Biso   1.000  C
  H325     1.0000 0.08420  0.20470  0.15780  Biso   1.000  H
  H326     1.0000 0.79530  0.87950  0.15780  Biso   1.000  H
  H327     1.0000 0.12050  0.91580  0.15780  Biso   1.000  H
  H328     1.0000 0.41753  0.87137  0.82447  Biso   1.000  H
  H329     1.0000 0.12863  0.54617  0.82447  Biso   1.000  H
  H330     1.0000 0.45383  0.58247  0.82447  Biso   1.000  H
  H331     1.0000 0.75087  0.53803  0.49113  Biso   1.000  H
  H332     1.0000 0.46197  0.21283  0.49113  Biso   1.000  H
  H333     1.0000 0.78717  0.24913  0.49113  Biso   1.000  H
  H334     1.0000 0.91580  0.79530  0.84220  Biso   1.000  H
  H335     1.0000 0.20470  0.12050  0.84220  Biso   1.000  H
  H336     1.0000 0.87950  0.08420  0.84220  Biso   1.000  H
  H337     1.0000 0.24913  0.46197  0.50887  Biso   1.000  H
  H338     1.0000 0.53803  0.78717  0.50887  Biso   1.000  H
  H339     1.0000 0.21283  0.75087  0.50887  Biso   1.000  H
  H340     1.0000 0.58247  0.12863  0.17553  Biso   1.000  H
  H341     1.0000 0.87137  0.45383  0.17553  Biso   1.000  H
  H342     1.0000 0.54617  0.41753  0.17553  Biso   1.000  H
  H343     1.0000 0.08570  0.21100  0.18310  Biso   1.000  H
  H344     1.0000 0.78900  0.87470  0.18310  Biso   1.000  H
  H345     1.0000 0.12530  0.91430  0.18310  Biso   1.000  H
  H346     1.0000 0.41903  0.87767  0.84977  Biso   1.000  H
  H347     1.0000 0.12233  0.54137  0.84977  Biso   1.000  H
  H348     1.0000 0.45863  0.58097  0.84977  Biso   1.000  H
  H349     1.0000 0.75237  0.54433  0.51643  Biso   1.000  H
  H350     1.0000 0.45567  0.20803  0.51643  Biso   1.000  H
  H351     1.0000 0.79197  0.24763  0.51643  Biso   1.000  H
  H352     1.0000 0.91430  0.78900  0.81690  Biso   1.000  H
  H353     1.0000 0.21100  0.12530  0.81690  Biso   1.000  H
  H354     1.0000 0.87470  0.08570  0.81690  Biso   1.000  H
  H355     1.0000 0.24763  0.45567  0.48357  Biso   1.000  H
  H356     1.0000 0.54433  0.79197  0.48357  Biso   1.000  H
  H357     1.0000 0.20803  0.75237  0.48357  Biso   1.000  H
  H358     1.0000 0.58097  0.12233  0.15023  Biso   1.000  H
  H359     1.0000 0.87767  0.45863  0.15023  Biso   1.000  H
  H360     1.0000 0.54137  0.41903  0.15023  Biso   1.000  H
  H361     1.0000 0.10070  0.26490  0.16840  Biso   1.000  H
  H362     1.0000 0.73510  0.83580  0.16840  Biso   1.000  H
  H363     1.0000 0.16420  0.89930  0.16840  Biso   1.000  H
  H364     1.0000 0.43403  0.93157  0.83507  Biso   1.000  H
  H365     1.0000 0.06843  0.50247  0.83507  Biso   1.000  H
  H366     1.0000 0.49753  0.56597  0.83507  Biso   1.000  H
  H367     1.0000 0.76737  0.59823  0.50173  Biso   1.000  H
  H368     1.0000 0.40177  0.16913  0.50173  Biso   1.000  H
  H369     1.0000 0.83087  0.23263  0.50173  Biso   1.000  H
  H370     1.0000 0.89930  0.73510  0.83160  Biso   1.000  H
  H371     1.0000 0.26490  0.16420  0.83160  Biso   1.000  H
  H372     1.0000 0.83580  0.10070  0.83160  Biso   1.000  H
  H373     1.0000 0.23263  0.40177  0.49827  Biso   1.000  H
  H374     1.0000 0.59823  0.83087  0.49827  Biso   1.000  H
  H375     1.0000 0.16913  0.76737  0.49827  Biso   1.000  H
  H376     1.0000 0.56597  0.06843  0.16493  Biso   1.000  H
  H377     1.0000 0.93157  0.49753  0.16493  Biso   1.000  H
  H378     1.0000 0.50247  0.43403  0.16493  Biso   1.000  H
  C235     1.0000 0.03820  0.72870  0.20990  Biso   1.000  C
  C236     1.0000 0.27130  0.30950  0.20990  Biso   1.000  C
  C237     1.0000 0.69050  0.96180  0.20990  Biso   1.000  C
  C238     1.0000 0.37153  0.39537  0.87657  Biso   1.000  C
  C239     1.0000 0.60463  0.97617  0.87657  Biso   1.000  C
  C240     1.0000 0.02383  0.62847  0.87657  Biso   1.000  C
  C241     1.0000 0.70487  0.06203  0.54323  Biso   1.000  C
  C242     1.0000 0.93797  0.64283  0.54323  Biso   1.000  C
  C243     1.0000 0.35717  0.29513  0.54323  Biso   1.000  C
  C244     1.0000 0.96180  0.27130  0.79010  Biso   1.000  C
  C245     1.0000 0.72870  0.69050  0.79010  Biso   1.000  C
  C246     1.0000 0.30950  0.03820  0.79010  Biso   1.000  C
  C247     1.0000 0.29513  0.93797  0.45677  Biso   1.000  C
  C248     1.0000 0.06203  0.35717  0.45677  Biso   1.000  C
  C249     1.0000 0.64283  0.70487  0.45677  Biso   1.000  C
  C250     1.0000 0.62847  0.60463  0.12343  Biso   1.000  C
  C251     1.0000 0.39537  0.02383  0.12343  Biso   1.000  C
  C252     1.0000 0.97617  0.37153  0.12343  Biso   1.000  C
  H379     1.0000 0.02410  0.71040  0.22370  Biso   1.000  H
  H380     1.0000 0.28960  0.31370  0.22370  Biso   1.000  H
  H381     1.0000 0.68630  0.97590  0.22370  Biso   1.000  H
  H382     1.0000 0.35743  0.37707  0.89037  Biso   1.000  H
  H383     1.0000 0.62293  0.98037  0.89037  Biso   1.000  H
  H384     1.0000 0.01963  0.64257  0.89037  Biso   1.000  H
  H385     1.0000 0.69077  0.04373  0.55703  Biso   1.000  H
  H386     1.0000 0.95627  0.64703  0.55703  Biso   1.000  H
  H387     1.0000 0.35297  0.30923  0.55703  Biso   1.000  H
  H388     1.0000 0.97590  0.28960  0.77630  Biso   1.000  H
  H389     1.0000 0.71040  0.68630  0.77630  Biso   1.000  H
  H390     1.0000 0.31370  0.02410  0.77630  Biso   1.000  H
  H391     1.0000 0.30923  0.95627  0.44297  Biso   1.000  H
  H392     1.0000 0.04373  0.35297  0.44297  Biso   1.000  H
  H393     1.0000 0.64703  0.69077  0.44297  Biso   1.000  H
  H394     1.0000 0.64257  0.62293  0.10963  Biso   1.000  H
  H395     1.0000 0.37707  0.01963  0.10963  Biso   1.000  H
  H396     1.0000 0.98037  0.35743  0.10963  Biso   1.000  H
  H397     1.0000 0.07070  0.76720  0.21200  Biso   1.000  H
  H398     1.0000 0.23280  0.30350  0.21200  Biso   1.000  H
  H399     1.0000 0.69650  0.92930  0.21200  Biso   1.000  H
  H400     1.0000 0.40403  0.43387  0.87867  Biso   1.000  H
  H401     1.0000 0.56613  0.97017  0.87867  Biso   1.000  H
  H402     1.0000 0.02983  0.59597  0.87867  Biso   1.000  H
  H403     1.0000 0.73737  0.10053  0.54533  Biso   1.000  H
  H404     1.0000 0.89947  0.63683  0.54533  Biso   1.000  H
  H405     1.0000 0.36317  0.26263  0.54533  Biso   1.000  H
  H406     1.0000 0.92930  0.23280  0.78800  Biso   1.000  H
  H407     1.0000 0.76720  0.69650  0.78800  Biso   1.000  H
  H408     1.0000 0.30350  0.07070  0.78800  Biso   1.000  H
  H409     1.0000 0.26263  0.89947  0.45467  Biso   1.000  H
  H410     1.0000 0.10053  0.36317  0.45467  Biso   1.000  H
  H411     1.0000 0.63683  0.73737  0.45467  Biso   1.000  H
  H412     1.0000 0.59597  0.56613  0.12133  Biso   1.000  H
  H413     1.0000 0.43387  0.02983  0.12133  Biso   1.000  H
  H414     1.0000 0.97017  0.40403  0.12133  Biso   1.000  H
  H415     1.0000 0.05030  0.70600  0.20150  Biso   1.000  H
  H416     1.0000 0.29400  0.34430  0.20150  Biso   1.000  H
  H417     1.0000 0.65570  0.94970  0.20150  Biso   1.000  H
  H418     1.0000 0.38363  0.37267  0.86817  Biso   1.000  H
  H419     1.0000 0.62733  0.01097  0.86817  Biso   1.000  H
  H420     1.0000 0.98903  0.61637  0.86817  Biso   1.000  H
  H421     1.0000 0.71697  0.03933  0.53483  Biso   1.000  H
  H422     1.0000 0.96067  0.67763  0.53483  Biso   1.000  H
  H423     1.0000 0.32237  0.28303  0.53483  Biso   1.000  H
  H424     1.0000 0.94970  0.29400  0.79850  Biso   1.000  H
  H425     1.0000 0.70600  0.65570  0.79850  Biso   1.000  H
  H426     1.0000 0.34430  0.05030  0.79850  Biso   1.000  H
  H427     1.0000 0.28303  0.96067  0.46517  Biso   1.000  H
  H428     1.0000 0.03933  0.32237  0.46517  Biso   1.000  H
  H429     1.0000 0.67763  0.71697  0.46517  Biso   1.000  H
  H430     1.0000 0.61637  0.62733  0.13183  Biso   1.000  H
  H431     1.0000 0.37267  0.98903  0.13183  Biso   1.000  H
  H432     1.0000 0.01097  0.38363  0.13183  Biso   1.000  H
  C253     1.0000 0.99000  0.49820  0.94120  Biso   1.000  C
  C254     1.0000 0.50180  0.49180  0.94120  Biso   1.000  C
  C255     1.0000 0.50820  0.01000  0.94120  Biso   1.000  C
  C256     1.0000 0.32333  0.16487  0.60787  Biso   1.000  C
  C257     1.0000 0.83513  0.15847  0.60787  Biso   1.000  C
  C258     1.0000 0.84153  0.67667  0.60787  Biso   1.000  C
  C259     1.0000 0.65667  0.83153  0.27453  Biso   1.000  C
  C260     1.0000 0.16847  0.82513  0.27453  Biso   1.000  C
  C261     1.0000 0.17487  0.34333  0.27453  Biso   1.000  C
  C262     1.0000 0.01000  0.50180  0.05880  Biso   1.000  C
  C263     1.0000 0.49820  0.50820  0.05880  Biso   1.000  C
  C264     1.0000 0.49180  0.99000  0.05880  Biso   1.000  C
  C265     1.0000 0.34333  0.16847  0.72547  Biso   1.000  C
  C266     1.0000 0.83153  0.17487  0.72547  Biso   1.000  C
  C267     1.0000 0.82513  0.65667  0.72547  Biso   1.000  C
  C268     1.0000 0.67667  0.83513  0.39213  Biso   1.000  C
  C269     1.0000 0.16487  0.84153  0.39213  Biso   1.000  C
  C270     1.0000 0.15847  0.32333  0.39213  Biso   1.000  C
  C271     1.0000 0.06330  0.47130  0.92240  Biso   1.000  C
  C272     1.0000 0.52870  0.59200  0.92240  Biso   1.000  C
  C273     1.0000 0.40800  0.93670  0.92240  Biso   1.000  C
  C274     1.0000 0.39663  0.13797  0.58907  Biso   1.000  C
  C275     1.0000 0.86203  0.25867  0.58907  Biso   1.000  C
  C276     1.0000 0.74133  0.60337  0.58907  Biso   1.000  C
  C277     1.0000 0.72997  0.80463  0.25573  Biso   1.000  C
  C278     1.0000 0.19537  0.92533  0.25573  Biso   1.000  C
  C279     1.0000 0.07467  0.27003  0.25573  Biso   1.000  C
  C280     1.0000 0.93670  0.52870  0.07760  Biso   1.000  C
  C281     1.0000 0.47130  0.40800  0.07760  Biso   1.000  C
  C282     1.0000 0.59200  0.06330  0.07760  Biso   1.000  C
  C283     1.0000 0.27003  0.19537  0.74427  Biso   1.000  C
  C284     1.0000 0.80463  0.07467  0.74427  Biso   1.000  C
  C285     1.0000 0.92533  0.72997  0.74427  Biso   1.000  C
  C286     1.0000 0.60337  0.86203  0.41093  Biso   1.000  C
  C287     1.0000 0.13797  0.74133  0.41093  Biso   1.000  C
  C288     1.0000 0.25867  0.39663  0.41093  Biso   1.000  C
  H433     1.0000 0.10030  0.48670  0.91500  Biso   1.000  H
  H434     1.0000 0.51330  0.61360  0.91500  Biso   1.000  H
  H435     1.0000 0.38640  0.89970  0.91500  Biso   1.000  H
  H436     1.0000 0.43363  0.15337  0.58167  Biso   1.000  H
  H437     1.0000 0.84663  0.28027  0.58167  Biso   1.000  H
  H438     1.0000 0.71973  0.56637  0.58167  Biso   1.000  H
  H439     1.0000 0.76697  0.82003  0.24833  Biso   1.000  H
  H440     1.0000 0.17997  0.94693  0.24833  Biso   1.000  H
  H441     1.0000 0.05307  0.23303  0.24833  Biso   1.000  H
  H442     1.0000 0.89970  0.51330  0.08500  Biso   1.000  H
  H443     1.0000 0.48670  0.38640  0.08500  Biso   1.000  H
  H444     1.0000 0.61360  0.10030  0.08500  Biso   1.000  H
  H445     1.0000 0.23303  0.17997  0.75167  Biso   1.000  H
  H446     1.0000 0.82003  0.05307  0.75167  Biso   1.000  H
  H447     1.0000 0.94693  0.76697  0.75167  Biso   1.000  H
  H448     1.0000 0.56637  0.84663  0.41833  Biso   1.000  H
  H449     1.0000 0.15337  0.71973  0.41833  Biso   1.000  H
  H450     1.0000 0.28027  0.43363  0.41833  Biso   1.000  H
  H451     1.0000 0.03370  0.44640  0.91210  Biso   1.000  H
  H452     1.0000 0.55360  0.58730  0.91210  Biso   1.000  H
  H453     1.0000 0.41270  0.96630  0.91210  Biso   1.000  H
  H454     1.0000 0.36703  0.11307  0.57877  Biso   1.000  H
  H455     1.0000 0.88693  0.25397  0.57877  Biso   1.000  H
  H456     1.0000 0.74603  0.63297  0.57877  Biso   1.000  H
  H457     1.0000 0.70037  0.77973  0.24543  Biso   1.000  H
  H458     1.0000 0.22027  0.92063  0.24543  Biso   1.000  H
  H459     1.0000 0.07937  0.29963  0.24543  Biso   1.000  H
  H460     1.0000 0.96630  0.55360  0.08790  Biso   1.000  H
  H461     1.0000 0.44640  0.41270  0.08790  Biso   1.000  H
  H462     1.0000 0.58730  0.03370  0.08790  Biso   1.000  H
  H463     1.0000 0.29963  0.22027  0.75457  Biso   1.000  H
  H464     1.0000 0.77973  0.07937  0.75457  Biso   1.000  H
  H465     1.0000 0.92063  0.70037  0.75457  Biso   1.000  H
  H466     1.0000 0.63297  0.88693  0.42123  Biso   1.000  H
  H467     1.0000 0.11307  0.74603  0.42123  Biso   1.000  H
  H468     1.0000 0.25397  0.36703  0.42123  Biso   1.000  H
  C289     1.0000 0.06370  0.43030  0.93970  Biso   1.000  C
  C290     1.0000 0.56970  0.63340  0.93970  Biso   1.000  C
  C291     1.0000 0.36660  0.93630  0.93970  Biso   1.000  C
  C292     1.0000 0.39703  0.09697  0.60637  Biso   1.000  C
  C293     1.0000 0.90303  0.30007  0.60637  Biso   1.000  C
  C294     1.0000 0.69993  0.60297  0.60637  Biso   1.000  C
  C295     1.0000 0.73037  0.76363  0.27303  Biso   1.000  C
  C296     1.0000 0.23637  0.96673  0.27303  Biso   1.000  C
  C297     1.0000 0.03327  0.26963  0.27303  Biso   1.000  C
  C298     1.0000 0.93630  0.56970  0.06030  Biso   1.000  C
  C299     1.0000 0.43030  0.36660  0.06030  Biso   1.000  C
  C300     1.0000 0.63340  0.06370  0.06030  Biso   1.000  C
  C301     1.0000 0.26963  0.23637  0.72697  Biso   1.000  C
  C302     1.0000 0.76363  0.03327  0.72697  Biso   1.000  C
  C303     1.0000 0.96673  0.73037  0.72697  Biso   1.000  C
  C304     1.0000 0.60297  0.90303  0.39363  Biso   1.000  C
  C305     1.0000 0.09697  0.69993  0.39363  Biso   1.000  C
  C306     1.0000 0.30007  0.39703  0.39363  Biso   1.000  C
  H469     1.0000 0.03220  0.42130  0.94970  Biso   1.000  H
  H470     1.0000 0.57870  0.61090  0.94970  Biso   1.000  H
  H471     1.0000 0.38910  0.96780  0.94970  Biso   1.000  H
  H472     1.0000 0.36553  0.08797  0.61637  Biso   1.000  H
  H473     1.0000 0.91203  0.27757  0.61637  Biso   1.000  H
  H474     1.0000 0.72243  0.63447  0.61637  Biso   1.000  H
  H475     1.0000 0.69887  0.75463  0.28303  Biso   1.000  H
  H476     1.0000 0.24537  0.94423  0.28303  Biso   1.000  H
  H477     1.0000 0.05577  0.30113  0.28303  Biso   1.000  H
  H478     1.0000 0.96780  0.57870  0.05030  Biso   1.000  H
  H479     1.0000 0.42130  0.38910  0.05030  Biso   1.000  H
  H480     1.0000 0.61090  0.03220  0.05030  Biso   1.000  H
  H481     1.0000 0.30113  0.24537  0.71697  Biso   1.000  H
  H482     1.0000 0.75463  0.05577  0.71697  Biso   1.000  H
  H483     1.0000 0.94423  0.69887  0.71697  Biso   1.000  H
  H484     1.0000 0.63447  0.91203  0.38363  Biso   1.000  H
  H485     1.0000 0.08797  0.72243  0.38363  Biso   1.000  H
  H486     1.0000 0.27757  0.36553  0.38363  Biso   1.000  H
  H487     1.0000 0.05520  0.39420  0.93270  Biso   1.000  H
  H488     1.0000 0.60580  0.66100  0.93270  Biso   1.000  H
  H489     1.0000 0.33900  0.94480  0.93270  Biso   1.000  H
  H490     1.0000 0.38853  0.06087  0.59937  Biso   1.000  H
  H491     1.0000 0.93913  0.32767  0.59937  Biso   1.000  H
  H492     1.0000 0.67233  0.61147  0.59937  Biso   1.000  H
  H493     1.0000 0.72187  0.72753  0.26603  Biso   1.000  H
  H494     1.0000 0.27247  0.99433  0.26603  Biso   1.000  H
  H495     1.0000 0.00567  0.27813  0.26603  Biso   1.000  H
  H496     1.0000 0.94480  0.60580  0.06730  Biso   1.000  H
  H497     1.0000 0.39420  0.33900  0.06730  Biso   1.000  H
  H498     1.0000 0.66100  0.05520  0.06730  Biso   1.000  H
  H499     1.0000 0.27813  0.27247  0.73397  Biso   1.000  H
  H500     1.0000 0.72753  0.00567  0.73397  Biso   1.000  H
  H501     1.0000 0.99433  0.72187  0.73397  Biso   1.000  H
  H502     1.0000 0.61147  0.93913  0.40063  Biso   1.000  H
  H503     1.0000 0.06087  0.67233  0.40063  Biso   1.000  H
  H504     1.0000 0.32767  0.38853  0.40063  Biso   1.000  H
  C307     1.0000 0.11050  0.44880  0.95040  Biso   1.000  C
  C308     1.0000 0.55120  0.66170  0.95040  Biso   1.000  C
  C309     1.0000 0.33830  0.88950  0.95040  Biso   1.000  C
  C310     1.0000 0.44383  0.11547  0.61707  Biso   1.000  C
  C311     1.0000 0.88453  0.32837  0.61707  Biso   1.000  C
  C312     1.0000 0.67163  0.55617  0.61707  Biso   1.000  C
  C313     1.0000 0.77717  0.78213  0.28373  Biso   1.000  C
  C314     1.0000 0.21787  0.99503  0.28373  Biso   1.000  C
  C315     1.0000 0.00497  0.22283  0.28373  Biso   1.000  C
  C316     1.0000 0.88950  0.55120  0.04960  Biso   1.000  C
  C317     1.0000 0.44880  0.33830  0.04960  Biso   1.000  C
  C318     1.0000 0.66170  0.11050  0.04960  Biso   1.000  C
  C319     1.0000 0.22283  0.21787  0.71627  Biso   1.000  C
  C320     1.0000 0.78213  0.00497  0.71627  Biso   1.000  C
  C321     1.0000 0.99503  0.77717  0.71627  Biso   1.000  C
  C322     1.0000 0.55617  0.88453  0.38293  Biso   1.000  C
  C323     1.0000 0.11547  0.67163  0.38293  Biso   1.000  C
  C324     1.0000 0.32837  0.44383  0.38293  Biso   1.000  C
  H505     1.0000 0.11890  0.48650  0.95590  Biso   1.000  H
  H506     1.0000 0.51350  0.63240  0.95590  Biso   1.000  H
  H507     1.0000 0.36760  0.88110  0.95590  Biso   1.000  H
  H508     1.0000 0.45223  0.15317  0.62257  Biso   1.000  H
  H509     1.0000 0.84683  0.29907  0.62257  Biso   1.000  H
  H510     1.0000 0.70093  0.54777  0.62257  Biso   1.000  H
  H511     1.0000 0.78557  0.81983  0.28923  Biso   1.000  H
  H512     1.0000 0.18017  0.96573  0.28923  Biso   1.000  H
  H513     1.0000 0.03427  0.21443  0.28923  Biso   1.000  H
  H514     1.0000 0.88110  0.51350  0.04410  Biso   1.000  H
  H515     1.0000 0.48650  0.36760  0.04410  Biso   1.000  H
  H516     1.0000 0.63240  0.11890  0.04410  Biso   1.000  H
  H517     1.0000 0.21443  0.18017  0.71077  Biso   1.000  H
  H518     1.0000 0.81983  0.03427  0.71077  Biso   1.000  H
  H519     1.0000 0.96573  0.78557  0.71077  Biso   1.000  H
  H520     1.0000 0.54777  0.84683  0.37743  Biso   1.000  H
  H521     1.0000 0.15317  0.70093  0.37743  Biso   1.000  H
  H522     1.0000 0.29907  0.45223  0.37743  Biso   1.000  H
  H523     1.0000 0.14030  0.45690  0.93970  Biso   1.000  H
  H524     1.0000 0.54310  0.68340  0.93970  Biso   1.000  H
  H525     1.0000 0.31660  0.85970  0.93970  Biso   1.000  H
  H526     1.0000 0.47363  0.12357  0.60637  Biso   1.000  H
  H527     1.0000 0.87643  0.35007  0.60637  Biso   1.000  H
  H528     1.0000 0.64993  0.52637  0.60637  Biso   1.000  H
  H529     1.0000 0.80697  0.79023  0.27303  Biso   1.000  H
  H530     1.0000 0.20977  0.01673  0.27303  Biso   1.000  H
  H531     1.0000 0.98327  0.19303  0.27303  Biso   1.000  H
  H532     1.0000 0.85970  0.54310  0.06030  Biso   1.000  H
  H533     1.0000 0.45690  0.31660  0.06030  Biso   1.000  H
  H534     1.0000 0.68340  0.14030  0.06030  Biso   1.000  H
  H535     1.0000 0.19303  0.20977  0.72697  Biso   1.000  H
  H536     1.0000 0.79023  0.98327  0.72697  Biso   1.000  H
  H537     1.0000 0.01673  0.80697  0.72697  Biso   1.000  H
  H538     1.0000 0.52637  0.87643  0.39363  Biso   1.000  H
  H539     1.0000 0.12357  0.64993  0.39363  Biso   1.000  H
  H540     1.0000 0.35007  0.47363  0.39363  Biso   1.000  H
  C325     1.0000 0.06550  0.39610  0.98628  Biso   1.000  C
  C326     1.0000 0.60390  0.66940  0.98628  Biso   1.000  C
  C327     1.0000 0.33060  0.93450  0.98628  Biso   1.000  C
  C328     1.0000 0.39883  0.06277  0.65295  Biso   1.000  C
  C329     1.0000 0.93723  0.33607  0.65295  Biso   1.000  C
  C330     1.0000 0.66393  0.60117  0.65295  Biso   1.000  C
  C331     1.0000 0.73217  0.72943  0.31961  Biso   1.000  C
  C332     1.0000 0.27057  0.00273  0.31961  Biso   1.000  C
  C333     1.0000 0.99727  0.26783  0.31961  Biso   1.000  C
  C334     1.0000 0.93450  0.60390  0.01372  Biso   1.000  C
  C335     1.0000 0.39610  0.33060  0.01372  Biso   1.000  C
  C336     1.0000 0.66940  0.06550  0.01372  Biso   1.000  C
  C337     1.0000 0.26783  0.27057  0.68039  Biso   1.000  C
  C338     1.0000 0.72943  0.99727  0.68039  Biso   1.000  C
  C339     1.0000 0.00273  0.73217  0.68039  Biso   1.000  C
  C340     1.0000 0.60117  0.93723  0.34705  Biso   1.000  C
  C341     1.0000 0.06277  0.66393  0.34705  Biso   1.000  C
  C342     1.0000 0.33607  0.39883  0.34705  Biso   1.000  C
  C343     1.0000 0.91950  0.43410  0.91410  Biso   1.000  C
  C344     1.0000 0.56590  0.48540  0.91410  Biso   1.000  C
  C345     1.0000 0.51460  0.08050  0.91410  Biso   1.000  C
  C346     1.0000 0.25283  0.10077  0.58077  Biso   1.000  C
  C347     1.0000 0.89923  0.15207  0.58077  Biso   1.000  C
  C348     1.0000 0.84793  0.74717  0.58077  Biso   1.000  C
  C349     1.0000 0.58617  0.76743  0.24743  Biso   1.000  C
  C350     1.0000 0.23257  0.81873  0.24743  Biso   1.000  C
  C351     1.0000 0.18127  0.41383  0.24743  Biso   1.000  C
  C352     1.0000 0.08050  0.56590  0.08590  Biso   1.000  C
  C353     1.0000 0.43410  0.51460  0.08590  Biso   1.000  C
  C354     1.0000 0.48540  0.91950  0.08590  Biso   1.000  C
  C355     1.0000 0.41383  0.23257  0.75257  Biso   1.000  C
  C356     1.0000 0.76743  0.18127  0.75257  Biso   1.000  C
  C357     1.0000 0.81873  0.58617  0.75257  Biso   1.000  C
  C358     1.0000 0.74717  0.89923  0.41923  Biso   1.000  C
  C359     1.0000 0.10077  0.84793  0.41923  Biso   1.000  C
  C360     1.0000 0.15207  0.25283  0.41923  Biso   1.000  C
  H541     1.0000 0.95190  0.44650  0.90440  Biso   1.000  H
  H542     1.0000 0.55350  0.50540  0.90440  Biso   1.000  H
  H543     1.0000 0.49460  0.04810  0.90440  Biso   1.000  H
  H544     1.0000 0.28523  0.11317  0.57107  Biso   1.000  H
  H545     1.0000 0.88683  0.17207  0.57107  Biso   1.000  H
  H546     1.0000 0.82793  0.71477  0.57107  Biso   1.000  H
  H547     1.0000 0.61857  0.77983  0.23773  Biso   1.000  H
  H548     1.0000 0.22017  0.83873  0.23773  Biso   1.000  H
  H549     1.0000 0.16127  0.38143  0.23773  Biso   1.000  H
  H550     1.0000 0.04810  0.55350  0.09560  Biso   1.000  H
  H551     1.0000 0.44650  0.49460  0.09560  Biso   1.000  H
  H552     1.0000 0.50540  0.95190  0.09560  Biso   1.000  H
  H553     1.0000 0.38143  0.22017  0.76227  Biso   1.000  H
  H554     1.0000 0.77983  0.16127  0.76227  Biso   1.000  H
  H555     1.0000 0.83873  0.61857  0.76227  Biso   1.000  H
  H556     1.0000 0.71477  0.88683  0.42893  Biso   1.000  H
  H557     1.0000 0.11317  0.82793  0.42893  Biso   1.000  H
  H558     1.0000 0.17207  0.28523  0.42893  Biso   1.000  H
  H559     1.0000 0.90080  0.39270  0.91610  Biso   1.000  H
  H560     1.0000 0.60730  0.50810  0.91610  Biso   1.000  H
  H561     1.0000 0.49190  0.09920  0.91610  Biso   1.000  H
  H562     1.0000 0.23413  0.05937  0.58277  Biso   1.000  H
  H563     1.0000 0.94063  0.17477  0.58277  Biso   1.000  H
  H564     1.0000 0.82523  0.76587  0.58277  Biso   1.000  H
  H565     1.0000 0.56747  0.72603  0.24943  Biso   1.000  H
  H566     1.0000 0.27397  0.84143  0.24943  Biso   1.000  H
  H567     1.0000 0.15857  0.43253  0.24943  Biso   1.000  H
  H568     1.0000 0.09920  0.60730  0.08390  Biso   1.000  H
  H569     1.0000 0.39270  0.49190  0.08390  Biso   1.000  H
  H570     1.0000 0.50810  0.90080  0.08390  Biso   1.000  H
  H571     1.0000 0.43253  0.27397  0.75057  Biso   1.000  H
  H572     1.0000 0.72603  0.15857  0.75057  Biso   1.000  H
  H573     1.0000 0.84143  0.56747  0.75057  Biso   1.000  H
  H574     1.0000 0.76587  0.94063  0.41723  Biso   1.000  H
  H575     1.0000 0.05937  0.82523  0.41723  Biso   1.000  H
  H576     1.0000 0.17477  0.23413  0.41723  Biso   1.000  H
  H577     1.0000 0.89210  0.44390  0.90810  Biso   1.000  H
  H578     1.0000 0.55610  0.44820  0.90810  Biso   1.000  H
  H579     1.0000 0.55180  0.10790  0.90810  Biso   1.000  H
  H580     1.0000 0.22543  0.11057  0.57477  Biso   1.000  H
  H581     1.0000 0.88943  0.11487  0.57477  Biso   1.000  H
  H582     1.0000 0.88513  0.77457  0.57477  Biso   1.000  H
  H583     1.0000 0.55877  0.77723  0.24143  Biso   1.000  H
  H584     1.0000 0.22277  0.78153  0.24143  Biso   1.000  H
  H585     1.0000 0.21847  0.44123  0.24143  Biso   1.000  H
  H586     1.0000 0.10790  0.55610  0.09190  Biso   1.000  H
  H587     1.0000 0.44390  0.55180  0.09190  Biso   1.000  H
  H588     1.0000 0.44820  0.89210  0.09190  Biso   1.000  H
  H589     1.0000 0.44123  0.22277  0.75857  Biso   1.000  H
  H590     1.0000 0.77723  0.21847  0.75857  Biso   1.000  H
  H591     1.0000 0.78153  0.55877  0.75857  Biso   1.000  H
  H592     1.0000 0.77457  0.88943  0.42523  Biso   1.000  H
  H593     1.0000 0.11057  0.88513  0.42523  Biso   1.000  H
  H594     1.0000 0.11487  0.22543  0.42523  Biso   1.000  H
  C361     1.0000 0.01540  0.28860  0.98080  Biso   1.000  C
  C362     1.0000 0.71140  0.72680  0.98080  Biso   1.000  C
  C363     1.0000 0.27320  0.98460  0.98080  Biso   1.000  C
  C364     1.0000 0.34873  0.95527  0.64747  Biso   1.000  C
  C365     1.0000 0.04473  0.39347  0.64747  Biso   1.000  C
  C366     1.0000 0.60653  0.65127  0.64747  Biso   1.000  C
  C367     1.0000 0.68207  0.62193  0.31413  Biso   1.000  C
  C368     1.0000 0.37807  0.06013  0.31413  Biso   1.000  C
  C369     1.0000 0.93987  0.31793  0.31413  Biso   1.000  C
  C370     1.0000 0.98460  0.71140  0.01920  Biso   1.000  C
  C371     1.0000 0.28860  0.27320  0.01920  Biso   1.000  C
  C372     1.0000 0.72680  0.01540  0.01920  Biso   1.000  C
  C373     1.0000 0.31793  0.37807  0.68587  Biso   1.000  C
  C374     1.0000 0.62193  0.93987  0.68587  Biso   1.000  C
  C375     1.0000 0.06013  0.68207  0.68587  Biso   1.000  C
  C376     1.0000 0.65127  0.04473  0.35253  Biso   1.000  C
  C377     1.0000 0.95527  0.60653  0.35253  Biso   1.000  C
  C378     1.0000 0.39347  0.34873  0.35253  Biso   1.000  C
  H595     1.0000 0.04840  0.29610  0.97210  Biso   1.000  H
  H596     1.0000 0.70390  0.75230  0.97210  Biso   1.000  H
  H597     1.0000 0.24770  0.95160  0.97210  Biso   1.000  H
  H598     1.0000 0.38173  0.96277  0.63877  Biso   1.000  H
  H599     1.0000 0.03723  0.41897  0.63877  Biso   1.000  H
  H600     1.0000 0.58103  0.61827  0.63877  Biso   1.000  H
  H601     1.0000 0.71507  0.62943  0.30543  Biso   1.000  H
  H602     1.0000 0.37057  0.08563  0.30543  Biso   1.000  H
  H603     1.0000 0.91437  0.28493  0.30543  Biso   1.000  H
  H604     1.0000 0.95160  0.70390  0.02790  Biso   1.000  H
  H605     1.0000 0.29610  0.24770  0.02790  Biso   1.000  H
  H606     1.0000 0.75230  0.04840  0.02790  Biso   1.000  H
  H607     1.0000 0.28493  0.37057  0.69457  Biso   1.000  H
  H608     1.0000 0.62943  0.91437  0.69457  Biso   1.000  H
  H609     1.0000 0.08563  0.71507  0.69457  Biso   1.000  H
  H610     1.0000 0.61827  0.03723  0.36123  Biso   1.000  H
  H611     1.0000 0.96277  0.58103  0.36123  Biso   1.000  H
  H612     1.0000 0.41897  0.38173  0.36123  Biso   1.000  H
  H613     1.0000 0.98060  0.27000  0.97220  Biso   1.000  H
  H614     1.0000 0.73000  0.71060  0.97220  Biso   1.000  H
  H615     1.0000 0.28940  0.01940  0.97220  Biso   1.000  H
  H616     1.0000 0.31393  0.93667  0.63887  Biso   1.000  H
  H617     1.0000 0.06333  0.37727  0.63887  Biso   1.000  H
  H618     1.0000 0.62273  0.68607  0.63887  Biso   1.000  H
  H619     1.0000 0.64727  0.60333  0.30553  Biso   1.000  H
  H620     1.0000 0.39667  0.04393  0.30553  Biso   1.000  H
  H621     1.0000 0.95607  0.35273  0.30553  Biso   1.000  H
  H622     1.0000 0.01940  0.73000  0.02780  Biso   1.000  H
  H623     1.0000 0.27000  0.28940  0.02780  Biso   1.000  H
  H624     1.0000 0.71060  0.98060  0.02780  Biso   1.000  H
  H625     1.0000 0.35273  0.39667  0.69447  Biso   1.000  H
  H626     1.0000 0.60333  0.95607  0.69447  Biso   1.000  H
  H627     1.0000 0.04393  0.64727  0.69447  Biso   1.000  H
  H628     1.0000 0.68607  0.06333  0.36113  Biso   1.000  H
  H629     1.0000 0.93667  0.62273  0.36113  Biso   1.000  H
  H630     1.0000 0.37727  0.31393  0.36113  Biso   1.000  H
  H631     1.0000 0.01190  0.26360  0.99270  Biso   1.000  H
  H632     1.0000 0.73640  0.74830  0.99270  Biso   1.000  H
  H633     1.0000 0.25170  0.98810  0.99270  Biso   1.000  H
  H634     1.0000 0.34523  0.93027  0.65937  Biso   1.000  H
  H635     1.0000 0.06973  0.41497  0.65937  Biso   1.000  H
  H636     1.0000 0.58503  0.65477  0.65937  Biso   1.000  H
  H637     1.0000 0.67857  0.59693  0.32603  Biso   1.000  H
  H638     1.0000 0.40307  0.08163  0.32603  Biso   1.000  H
  H639     1.0000 0.91837  0.32143  0.32603  Biso   1.000  H
  H640     1.0000 0.98810  0.73640  0.00730  Biso   1.000  H
  H641     1.0000 0.26360  0.25170  0.00730  Biso   1.000  H
  H642     1.0000 0.74830  0.01190  0.00730  Biso   1.000  H
  H643     1.0000 0.32143  0.40307  0.67397  Biso   1.000  H
  H644     1.0000 0.59693  0.91837  0.67397  Biso   1.000  H
  H645     1.0000 0.08163  0.67857  0.67397  Biso   1.000  H
  H646     1.0000 0.65477  0.06973  0.34063  Biso   1.000  H
  H647     1.0000 0.93027  0.58503  0.34063  Biso   1.000  H
  H648     1.0000 0.41497  0.34523  0.34063  Biso   1.000  H
  C379     1.0000 0.99820  0.31720  0.19850  Biso   1.000  C
  C380     1.0000 0.68280  0.68100  0.19850  Biso   1.000  C
  C381     1.0000 0.31900  0.00180  0.19850  Biso   1.000  C
  C382     1.0000 0.33153  0.98387  0.86517  Biso   1.000  C
  C383     1.0000 0.01613  0.34767  0.86517  Biso   1.000  C
  C384     1.0000 0.65233  0.66847  0.86517  Biso   1.000  C
  C385     1.0000 0.66487  0.65053  0.53183  Biso   1.000  C
  C386     1.0000 0.34947  0.01433  0.53183  Biso   1.000  C
  C387     1.0000 0.98567  0.33513  0.53183  Biso   1.000  C
  C388     1.0000 0.00180  0.68280  0.80150  Biso   1.000  C
  C389     1.0000 0.31720  0.31900  0.80150  Biso   1.000  C
  C390     1.0000 0.68100  0.99820  0.80150  Biso   1.000  C
  C391     1.0000 0.33513  0.34947  0.46817  Biso   1.000  C
  C392     1.0000 0.65053  0.98567  0.46817  Biso   1.000  C
  C393     1.0000 0.01433  0.66487  0.46817  Biso   1.000  C
  C394     1.0000 0.66847  0.01613  0.13483  Biso   1.000  C
  C395     1.0000 0.98387  0.65233  0.13483  Biso   1.000  C
  C396     1.0000 0.34767  0.33153  0.13483  Biso   1.000  C
  H649     1.0000 0.95610  0.29580  0.19710  Biso   1.000  H
  H650     1.0000 0.70420  0.66030  0.19710  Biso   1.000  H
  H651     1.0000 0.33970  0.04390  0.19710  Biso   1.000  H
  H652     1.0000 0.28943  0.96247  0.86377  Biso   1.000  H
  H653     1.0000 0.03753  0.32697  0.86377  Biso   1.000  H
  H654     1.0000 0.67303  0.71057  0.86377  Biso   1.000  H
  H655     1.0000 0.62277  0.62913  0.53043  Biso   1.000  H
  H656     1.0000 0.37087  0.99363  0.53043  Biso   1.000  H
  H657     1.0000 0.00637  0.37723  0.53043  Biso   1.000  H
  H658     1.0000 0.04390  0.70420  0.80290  Biso   1.000  H
  H659     1.0000 0.29580  0.33970  0.80290  Biso   1.000  H
  H660     1.0000 0.66030  0.95610  0.80290  Biso   1.000  H
  H661     1.0000 0.37723  0.37087  0.46957  Biso   1.000  H
  H662     1.0000 0.62913  0.00637  0.46957  Biso   1.000  H
  H663     1.0000 0.99363  0.62277  0.46957  Biso   1.000  H
  H664     1.0000 0.71057  0.03753  0.13623  Biso   1.000  H
  H665     1.0000 0.96247  0.67303  0.13623  Biso   1.000  H
  H666     1.0000 0.32697  0.28943  0.13623  Biso   1.000  H
  H667     1.0000 0.00750  0.34300  0.21080  Biso   1.000  H
  H668     1.0000 0.65700  0.66450  0.21080  Biso   1.000  H
  H669     1.0000 0.33550  0.99250  0.21080  Biso   1.000  H
  H670     1.0000 0.34083  0.00967  0.87747  Biso   1.000  H
  H671     1.0000 0.99033  0.33117  0.87747  Biso   1.000  H
  H672     1.0000 0.66883  0.65917  0.87747  Biso   1.000  H
  H673     1.0000 0.67417  0.67633  0.54413  Biso   1.000  H
  H674     1.0000 0.32367  0.99783  0.54413  Biso   1.000  H
  H675     1.0000 0.00217  0.32583  0.54413  Biso   1.000  H
  H676     1.0000 0.99250  0.65700  0.78920  Biso   1.000  H
  H677     1.0000 0.34300  0.33550  0.78920  Biso   1.000  H
  H678     1.0000 0.66450  0.00750  0.78920  Biso   1.000  H
  H679     1.0000 0.32583  0.32367  0.45587  Biso   1.000  H
  H680     1.0000 0.67633  0.00217  0.45587  Biso   1.000  H
  H681     1.0000 0.99783  0.67417  0.45587  Biso   1.000  H
  H682     1.0000 0.65917  0.99033  0.12253  Biso   1.000  H
  H683     1.0000 0.00967  0.66883  0.12253  Biso   1.000  H
  H684     1.0000 0.33117  0.34083  0.12253  Biso   1.000  H
  C397     1.0000 0.66010  0.93470  0.15730  Biso   1.000  C
  C398     1.0000 0.06530  0.72540  0.15730  Biso   1.000  C
  C399     1.0000 0.27460  0.33990  0.15730  Biso   1.000  C
  C400     1.0000 0.99343  0.60137  0.82397  Biso   1.000  C
  C401     1.0000 0.39863  0.39207  0.82397  Biso   1.000  C
  C402     1.0000 0.60793  0.00657  0.82397  Biso   1.000  C
  C403     1.0000 0.32677  0.26803  0.49063  Biso   1.000  C
  C404     1.0000 0.73197  0.05873  0.49063  Biso   1.000  C
  C405     1.0000 0.94127  0.67323  0.49063  Biso   1.000  C
  C406     1.0000 0.33990  0.06530  0.84270  Biso   1.000  C
  C407     1.0000 0.93470  0.27460  0.84270  Biso   1.000  C
  C408     1.0000 0.72540  0.66010  0.84270  Biso   1.000  C
  C409     1.0000 0.67323  0.73197  0.50937  Biso   1.000  C
  C410     1.0000 0.26803  0.94127  0.50937  Biso   1.000  C
  C411     1.0000 0.05873  0.32677  0.50937  Biso   1.000  C
  C412     1.0000 0.00657  0.39863  0.17603  Biso   1.000  C
  C413     1.0000 0.60137  0.60793  0.17603  Biso   1.000  C
  C414     1.0000 0.39207  0.99343  0.17603  Biso   1.000  C
  H685     1.0000 0.64700  0.91170  0.14410  Biso   1.000  H
  H686     1.0000 0.08830  0.73530  0.14410  Biso   1.000  H
  H687     1.0000 0.26470  0.35300  0.14410  Biso   1.000  H
  H688     1.0000 0.98033  0.57837  0.81077  Biso   1.000  H
  H689     1.0000 0.42163  0.40197  0.81077  Biso   1.000  H
  H690     1.0000 0.59803  0.01967  0.81077  Biso   1.000  H
  H691     1.0000 0.31367  0.24503  0.47743  Biso   1.000  H
  H692     1.0000 0.75497  0.06863  0.47743  Biso   1.000  H
  H693     1.0000 0.93137  0.68633  0.47743  Biso   1.000  H
  H694     1.0000 0.35300  0.08830  0.85590  Biso   1.000  H
  H695     1.0000 0.91170  0.26470  0.85590  Biso   1.000  H
  H696     1.0000 0.73530  0.64700  0.85590  Biso   1.000  H
  H697     1.0000 0.68633  0.75497  0.52257  Biso   1.000  H
  H698     1.0000 0.24503  0.93137  0.52257  Biso   1.000  H
  H699     1.0000 0.06863  0.31367  0.52257  Biso   1.000  H
  H700     1.0000 0.01967  0.42163  0.18923  Biso   1.000  H
  H701     1.0000 0.57837  0.59803  0.18923  Biso   1.000  H
  H702     1.0000 0.40197  0.98033  0.18923  Biso   1.000  H
  H703     1.0000 0.63730  0.90900  0.16890  Biso   1.000  H
  H704     1.0000 0.09100  0.72830  0.16890  Biso   1.000  H
  H705     1.0000 0.27170  0.36270  0.16890  Biso   1.000  H
  H706     1.0000 0.97063  0.57567  0.83557  Biso   1.000  H
  H707     1.0000 0.42433  0.39497  0.83557  Biso   1.000  H
  H708     1.0000 0.60503  0.02937  0.83557  Biso   1.000  H
  H709     1.0000 0.30397  0.24233  0.50223  Biso   1.000  H
  H710     1.0000 0.75767  0.06163  0.50223  Biso   1.000  H
  H711     1.0000 0.93837  0.69603  0.50223  Biso   1.000  H
  H712     1.0000 0.36270  0.09100  0.83110  Biso   1.000  H
  H713     1.0000 0.90900  0.27170  0.83110  Biso   1.000  H
  H714     1.0000 0.72830  0.63730  0.83110  Biso   1.000  H
  H715     1.0000 0.69603  0.75767  0.49777  Biso   1.000  H
  H716     1.0000 0.24233  0.93837  0.49777  Biso   1.000  H
  H717     1.0000 0.06163  0.30397  0.49777  Biso   1.000  H
  H718     1.0000 0.02937  0.42433  0.16443  Biso   1.000  H
  H719     1.0000 0.57567  0.60503  0.16443  Biso   1.000  H
  H720     1.0000 0.39497  0.97063  0.16443  Biso   1.000  H
  C415     1.0000 0.08070  0.47160  0.94580  Biso   1.000  C
  C416     1.0000 0.52840  0.60910  0.94580  Biso   1.000  C
  C417     1.0000 0.39090  0.91930  0.94580  Biso   1.000  C
  C418     1.0000 0.41403  0.13827  0.61247  Biso   1.000  C
  C419     1.0000 0.86173  0.27577  0.61247  Biso   1.000  C
  C420     1.0000 0.72423  0.58597  0.61247  Biso   1.000  C
  C421     1.0000 0.74737  0.80493  0.27913  Biso   1.000  C
  C422     1.0000 0.19507  0.94243  0.27913  Biso   1.000  C
  C423     1.0000 0.05757  0.25263  0.27913  Biso   1.000  C
  C424     1.0000 0.91930  0.52840  0.05420  Biso   1.000  C
  C425     1.0000 0.47160  0.39090  0.05420  Biso   1.000  C
  C426     1.0000 0.60910  0.08070  0.05420  Biso   1.000  C
  C427     1.0000 0.25263  0.19507  0.72087  Biso   1.000  C
  C428     1.0000 0.80493  0.05757  0.72087  Biso   1.000  C
  C429     1.0000 0.94243  0.74737  0.72087  Biso   1.000  C
  C430     1.0000 0.58597  0.86173  0.38753  Biso   1.000  C
  C431     1.0000 0.13827  0.72423  0.38753  Biso   1.000  C
  C432     1.0000 0.27577  0.41403  0.38753  Biso   1.000  C
  H721     1.0000 0.10190  0.51190  0.95060  Biso   1.000  H
  H722     1.0000 0.48810  0.59000  0.95060  Biso   1.000  H
  H723     1.0000 0.41000  0.89810  0.95060  Biso   1.000  H
  H724     1.0000 0.43523  0.17857  0.61727  Biso   1.000  H
  H725     1.0000 0.82143  0.25667  0.61727  Biso   1.000  H
  H726     1.0000 0.74333  0.56477  0.61727  Biso   1.000  H
  H727     1.0000 0.76857  0.84523  0.28393  Biso   1.000  H
  H728     1.0000 0.15477  0.92333  0.28393  Biso   1.000  H
  H729     1.0000 0.07667  0.23143  0.28393  Biso   1.000  H
  H730     1.0000 0.89810  0.48810  0.04940  Biso   1.000  H
  H731     1.0000 0.51190  0.41000  0.04940  Biso   1.000  H
  H732     1.0000 0.59000  0.10190  0.04940  Biso   1.000  H
  H733     1.0000 0.23143  0.15477  0.71607  Biso   1.000  H
  H734     1.0000 0.84523  0.07667  0.71607  Biso   1.000  H
  H735     1.0000 0.92333  0.76857  0.71607  Biso   1.000  H
  H736     1.0000 0.56477  0.82143  0.38273  Biso   1.000  H
  H737     1.0000 0.17857  0.74333  0.38273  Biso   1.000  H
  H738     1.0000 0.25667  0.43523  0.38273  Biso   1.000  H
  H739     1.0000 0.04520  0.45230  0.95430  Biso   1.000  H
  H740     1.0000 0.54770  0.59290  0.95430  Biso   1.000  H
  H741     1.0000 0.40710  0.95480  0.95430  Biso   1.000  H
  H742     1.0000 0.37853  0.11897  0.62097  Biso   1.000  H
  H743     1.0000 0.88103  0.25957  0.62097  Biso   1.000  H
  H744     1.0000 0.74043  0.62147  0.62097  Biso   1.000  H
  H745     1.0000 0.71187  0.78563  0.28763  Biso   1.000  H
  H746     1.0000 0.21437  0.92623  0.28763  Biso   1.000  H
  H747     1.0000 0.07377  0.28813  0.28763  Biso   1.000  H
  H748     1.0000 0.95480  0.54770  0.04570  Biso   1.000  H
  H749     1.0000 0.45230  0.40710  0.04570  Biso   1.000  H
  H750     1.0000 0.59290  0.04520  0.04570  Biso   1.000  H
  H751     1.0000 0.28813  0.21437  0.71237  Biso   1.000  H
  H752     1.0000 0.78563  0.07377  0.71237  Biso   1.000  H
  H753     1.0000 0.92623  0.71187  0.71237  Biso   1.000  H
  H754     1.0000 0.62147  0.88103  0.37903  Biso   1.000  H
  H755     1.0000 0.11897  0.74043  0.37903  Biso   1.000  H
  H756     1.0000 0.25957  0.37853  0.37903  Biso   1.000  H
