data_image0
_cell_length_a       31.754
_cell_length_b       10.712
_cell_length_c       21.206
_cell_angle_alpha    90
_cell_angle_beta     90
_cell_angle_gamma    90

_symmetry_space_group_name_H-M    "P 1"
_symmetry_int_tables_number       1

loop_
  _symmetry_equiv_pos_as_xyz
  'x, y, z'

loop_
  _atom_site_label
  _atom_site_occupancy
  _atom_site_fract_x
  _atom_site_fract_y
  _atom_site_fract_z
  _atom_site_thermal_displace_type
  _atom_site_B_iso_or_equiv
  _atom_site_type_symbol
  Cu1      1.0000 0.19640  0.73927  0.70754  Biso   1.000  Cu
  Cu2      1.0000 0.80360  0.26073  0.70754  Biso   1.000  Cu
  Cu3      1.0000 0.05360  0.98927  0.95754  Biso   1.000  Cu
  Cu4      1.0000 0.44640  0.51073  0.95754  Biso   1.000  Cu
  Cu5      1.0000 0.19640  0.23927  0.20754  Biso   1.000  Cu
  Cu6      1.0000 0.80360  0.76073  0.20754  Biso   1.000  Cu
  Cu7      1.0000 0.05360  0.48927  0.45754  Biso   1.000  Cu
  Cu8      1.0000 0.44640  0.01073  0.45754  Biso   1.000  Cu
  Cu9      1.0000 0.69640  0.73927  0.20754  Biso   1.000  Cu
  Cu10     1.0000 0.30360  0.26073  0.20754  Biso   1.000  Cu
  Cu11     1.0000 0.55360  0.98927  0.45754  Biso   1.000  Cu
  Cu12     1.0000 0.94640  0.51073  0.45754  Biso   1.000  Cu
  Cu13     1.0000 0.69640  0.23927  0.70754  Biso   1.000  Cu
  Cu14     1.0000 0.30360  0.76073  0.70754  Biso   1.000  Cu
  Cu15     1.0000 0.55360  0.48927  0.95754  Biso   1.000  Cu
  Cu16     1.0000 0.94640  0.01073  0.95754  Biso   1.000  Cu
  Cu17     1.0000 0.22165  0.50798  0.82317  Biso   1.000  Cu
  Cu18     1.0000 0.77835  0.49202  0.82317  Biso   1.000  Cu
  Cu19     1.0000 0.02835  0.75798  0.07317  Biso   1.000  Cu
  Cu20     1.0000 0.47165  0.74202  0.07317  Biso   1.000  Cu
  Cu21     1.0000 0.22165  0.00798  0.32317  Biso   1.000  Cu
  Cu22     1.0000 0.77835  0.99202  0.32317  Biso   1.000  Cu
  Cu23     1.0000 0.02835  0.25798  0.57317  Biso   1.000  Cu
  Cu24     1.0000 0.47165  0.24202  0.57317  Biso   1.000  Cu
  Cu25     1.0000 0.72165  0.50798  0.32317  Biso   1.000  Cu
  Cu26     1.0000 0.27835  0.49202  0.32317  Biso   1.000  Cu
  Cu27     1.0000 0.52835  0.75798  0.57317  Biso   1.000  Cu
  Cu28     1.0000 0.97165  0.74202  0.57317  Biso   1.000  Cu
  Cu29     1.0000 0.72165  0.00798  0.82317  Biso   1.000  Cu
  Cu30     1.0000 0.27835  0.99202  0.82317  Biso   1.000  Cu
  Cu31     1.0000 0.52835  0.25798  0.07317  Biso   1.000  Cu
  Cu32     1.0000 0.97165  0.24202  0.07317  Biso   1.000  Cu
  Cu33     1.0000 0.11724  0.52001  0.82668  Biso   1.000  Cu
  Cu34     1.0000 0.88276  0.47999  0.82668  Biso   1.000  Cu
  Cu35     1.0000 0.13276  0.77001  0.07668  Biso   1.000  Cu
  Cu36     1.0000 0.36724  0.72999  0.07668  Biso   1.000  Cu
  Cu37     1.0000 0.11724  0.02001  0.32668  Biso   1.000  Cu
  Cu38     1.0000 0.88276  0.97999  0.32668  Biso   1.000  Cu
  Cu39     1.0000 0.13276  0.27001  0.57668  Biso   1.000  Cu
  Cu40     1.0000 0.36724  0.22999  0.57668  Biso   1.000  Cu
  Cu41     1.0000 0.61724  0.52001  0.32668  Biso   1.000  Cu
  Cu42     1.0000 0.38276  0.47999  0.32668  Biso   1.000  Cu
  Cu43     1.0000 0.63276  0.77001  0.57668  Biso   1.000  Cu
  Cu44     1.0000 0.86724  0.72999  0.57668  Biso   1.000  Cu
  Cu45     1.0000 0.61724  0.02001  0.82668  Biso   1.000  Cu
  Cu46     1.0000 0.38276  0.97999  0.82668  Biso   1.000  Cu
  Cu47     1.0000 0.63276  0.27001  0.07668  Biso   1.000  Cu
  Cu48     1.0000 0.86724  0.22999  0.07668  Biso   1.000  Cu
  Br1      1.0000 0.25000  0.75000  0.79723  Biso   1.000  Br
  Br2      1.0000 0.75000  0.25000  0.79723  Biso   1.000  Br
  Br3      1.0000 0.00000  0.00000  0.04723  Biso   1.000  Br
  Br4      1.0000 0.50000  0.50000  0.04723  Biso   1.000  Br
  Br5      1.0000 0.25000  0.25000  0.29723  Biso   1.000  Br
  Br6      1.0000 0.75000  0.75000  0.29723  Biso   1.000  Br
  Br7      1.0000 0.00000  0.50000  0.54723  Biso   1.000  Br
  Br8      1.0000 0.50000  0.00000  0.54723  Biso   1.000  Br
  Br9      1.0000 0.16855  0.50837  0.73515  Biso   1.000  Br
  Br10     1.0000 0.83145  0.49163  0.73515  Biso   1.000  Br
  Br11     1.0000 0.08145  0.75837  0.98515  Biso   1.000  Br
  Br12     1.0000 0.41855  0.74163  0.98515  Biso   1.000  Br
  Br13     1.0000 0.16855  0.00837  0.23515  Biso   1.000  Br
  Br14     1.0000 0.83145  0.99163  0.23515  Biso   1.000  Br
  Br15     1.0000 0.08145  0.25837  0.48515  Biso   1.000  Br
  Br16     1.0000 0.41855  0.24163  0.48515  Biso   1.000  Br
  Br17     1.0000 0.66855  0.50837  0.23515  Biso   1.000  Br
  Br18     1.0000 0.33145  0.49163  0.23515  Biso   1.000  Br
  Br19     1.0000 0.58145  0.75837  0.48515  Biso   1.000  Br
  Br20     1.0000 0.91855  0.74163  0.48515  Biso   1.000  Br
  Br21     1.0000 0.66855  0.00837  0.73515  Biso   1.000  Br
  Br22     1.0000 0.33145  0.99163  0.73515  Biso   1.000  Br
  Br23     1.0000 0.58145  0.25837  0.98515  Biso   1.000  Br
  Br24     1.0000 0.91855  0.24163  0.98515  Biso   1.000  Br
  N1       1.0000 0.19070  0.51500  0.90190  Biso   1.000  N
  N2       1.0000 0.80930  0.48500  0.90190  Biso   1.000  N
  N3       1.0000 0.05930  0.76500  0.15190  Biso   1.000  N
  N4       1.0000 0.44070  0.73500  0.15190  Biso   1.000  N
  N5       1.0000 0.19070  0.01500  0.40190  Biso   1.000  N
  N6       1.0000 0.80930  0.98500  0.40190  Biso   1.000  N
  N7       1.0000 0.05930  0.26500  0.65190  Biso   1.000  N
  N8       1.0000 0.44070  0.23500  0.65190  Biso   1.000  N
  N9       1.0000 0.69070  0.51500  0.40190  Biso   1.000  N
  N10      1.0000 0.30930  0.48500  0.40190  Biso   1.000  N
  N11      1.0000 0.55930  0.76500  0.65190  Biso   1.000  N
  N12      1.0000 0.94070  0.73500  0.65190  Biso   1.000  N
  N13      1.0000 0.69070  0.01500  0.90190  Biso   1.000  N
  N14      1.0000 0.30930  0.98500  0.90190  Biso   1.000  N
  N15      1.0000 0.55930  0.26500  0.15190  Biso   1.000  N
  N16      1.0000 0.94070  0.23500  0.15190  Biso   1.000  N
  N17      1.0000 0.14800  0.48150  0.90110  Biso   1.000  N
  N18      1.0000 0.85200  0.51850  0.90110  Biso   1.000  N
  N19      1.0000 0.10200  0.73150  0.15110  Biso   1.000  N
  N20      1.0000 0.39800  0.76850  0.15110  Biso   1.000  N
  N21      1.0000 0.14800  0.98150  0.40110  Biso   1.000  N
  N22      1.0000 0.85200  0.01850  0.40110  Biso   1.000  N
  N23      1.0000 0.10200  0.23150  0.65110  Biso   1.000  N
  N24      1.0000 0.39800  0.26850  0.65110  Biso   1.000  N
  N25      1.0000 0.64800  0.48150  0.40110  Biso   1.000  N
  N26      1.0000 0.35200  0.51850  0.40110  Biso   1.000  N
  N27      1.0000 0.60200  0.73150  0.65110  Biso   1.000  N
  N28      1.0000 0.89800  0.76850  0.65110  Biso   1.000  N
  N29      1.0000 0.64800  0.98150  0.90110  Biso   1.000  N
  N30      1.0000 0.35200  0.01850  0.90110  Biso   1.000  N
  N31      1.0000 0.60200  0.23150  0.15110  Biso   1.000  N
  N32      1.0000 0.89800  0.26850  0.15110  Biso   1.000  N
  N33      1.0000 0.16840  0.50070  0.00150  Biso   1.000  N
  N34      1.0000 0.83160  0.49930  0.00150  Biso   1.000  N
  N35      1.0000 0.08160  0.75070  0.25150  Biso   1.000  N
  N36      1.0000 0.41840  0.74930  0.25150  Biso   1.000  N
  N37      1.0000 0.16840  0.00070  0.50150  Biso   1.000  N
  N38      1.0000 0.83160  0.99930  0.50150  Biso   1.000  N
  N39      1.0000 0.08160  0.25070  0.75150  Biso   1.000  N
  N40      1.0000 0.41840  0.24930  0.75150  Biso   1.000  N
  N41      1.0000 0.66840  0.50070  0.50150  Biso   1.000  N
  N42      1.0000 0.33160  0.49930  0.50150  Biso   1.000  N
  N43      1.0000 0.58160  0.75070  0.75150  Biso   1.000  N
  N44      1.0000 0.91840  0.74930  0.75150  Biso   1.000  N
  N45      1.0000 0.66840  0.00070  0.00150  Biso   1.000  N
  N46      1.0000 0.33160  0.99930  0.00150  Biso   1.000  N
  N47      1.0000 0.58160  0.25070  0.25150  Biso   1.000  N
  N48      1.0000 0.91840  0.24930  0.25150  Biso   1.000  N
  N49      1.0000 0.31660  0.66110  0.04000  Biso   1.000  N
  N50      1.0000 0.68340  0.33890  0.04000  Biso   1.000  N
  N51      1.0000 0.93340  0.91110  0.29000  Biso   1.000  N
  N52      1.0000 0.56660  0.58890  0.29000  Biso   1.000  N
  N53      1.0000 0.31660  0.16110  0.54000  Biso   1.000  N
  N54      1.0000 0.68340  0.83890  0.54000  Biso   1.000  N
  N55      1.0000 0.93340  0.41110  0.79000  Biso   1.000  N
  N56      1.0000 0.56660  0.08890  0.79000  Biso   1.000  N
  N57      1.0000 0.81660  0.66110  0.54000  Biso   1.000  N
  N58      1.0000 0.18340  0.33890  0.54000  Biso   1.000  N
  N59      1.0000 0.43340  0.91110  0.79000  Biso   1.000  N
  N60      1.0000 0.06660  0.58890  0.79000  Biso   1.000  N
  N61      1.0000 0.81660  0.16110  0.04000  Biso   1.000  N
  N62      1.0000 0.18340  0.83890  0.04000  Biso   1.000  N
  N63      1.0000 0.43340  0.41110  0.29000  Biso   1.000  N
  N64      1.0000 0.06660  0.08890  0.29000  Biso   1.000  N
  N65      1.0000 0.02010  0.33050  0.03360  Biso   1.000  N
  N66      1.0000 0.97990  0.66950  0.03360  Biso   1.000  N
  N67      1.0000 0.22990  0.58050  0.28360  Biso   1.000  N
  N68      1.0000 0.27010  0.91950  0.28360  Biso   1.000  N
  N69      1.0000 0.02010  0.83050  0.53360  Biso   1.000  N
  N70      1.0000 0.97990  0.16950  0.53360  Biso   1.000  N
  N71      1.0000 0.22990  0.08050  0.78360  Biso   1.000  N
  N72      1.0000 0.27010  0.41950  0.78360  Biso   1.000  N
  N73      1.0000 0.52010  0.33050  0.53360  Biso   1.000  N
  N74      1.0000 0.47990  0.66950  0.53360  Biso   1.000  N
  N75      1.0000 0.72990  0.58050  0.78360  Biso   1.000  N
  N76      1.0000 0.77010  0.91950  0.78360  Biso   1.000  N
  N77      1.0000 0.52010  0.83050  0.03360  Biso   1.000  N
  N78      1.0000 0.47990  0.16950  0.03360  Biso   1.000  N
  N79      1.0000 0.72990  0.08050  0.28360  Biso   1.000  N
  N80      1.0000 0.77010  0.41950  0.28360  Biso   1.000  N
  N81      1.0000 0.02210  0.98400  0.87910  Biso   1.000  N
  N82      1.0000 0.97790  0.01600  0.87910  Biso   1.000  N
  N83      1.0000 0.22790  0.23400  0.12910  Biso   1.000  N
  N84      1.0000 0.27210  0.26600  0.12910  Biso   1.000  N
  N85      1.0000 0.02210  0.48400  0.37910  Biso   1.000  N
  N86      1.0000 0.97790  0.51600  0.37910  Biso   1.000  N
  N87      1.0000 0.22790  0.73400  0.62910  Biso   1.000  N
  N88      1.0000 0.27210  0.76600  0.62910  Biso   1.000  N
  N89      1.0000 0.52210  0.98400  0.37910  Biso   1.000  N
  N90      1.0000 0.47790  0.01600  0.37910  Biso   1.000  N
  N91      1.0000 0.72790  0.23400  0.62910  Biso   1.000  N
  N92      1.0000 0.77210  0.26600  0.62910  Biso   1.000  N
  N93      1.0000 0.52210  0.48400  0.87910  Biso   1.000  N
  N94      1.0000 0.47790  0.51600  0.87910  Biso   1.000  N
  N95      1.0000 0.72790  0.73400  0.12910  Biso   1.000  N
  N96      1.0000 0.77210  0.76600  0.12910  Biso   1.000  N
  N97      1.0000 0.00000  0.00000  0.77650  Biso   1.000  N
  N98      1.0000 0.25000  0.25000  0.02650  Biso   1.000  N
  N99      1.0000 0.00000  0.50000  0.27650  Biso   1.000  N
  N100     1.0000 0.25000  0.75000  0.52650  Biso   1.000  N
  N101     1.0000 0.50000  0.00000  0.27650  Biso   1.000  N
  N102     1.0000 0.75000  0.25000  0.52650  Biso   1.000  N
  N103     1.0000 0.50000  0.50000  0.77650  Biso   1.000  N
  N104     1.0000 0.75000  0.75000  0.02650  Biso   1.000  N
  N105     1.0000 0.14670  0.83120  0.74340  Biso   1.000  N
  N106     1.0000 0.85330  0.16880  0.74340  Biso   1.000  N
  N107     1.0000 0.10330  0.08120  0.99340  Biso   1.000  N
  N108     1.0000 0.39670  0.41880  0.99340  Biso   1.000  N
  N109     1.0000 0.14670  0.33120  0.24340  Biso   1.000  N
  N110     1.0000 0.85330  0.66880  0.24340  Biso   1.000  N
  N111     1.0000 0.10330  0.58120  0.49340  Biso   1.000  N
  N112     1.0000 0.39670  0.91880  0.49340  Biso   1.000  N
  N113     1.0000 0.64670  0.83120  0.24340  Biso   1.000  N
  N114     1.0000 0.35330  0.16880  0.24340  Biso   1.000  N
  N115     1.0000 0.60330  0.08120  0.49340  Biso   1.000  N
  N116     1.0000 0.89670  0.41880  0.49340  Biso   1.000  N
  N117     1.0000 0.64670  0.33120  0.74340  Biso   1.000  N
  N118     1.0000 0.35330  0.66880  0.74340  Biso   1.000  N
  N119     1.0000 0.60330  0.58120  0.99340  Biso   1.000  N
  N120     1.0000 0.89670  0.91880  0.99340  Biso   1.000  N
  C1       1.0000 0.31060  0.65780  0.97690  Biso   1.000  C
  C2       1.0000 0.68940  0.34220  0.97690  Biso   1.000  C
  C3       1.0000 0.93940  0.90780  0.22690  Biso   1.000  C
  C4       1.0000 0.56060  0.59220  0.22690  Biso   1.000  C
  C5       1.0000 0.31060  0.15780  0.47690  Biso   1.000  C
  C6       1.0000 0.68940  0.84220  0.47690  Biso   1.000  C
  C7       1.0000 0.93940  0.40780  0.72690  Biso   1.000  C
  C8       1.0000 0.56060  0.09220  0.72690  Biso   1.000  C
  C9       1.0000 0.81060  0.65780  0.47690  Biso   1.000  C
  C10      1.0000 0.18940  0.34220  0.47690  Biso   1.000  C
  C11      1.0000 0.43940  0.90780  0.72690  Biso   1.000  C
  C12      1.0000 0.06060  0.59220  0.72690  Biso   1.000  C
  C13      1.0000 0.81060  0.15780  0.97690  Biso   1.000  C
  C14      1.0000 0.18940  0.84220  0.97690  Biso   1.000  C
  C15      1.0000 0.43940  0.40780  0.22690  Biso   1.000  C
  C16      1.0000 0.06060  0.09220  0.22690  Biso   1.000  C
  H1       1.0000 0.33170  0.69000  0.94950  Biso   1.000  H
  H2       1.0000 0.66830  0.31000  0.94950  Biso   1.000  H
  H3       1.0000 0.91830  0.94000  0.19950  Biso   1.000  H
  H4       1.0000 0.58170  0.56000  0.19950  Biso   1.000  H
  H5       1.0000 0.33170  0.19000  0.44950  Biso   1.000  H
  H6       1.0000 0.66830  0.81000  0.44950  Biso   1.000  H
  H7       1.0000 0.91830  0.44000  0.69950  Biso   1.000  H
  H8       1.0000 0.58170  0.06000  0.69950  Biso   1.000  H
  H9       1.0000 0.83170  0.69000  0.44950  Biso   1.000  H
  H10      1.0000 0.16830  0.31000  0.44950  Biso   1.000  H
  H11      1.0000 0.41830  0.94000  0.69950  Biso   1.000  H
  H12      1.0000 0.08170  0.56000  0.69950  Biso   1.000  H
  H13      1.0000 0.83170  0.19000  0.94950  Biso   1.000  H
  H14      1.0000 0.16830  0.81000  0.94950  Biso   1.000  H
  H15      1.0000 0.41830  0.44000  0.19950  Biso   1.000  H
  H16      1.0000 0.08170  0.06000  0.19950  Biso   1.000  H
  C17      1.0000 0.27370  0.60740  0.95170  Biso   1.000  C
  C18      1.0000 0.72630  0.39260  0.95170  Biso   1.000  C
  C19      1.0000 0.97630  0.85740  0.20170  Biso   1.000  C
  C20      1.0000 0.52370  0.64260  0.20170  Biso   1.000  C
  C21      1.0000 0.27370  0.10740  0.45170  Biso   1.000  C
  C22      1.0000 0.72630  0.89260  0.45170  Biso   1.000  C
  C23      1.0000 0.97630  0.35740  0.70170  Biso   1.000  C
  C24      1.0000 0.52370  0.14260  0.70170  Biso   1.000  C
  C25      1.0000 0.77370  0.60740  0.45170  Biso   1.000  C
  C26      1.0000 0.22630  0.39260  0.45170  Biso   1.000  C
  C27      1.0000 0.47630  0.85740  0.70170  Biso   1.000  C
  C28      1.0000 0.02370  0.64260  0.70170  Biso   1.000  C
  C29      1.0000 0.77370  0.10740  0.95170  Biso   1.000  C
  C30      1.0000 0.22630  0.89260  0.95170  Biso   1.000  C
  C31      1.0000 0.47630  0.35740  0.20170  Biso   1.000  C
  C32      1.0000 0.02370  0.14260  0.20170  Biso   1.000  C
  H17      1.0000 0.27090  0.60340  0.90710  Biso   1.000  H
  H18      1.0000 0.72910  0.39660  0.90710  Biso   1.000  H
  H19      1.0000 0.97910  0.85340  0.15710  Biso   1.000  H
  H20      1.0000 0.52090  0.64660  0.15710  Biso   1.000  H
  H21      1.0000 0.27090  0.10340  0.40710  Biso   1.000  H
  H22      1.0000 0.72910  0.89660  0.40710  Biso   1.000  H
  H23      1.0000 0.97910  0.35340  0.65710  Biso   1.000  H
  H24      1.0000 0.52090  0.14660  0.65710  Biso   1.000  H
  H25      1.0000 0.77090  0.60340  0.40710  Biso   1.000  H
  H26      1.0000 0.22910  0.39660  0.40710  Biso   1.000  H
  H27      1.0000 0.47910  0.85340  0.65710  Biso   1.000  H
  H28      1.0000 0.02090  0.64660  0.65710  Biso   1.000  H
  H29      1.0000 0.77090  0.10340  0.90710  Biso   1.000  H
  H30      1.0000 0.22910  0.89660  0.90710  Biso   1.000  H
  H31      1.0000 0.47910  0.35340  0.15710  Biso   1.000  H
  H32      1.0000 0.02090  0.14660  0.15710  Biso   1.000  H
  C33      1.0000 0.24160  0.56390  0.98820  Biso   1.000  C
  C34      1.0000 0.75840  0.43610  0.98820  Biso   1.000  C
  C35      1.0000 0.00840  0.81390  0.23820  Biso   1.000  C
  C36      1.0000 0.49160  0.68610  0.23820  Biso   1.000  C
  C37      1.0000 0.24160  0.06390  0.48820  Biso   1.000  C
  C38      1.0000 0.75840  0.93610  0.48820  Biso   1.000  C
  C39      1.0000 0.00840  0.31390  0.73820  Biso   1.000  C
  C40      1.0000 0.49160  0.18610  0.73820  Biso   1.000  C
  C41      1.0000 0.74160  0.56390  0.48820  Biso   1.000  C
  C42      1.0000 0.25840  0.43610  0.48820  Biso   1.000  C
  C43      1.0000 0.50840  0.81390  0.73820  Biso   1.000  C
  C44      1.0000 0.99160  0.68610  0.73820  Biso   1.000  C
  C45      1.0000 0.74160  0.06390  0.98820  Biso   1.000  C
  C46      1.0000 0.25840  0.93610  0.98820  Biso   1.000  C
  C47      1.0000 0.50840  0.31390  0.23820  Biso   1.000  C
  C48      1.0000 0.99160  0.18610  0.23820  Biso   1.000  C
  C49      1.0000 0.24800  0.56510  0.05260  Biso   1.000  C
  C50      1.0000 0.75200  0.43490  0.05260  Biso   1.000  C
  C51      1.0000 0.00200  0.81510  0.30260  Biso   1.000  C
  C52      1.0000 0.49800  0.68490  0.30260  Biso   1.000  C
  C53      1.0000 0.24800  0.06510  0.55260  Biso   1.000  C
  C54      1.0000 0.75200  0.93490  0.55260  Biso   1.000  C
  C55      1.0000 0.00200  0.31510  0.80260  Biso   1.000  C
  C56      1.0000 0.49800  0.18490  0.80260  Biso   1.000  C
  C57      1.0000 0.74800  0.56510  0.55260  Biso   1.000  C
  C58      1.0000 0.25200  0.43490  0.55260  Biso   1.000  C
  C59      1.0000 0.50200  0.81510  0.80260  Biso   1.000  C
  C60      1.0000 0.99800  0.68490  0.80260  Biso   1.000  C
  C61      1.0000 0.74800  0.06510  0.05260  Biso   1.000  C
  C62      1.0000 0.25200  0.93490  0.05260  Biso   1.000  C
  C63      1.0000 0.50200  0.31510  0.30260  Biso   1.000  C
  C64      1.0000 0.99800  0.18490  0.30260  Biso   1.000  C
  H33      1.0000 0.22670  0.53500  0.08020  Biso   1.000  H
  H34      1.0000 0.77330  0.46500  0.08020  Biso   1.000  H
  H35      1.0000 0.02330  0.78500  0.33020  Biso   1.000  H
  H36      1.0000 0.47670  0.71500  0.33020  Biso   1.000  H
  H37      1.0000 0.22670  0.03500  0.58020  Biso   1.000  H
  H38      1.0000 0.77330  0.96500  0.58020  Biso   1.000  H
  H39      1.0000 0.02330  0.28500  0.83020  Biso   1.000  H
  H40      1.0000 0.47670  0.21500  0.83020  Biso   1.000  H
  H41      1.0000 0.72670  0.53500  0.58020  Biso   1.000  H
  H42      1.0000 0.27330  0.46500  0.58020  Biso   1.000  H
  H43      1.0000 0.52330  0.78500  0.83020  Biso   1.000  H
  H44      1.0000 0.97670  0.71500  0.83020  Biso   1.000  H
  H45      1.0000 0.72670  0.03500  0.08020  Biso   1.000  H
  H46      1.0000 0.27330  0.96500  0.08020  Biso   1.000  H
  H47      1.0000 0.52330  0.28500  0.33020  Biso   1.000  H
  H48      1.0000 0.97670  0.21500  0.33020  Biso   1.000  H
  C65      1.0000 0.28610  0.61120  0.07710  Biso   1.000  C
  C66      1.0000 0.71390  0.38880  0.07710  Biso   1.000  C
  C67      1.0000 0.96390  0.86120  0.32710  Biso   1.000  C
  C68      1.0000 0.53610  0.63880  0.32710  Biso   1.000  C
  C69      1.0000 0.28610  0.11120  0.57710  Biso   1.000  C
  C70      1.0000 0.71390  0.88880  0.57710  Biso   1.000  C
  C71      1.0000 0.96390  0.36120  0.82710  Biso   1.000  C
  C72      1.0000 0.53610  0.13880  0.82710  Biso   1.000  C
  C73      1.0000 0.78610  0.61120  0.57710  Biso   1.000  C
  C74      1.0000 0.21390  0.38880  0.57710  Biso   1.000  C
  C75      1.0000 0.46390  0.86120  0.82710  Biso   1.000  C
  C76      1.0000 0.03610  0.63880  0.82710  Biso   1.000  C
  C77      1.0000 0.78610  0.11120  0.07710  Biso   1.000  C
  C78      1.0000 0.21390  0.88880  0.07710  Biso   1.000  C
  C79      1.0000 0.46390  0.36120  0.32710  Biso   1.000  C
  C80      1.0000 0.03610  0.13880  0.32710  Biso   1.000  C
  H49      1.0000 0.29070  0.60720  0.12130  Biso   1.000  H
  H50      1.0000 0.70930  0.39280  0.12130  Biso   1.000  H
  H51      1.0000 0.95930  0.85720  0.37130  Biso   1.000  H
  H52      1.0000 0.54070  0.64280  0.37130  Biso   1.000  H
  H53      1.0000 0.29070  0.10720  0.62130  Biso   1.000  H
  H54      1.0000 0.70930  0.89280  0.62130  Biso   1.000  H
  H55      1.0000 0.95930  0.35720  0.87130  Biso   1.000  H
  H56      1.0000 0.54070  0.14280  0.87130  Biso   1.000  H
  H57      1.0000 0.79070  0.60720  0.62130  Biso   1.000  H
  H58      1.0000 0.20930  0.39280  0.62130  Biso   1.000  H
  H59      1.0000 0.45930  0.85720  0.87130  Biso   1.000  H
  H60      1.0000 0.04070  0.64280  0.87130  Biso   1.000  H
  H61      1.0000 0.79070  0.10720  0.12130  Biso   1.000  H
  H62      1.0000 0.20930  0.89280  0.12130  Biso   1.000  H
  H63      1.0000 0.45930  0.35720  0.37130  Biso   1.000  H
  H64      1.0000 0.04070  0.14280  0.37130  Biso   1.000  H
  C81      1.0000 0.20060  0.52690  0.96410  Biso   1.000  C
  C82      1.0000 0.79940  0.47310  0.96410  Biso   1.000  C
  C83      1.0000 0.04940  0.77690  0.21410  Biso   1.000  C
  C84      1.0000 0.45060  0.72310  0.21410  Biso   1.000  C
  C85      1.0000 0.20060  0.02690  0.46410  Biso   1.000  C
  C86      1.0000 0.79940  0.97310  0.46410  Biso   1.000  C
  C87      1.0000 0.04940  0.27690  0.71410  Biso   1.000  C
  C88      1.0000 0.45060  0.22310  0.71410  Biso   1.000  C
  C89      1.0000 0.70060  0.52690  0.46410  Biso   1.000  C
  C90      1.0000 0.29940  0.47310  0.46410  Biso   1.000  C
  C91      1.0000 0.54940  0.77690  0.71410  Biso   1.000  C
  C92      1.0000 0.95060  0.72310  0.71410  Biso   1.000  C
  C93      1.0000 0.70060  0.02690  0.96410  Biso   1.000  C
  C94      1.0000 0.29940  0.97310  0.96410  Biso   1.000  C
  C95      1.0000 0.54940  0.27690  0.21410  Biso   1.000  C
  C96      1.0000 0.95060  0.22310  0.21410  Biso   1.000  C
  C97      1.0000 0.13700  0.47450  0.96180  Biso   1.000  C
  C98      1.0000 0.86300  0.52550  0.96180  Biso   1.000  C
  C99      1.0000 0.11300  0.72450  0.21180  Biso   1.000  C
  C100     1.0000 0.38700  0.77550  0.21180  Biso   1.000  C
  C101     1.0000 0.13700  0.97450  0.46180  Biso   1.000  C
  C102     1.0000 0.86300  0.02550  0.46180  Biso   1.000  C
  C103     1.0000 0.11300  0.22450  0.71180  Biso   1.000  C
  C104     1.0000 0.38700  0.27550  0.71180  Biso   1.000  C
  C105     1.0000 0.63700  0.47450  0.46180  Biso   1.000  C
  C106     1.0000 0.36300  0.52550  0.46180  Biso   1.000  C
  C107     1.0000 0.61300  0.72450  0.71180  Biso   1.000  C
  C108     1.0000 0.88700  0.77550  0.71180  Biso   1.000  C
  C109     1.0000 0.63700  0.97450  0.96180  Biso   1.000  C
  C110     1.0000 0.36300  0.02550  0.96180  Biso   1.000  C
  C111     1.0000 0.61300  0.22450  0.21180  Biso   1.000  C
  C112     1.0000 0.88700  0.27550  0.21180  Biso   1.000  C
  C113     1.0000 0.09530  0.43080  0.98370  Biso   1.000  C
  C114     1.0000 0.90470  0.56920  0.98370  Biso   1.000  C
  C115     1.0000 0.15470  0.68080  0.23370  Biso   1.000  C
  C116     1.0000 0.34530  0.81920  0.23370  Biso   1.000  C
  C117     1.0000 0.09530  0.93080  0.48370  Biso   1.000  C
  C118     1.0000 0.90470  0.06920  0.48370  Biso   1.000  C
  C119     1.0000 0.15470  0.18080  0.73370  Biso   1.000  C
  C120     1.0000 0.34530  0.31920  0.73370  Biso   1.000  C
  C121     1.0000 0.59530  0.43080  0.48370  Biso   1.000  C
  C122     1.0000 0.40470  0.56920  0.48370  Biso   1.000  C
  C123     1.0000 0.65470  0.68080  0.73370  Biso   1.000  C
  C124     1.0000 0.84530  0.81920  0.73370  Biso   1.000  C
  C125     1.0000 0.59530  0.93080  0.98370  Biso   1.000  C
  C126     1.0000 0.40470  0.06920  0.98370  Biso   1.000  C
  C127     1.0000 0.65470  0.18080  0.23370  Biso   1.000  C
  C128     1.0000 0.84530  0.31920  0.23370  Biso   1.000  C
  C129     1.0000 0.08340  0.45340  0.04630  Biso   1.000  C
  C130     1.0000 0.91660  0.54660  0.04630  Biso   1.000  C
  C131     1.0000 0.16660  0.70340  0.29630  Biso   1.000  C
  C132     1.0000 0.33340  0.79660  0.29630  Biso   1.000  C
  C133     1.0000 0.08340  0.95340  0.54630  Biso   1.000  C
  C134     1.0000 0.91660  0.04660  0.54630  Biso   1.000  C
  C135     1.0000 0.16660  0.20340  0.79630  Biso   1.000  C
  C136     1.0000 0.33340  0.29660  0.79630  Biso   1.000  C
  C137     1.0000 0.58340  0.45340  0.54630  Biso   1.000  C
  C138     1.0000 0.41660  0.54660  0.54630  Biso   1.000  C
  C139     1.0000 0.66660  0.70340  0.79630  Biso   1.000  C
  C140     1.0000 0.83340  0.79660  0.79630  Biso   1.000  C
  C141     1.0000 0.58340  0.95340  0.04630  Biso   1.000  C
  C142     1.0000 0.41660  0.04660  0.04630  Biso   1.000  C
  C143     1.0000 0.66660  0.20340  0.29630  Biso   1.000  C
  C144     1.0000 0.83340  0.29660  0.29630  Biso   1.000  C
  H65      1.0000 0.10060  0.50280  0.07320  Biso   1.000  H
  H66      1.0000 0.89940  0.49720  0.07320  Biso   1.000  H
  H67      1.0000 0.14940  0.75280  0.32320  Biso   1.000  H
  H68      1.0000 0.35060  0.74720  0.32320  Biso   1.000  H
  H69      1.0000 0.10060  0.00280  0.57320  Biso   1.000  H
  H70      1.0000 0.89940  0.99720  0.57320  Biso   1.000  H
  H71      1.0000 0.14940  0.25280  0.82320  Biso   1.000  H
  H72      1.0000 0.35060  0.24720  0.82320  Biso   1.000  H
  H73      1.0000 0.60060  0.50280  0.57320  Biso   1.000  H
  H74      1.0000 0.39940  0.49720  0.57320  Biso   1.000  H
  H75      1.0000 0.64940  0.75280  0.82320  Biso   1.000  H
  H76      1.0000 0.85060  0.74720  0.82320  Biso   1.000  H
  H77      1.0000 0.60060  0.00280  0.07320  Biso   1.000  H
  H78      1.0000 0.39940  0.99720  0.07320  Biso   1.000  H
  H79      1.0000 0.64940  0.25280  0.32320  Biso   1.000  H
  H80      1.0000 0.85060  0.24720  0.32320  Biso   1.000  H
  C145     1.0000 0.04570  0.40170  0.06860  Biso   1.000  C
  C146     1.0000 0.95430  0.59830  0.06860  Biso   1.000  C
  C147     1.0000 0.20430  0.65170  0.31860  Biso   1.000  C
  C148     1.0000 0.29570  0.84830  0.31860  Biso   1.000  C
  C149     1.0000 0.04570  0.90170  0.56860  Biso   1.000  C
  C150     1.0000 0.95430  0.09830  0.56860  Biso   1.000  C
  C151     1.0000 0.20430  0.15170  0.81860  Biso   1.000  C
  C152     1.0000 0.29570  0.34830  0.81860  Biso   1.000  C
  C153     1.0000 0.54570  0.40170  0.56860  Biso   1.000  C
  C154     1.0000 0.45430  0.59830  0.56860  Biso   1.000  C
  C155     1.0000 0.70430  0.65170  0.81860  Biso   1.000  C
  C156     1.0000 0.79570  0.84830  0.81860  Biso   1.000  C
  C157     1.0000 0.54570  0.90170  0.06860  Biso   1.000  C
  C158     1.0000 0.45430  0.09830  0.06860  Biso   1.000  C
  C159     1.0000 0.70430  0.15170  0.31860  Biso   1.000  C
  C160     1.0000 0.79570  0.34830  0.31860  Biso   1.000  C
  H81      1.0000 0.03780  0.41820  0.11100  Biso   1.000  H
  H82      1.0000 0.96220  0.58180  0.11100  Biso   1.000  H
  H83      1.0000 0.21220  0.66820  0.36100  Biso   1.000  H
  H84      1.0000 0.28780  0.83180  0.36100  Biso   1.000  H
  H85      1.0000 0.03780  0.91820  0.61100  Biso   1.000  H
  H86      1.0000 0.96220  0.08180  0.61100  Biso   1.000  H
  H87      1.0000 0.21220  0.16820  0.86100  Biso   1.000  H
  H88      1.0000 0.28780  0.33180  0.86100  Biso   1.000  H
  H89      1.0000 0.53780  0.41820  0.61100  Biso   1.000  H
  H90      1.0000 0.46220  0.58180  0.61100  Biso   1.000  H
  H91      1.0000 0.71220  0.66820  0.86100  Biso   1.000  H
  H92      1.0000 0.78780  0.83180  0.86100  Biso   1.000  H
  H93      1.0000 0.53780  0.91820  0.11100  Biso   1.000  H
  H94      1.0000 0.46220  0.08180  0.11100  Biso   1.000  H
  H95      1.0000 0.71220  0.16820  0.36100  Biso   1.000  H
  H96      1.0000 0.78780  0.33180  0.36100  Biso   1.000  H
  C161     1.0000 0.03110  0.31370  0.97350  Biso   1.000  C
  C162     1.0000 0.96890  0.68630  0.97350  Biso   1.000  C
  C163     1.0000 0.21890  0.56370  0.22350  Biso   1.000  C
  C164     1.0000 0.28110  0.93630  0.22350  Biso   1.000  C
  C165     1.0000 0.03110  0.81370  0.47350  Biso   1.000  C
  C166     1.0000 0.96890  0.18630  0.47350  Biso   1.000  C
  C167     1.0000 0.21890  0.06370  0.72350  Biso   1.000  C
  C168     1.0000 0.28110  0.43630  0.72350  Biso   1.000  C
  C169     1.0000 0.53110  0.31370  0.47350  Biso   1.000  C
  C170     1.0000 0.46890  0.68630  0.47350  Biso   1.000  C
  C171     1.0000 0.71890  0.56370  0.72350  Biso   1.000  C
  C172     1.0000 0.78110  0.93630  0.72350  Biso   1.000  C
  C173     1.0000 0.53110  0.81370  0.97350  Biso   1.000  C
  C174     1.0000 0.46890  0.18630  0.97350  Biso   1.000  C
  C175     1.0000 0.71890  0.06370  0.22350  Biso   1.000  C
  C176     1.0000 0.78110  0.43630  0.22350  Biso   1.000  C
  H97      1.0000 0.01330  0.26430  0.94760  Biso   1.000  H
  H98      1.0000 0.98670  0.73570  0.94760  Biso   1.000  H
  H99      1.0000 0.23670  0.51430  0.19760  Biso   1.000  H
  H100     1.0000 0.26330  0.98570  0.19760  Biso   1.000  H
  H101     1.0000 0.01330  0.76430  0.44760  Biso   1.000  H
  H102     1.0000 0.98670  0.23570  0.44760  Biso   1.000  H
  H103     1.0000 0.23670  0.01430  0.69760  Biso   1.000  H
  H104     1.0000 0.26330  0.48570  0.69760  Biso   1.000  H
  H105     1.0000 0.51330  0.26430  0.44760  Biso   1.000  H
  H106     1.0000 0.48670  0.73570  0.44760  Biso   1.000  H
  H107     1.0000 0.73670  0.51430  0.69760  Biso   1.000  H
  H108     1.0000 0.76330  0.98570  0.69760  Biso   1.000  H
  H109     1.0000 0.51330  0.76430  0.94760  Biso   1.000  H
  H110     1.0000 0.48670  0.23570  0.94760  Biso   1.000  H
  H111     1.0000 0.73670  0.01430  0.19760  Biso   1.000  H
  H112     1.0000 0.76330  0.48570  0.19760  Biso   1.000  H
  C177     1.0000 0.06740  0.36470  0.94640  Biso   1.000  C
  C178     1.0000 0.93260  0.63530  0.94640  Biso   1.000  C
  C179     1.0000 0.18260  0.61470  0.19640  Biso   1.000  C
  C180     1.0000 0.31740  0.88530  0.19640  Biso   1.000  C
  C181     1.0000 0.06740  0.86470  0.44640  Biso   1.000  C
  C182     1.0000 0.93260  0.13530  0.44640  Biso   1.000  C
  C183     1.0000 0.18260  0.11470  0.69640  Biso   1.000  C
  C184     1.0000 0.31740  0.38530  0.69640  Biso   1.000  C
  C185     1.0000 0.56740  0.36470  0.44640  Biso   1.000  C
  C186     1.0000 0.43260  0.63530  0.44640  Biso   1.000  C
  C187     1.0000 0.68260  0.61470  0.69640  Biso   1.000  C
  C188     1.0000 0.81740  0.88530  0.69640  Biso   1.000  C
  C189     1.0000 0.56740  0.86470  0.94640  Biso   1.000  C
  C190     1.0000 0.43260  0.13530  0.94640  Biso   1.000  C
  C191     1.0000 0.68260  0.11470  0.19640  Biso   1.000  C
  C192     1.0000 0.81740  0.38530  0.19640  Biso   1.000  C
  H113     1.0000 0.07290  0.35400  0.90270  Biso   1.000  H
  H114     1.0000 0.92710  0.64600  0.90270  Biso   1.000  H
  H115     1.0000 0.17710  0.60400  0.15270  Biso   1.000  H
  H116     1.0000 0.32290  0.89600  0.15270  Biso   1.000  H
  H117     1.0000 0.07290  0.85400  0.40270  Biso   1.000  H
  H118     1.0000 0.92710  0.14600  0.40270  Biso   1.000  H
  H119     1.0000 0.17710  0.10400  0.65270  Biso   1.000  H
  H120     1.0000 0.32290  0.39600  0.65270  Biso   1.000  H
  H121     1.0000 0.57290  0.35400  0.40270  Biso   1.000  H
  H122     1.0000 0.42710  0.64600  0.40270  Biso   1.000  H
  H123     1.0000 0.67710  0.60400  0.65270  Biso   1.000  H
  H124     1.0000 0.82290  0.89600  0.65270  Biso   1.000  H
  H125     1.0000 0.57290  0.85400  0.90270  Biso   1.000  H
  H126     1.0000 0.42710  0.14600  0.90270  Biso   1.000  H
  H127     1.0000 0.67710  0.10400  0.15270  Biso   1.000  H
  H128     1.0000 0.82290  0.39600  0.15270  Biso   1.000  H
  C193     1.0000 0.14170  0.83710  0.80540  Biso   1.000  C
  C194     1.0000 0.85830  0.16290  0.80540  Biso   1.000  C
  C195     1.0000 0.10830  0.08710  0.05540  Biso   1.000  C
  C196     1.0000 0.39170  0.41290  0.05540  Biso   1.000  C
  C197     1.0000 0.14170  0.33710  0.30540  Biso   1.000  C
  C198     1.0000 0.85830  0.66290  0.30540  Biso   1.000  C
  C199     1.0000 0.10830  0.58710  0.55540  Biso   1.000  C
  C200     1.0000 0.39170  0.91290  0.55540  Biso   1.000  C
  C201     1.0000 0.64170  0.83710  0.30540  Biso   1.000  C
  C202     1.0000 0.35830  0.16290  0.30540  Biso   1.000  C
  C203     1.0000 0.60830  0.08710  0.55540  Biso   1.000  C
  C204     1.0000 0.89170  0.41290  0.55540  Biso   1.000  C
  C205     1.0000 0.64170  0.33710  0.80540  Biso   1.000  C
  C206     1.0000 0.35830  0.66290  0.80540  Biso   1.000  C
  C207     1.0000 0.60830  0.58710  0.05540  Biso   1.000  C
  C208     1.0000 0.89170  0.91290  0.05540  Biso   1.000  C
  H129     1.0000 0.16350  0.80620  0.83170  Biso   1.000  H
  H130     1.0000 0.83650  0.19380  0.83170  Biso   1.000  H
  H131     1.0000 0.08650  0.05620  0.08170  Biso   1.000  H
  H132     1.0000 0.41350  0.44380  0.08170  Biso   1.000  H
  H133     1.0000 0.16350  0.30620  0.33170  Biso   1.000  H
  H134     1.0000 0.83650  0.69380  0.33170  Biso   1.000  H
  H135     1.0000 0.08650  0.55620  0.58170  Biso   1.000  H
  H136     1.0000 0.41350  0.94380  0.58170  Biso   1.000  H
  H137     1.0000 0.66350  0.80620  0.33170  Biso   1.000  H
  H138     1.0000 0.33650  0.19380  0.33170  Biso   1.000  H
  H139     1.0000 0.58650  0.05620  0.58170  Biso   1.000  H
  H140     1.0000 0.91350  0.44380  0.58170  Biso   1.000  H
  H141     1.0000 0.66350  0.30620  0.83170  Biso   1.000  H
  H142     1.0000 0.33650  0.69380  0.83170  Biso   1.000  H
  H143     1.0000 0.58650  0.55620  0.08170  Biso   1.000  H
  H144     1.0000 0.91350  0.94380  0.08170  Biso   1.000  H
  C209     1.0000 0.10550  0.88700  0.83380  Biso   1.000  C
  C210     1.0000 0.89450  0.11300  0.83380  Biso   1.000  C
  C211     1.0000 0.14450  0.13700  0.08380  Biso   1.000  C
  C212     1.0000 0.35550  0.36300  0.08380  Biso   1.000  C
  C213     1.0000 0.10550  0.38700  0.33380  Biso   1.000  C
  C214     1.0000 0.89450  0.61300  0.33380  Biso   1.000  C
  C215     1.0000 0.14450  0.63700  0.58380  Biso   1.000  C
  C216     1.0000 0.35550  0.86300  0.58380  Biso   1.000  C
  C217     1.0000 0.60550  0.88700  0.33380  Biso   1.000  C
  C218     1.0000 0.39450  0.11300  0.33380  Biso   1.000  C
  C219     1.0000 0.64450  0.13700  0.58380  Biso   1.000  C
  C220     1.0000 0.85550  0.36300  0.58380  Biso   1.000  C
  C221     1.0000 0.60550  0.38700  0.83380  Biso   1.000  C
  C222     1.0000 0.39450  0.61300  0.83380  Biso   1.000  C
  C223     1.0000 0.64450  0.63700  0.08380  Biso   1.000  C
  C224     1.0000 0.85550  0.86300  0.08380  Biso   1.000  C
  H145     1.0000 0.10310  0.89060  0.87840  Biso   1.000  H
  H146     1.0000 0.89690  0.10940  0.87840  Biso   1.000  H
  H147     1.0000 0.14690  0.14060  0.12840  Biso   1.000  H
  H148     1.0000 0.35310  0.35940  0.12840  Biso   1.000  H
  H149     1.0000 0.10310  0.39060  0.37840  Biso   1.000  H
  H150     1.0000 0.89690  0.60940  0.37840  Biso   1.000  H
  H151     1.0000 0.14690  0.64060  0.62840  Biso   1.000  H
  H152     1.0000 0.35310  0.85940  0.62840  Biso   1.000  H
  H153     1.0000 0.60310  0.89060  0.37840  Biso   1.000  H
  H154     1.0000 0.39690  0.10940  0.37840  Biso   1.000  H
  H155     1.0000 0.64690  0.14060  0.62840  Biso   1.000  H
  H156     1.0000 0.85310  0.35940  0.62840  Biso   1.000  H
  H157     1.0000 0.60310  0.39060  0.87840  Biso   1.000  H
  H158     1.0000 0.39690  0.60940  0.87840  Biso   1.000  H
  H159     1.0000 0.64690  0.64060  0.12840  Biso   1.000  H
  H160     1.0000 0.85310  0.85940  0.12840  Biso   1.000  H
  C225     1.0000 0.07290  0.93190  0.79490  Biso   1.000  C
  C226     1.0000 0.92710  0.06810  0.79490  Biso   1.000  C
  C227     1.0000 0.17710  0.18190  0.04490  Biso   1.000  C
  C228     1.0000 0.32290  0.31810  0.04490  Biso   1.000  C
  C229     1.0000 0.07290  0.43190  0.29490  Biso   1.000  C
  C230     1.0000 0.92710  0.56810  0.29490  Biso   1.000  C
  C231     1.0000 0.17710  0.68190  0.54490  Biso   1.000  C
  C232     1.0000 0.32290  0.81810  0.54490  Biso   1.000  C
  C233     1.0000 0.57290  0.93190  0.29490  Biso   1.000  C
  C234     1.0000 0.42710  0.06810  0.29490  Biso   1.000  C
  C235     1.0000 0.67710  0.18190  0.54490  Biso   1.000  C
  C236     1.0000 0.82290  0.31810  0.54490  Biso   1.000  C
  C237     1.0000 0.57290  0.43190  0.79490  Biso   1.000  C
  C238     1.0000 0.42710  0.56810  0.79490  Biso   1.000  C
  C239     1.0000 0.67710  0.68190  0.04490  Biso   1.000  C
  C240     1.0000 0.82290  0.81810  0.04490  Biso   1.000  C
  C241     1.0000 0.03190  0.97580  0.81900  Biso   1.000  C
  C242     1.0000 0.96810  0.02420  0.81900  Biso   1.000  C
  C243     1.0000 0.21810  0.22580  0.06900  Biso   1.000  C
  C244     1.0000 0.28190  0.27420  0.06900  Biso   1.000  C
  C245     1.0000 0.03190  0.47580  0.31900  Biso   1.000  C
  C246     1.0000 0.96810  0.52420  0.31900  Biso   1.000  C
  C247     1.0000 0.21810  0.72580  0.56900  Biso   1.000  C
  C248     1.0000 0.28190  0.77420  0.56900  Biso   1.000  C
  C249     1.0000 0.53190  0.97580  0.31900  Biso   1.000  C
  C250     1.0000 0.46810  0.02420  0.31900  Biso   1.000  C
  C251     1.0000 0.71810  0.22580  0.56900  Biso   1.000  C
  C252     1.0000 0.78190  0.27420  0.56900  Biso   1.000  C
  C253     1.0000 0.53190  0.47580  0.81900  Biso   1.000  C
  C254     1.0000 0.46810  0.52420  0.81900  Biso   1.000  C
  C255     1.0000 0.71810  0.72580  0.06900  Biso   1.000  C
  C256     1.0000 0.78190  0.77420  0.06900  Biso   1.000  C
  C257     1.0000 0.08090  0.93310  0.73020  Biso   1.000  C
  C258     1.0000 0.91910  0.06690  0.73020  Biso   1.000  C
  C259     1.0000 0.16910  0.18310  0.98020  Biso   1.000  C
  C260     1.0000 0.33090  0.31690  0.98020  Biso   1.000  C
  C261     1.0000 0.08090  0.43310  0.23020  Biso   1.000  C
  C262     1.0000 0.91910  0.56690  0.23020  Biso   1.000  C
  C263     1.0000 0.16910  0.68310  0.48020  Biso   1.000  C
  C264     1.0000 0.33090  0.81690  0.48020  Biso   1.000  C
  C265     1.0000 0.58090  0.93310  0.23020  Biso   1.000  C
  C266     1.0000 0.41910  0.06690  0.23020  Biso   1.000  C
  C267     1.0000 0.66910  0.18310  0.48020  Biso   1.000  C
  C268     1.0000 0.83090  0.31690  0.48020  Biso   1.000  C
  C269     1.0000 0.58090  0.43310  0.73020  Biso   1.000  C
  C270     1.0000 0.41910  0.56690  0.73020  Biso   1.000  C
  C271     1.0000 0.66910  0.68310  0.98020  Biso   1.000  C
  C272     1.0000 0.83090  0.81690  0.98020  Biso   1.000  C
  H161     1.0000 0.06160  0.97200  0.70210  Biso   1.000  H
  H162     1.0000 0.93840  0.02800  0.70210  Biso   1.000  H
  H163     1.0000 0.18840  0.22200  0.95210  Biso   1.000  H
  H164     1.0000 0.31160  0.27800  0.95210  Biso   1.000  H
  H165     1.0000 0.06160  0.47200  0.20210  Biso   1.000  H
  H166     1.0000 0.93840  0.52800  0.20210  Biso   1.000  H
  H167     1.0000 0.18840  0.72200  0.45210  Biso   1.000  H
  H168     1.0000 0.31160  0.77800  0.45210  Biso   1.000  H
  H169     1.0000 0.56160  0.97200  0.20210  Biso   1.000  H
  H170     1.0000 0.43840  0.02800  0.20210  Biso   1.000  H
  H171     1.0000 0.68840  0.22200  0.45210  Biso   1.000  H
  H172     1.0000 0.81160  0.27800  0.45210  Biso   1.000  H
  H173     1.0000 0.56160  0.47200  0.70210  Biso   1.000  H
  H174     1.0000 0.43840  0.52800  0.70210  Biso   1.000  H
  H175     1.0000 0.68840  0.72200  0.95210  Biso   1.000  H
  H176     1.0000 0.81160  0.77800  0.95210  Biso   1.000  H
  C273     1.0000 0.11630  0.87820  0.70770  Biso   1.000  C
  C274     1.0000 0.88370  0.12180  0.70770  Biso   1.000  C
  C275     1.0000 0.13370  0.12820  0.95770  Biso   1.000  C
  C276     1.0000 0.36630  0.37180  0.95770  Biso   1.000  C
  C277     1.0000 0.11630  0.37820  0.20770  Biso   1.000  C
  C278     1.0000 0.88370  0.62180  0.20770  Biso   1.000  C
  C279     1.0000 0.13370  0.62820  0.45770  Biso   1.000  C
  C280     1.0000 0.36630  0.87180  0.45770  Biso   1.000  C
  C281     1.0000 0.61630  0.87820  0.20770  Biso   1.000  C
  C282     1.0000 0.38370  0.12180  0.20770  Biso   1.000  C
  C283     1.0000 0.63370  0.12820  0.45770  Biso   1.000  C
  C284     1.0000 0.86630  0.37180  0.45770  Biso   1.000  C
  C285     1.0000 0.61630  0.37820  0.70770  Biso   1.000  C
  C286     1.0000 0.38370  0.62180  0.70770  Biso   1.000  C
  C287     1.0000 0.63370  0.62820  0.95770  Biso   1.000  C
  C288     1.0000 0.86630  0.87180  0.95770  Biso   1.000  C
  H177     1.0000 0.11960  0.87320  0.66320  Biso   1.000  H
  H178     1.0000 0.88040  0.12680  0.66320  Biso   1.000  H
  H179     1.0000 0.13040  0.12320  0.91320  Biso   1.000  H
  H180     1.0000 0.36960  0.37680  0.91320  Biso   1.000  H
  H181     1.0000 0.11960  0.37320  0.16320  Biso   1.000  H
  H182     1.0000 0.88040  0.62680  0.16320  Biso   1.000  H
  H183     1.0000 0.13040  0.62320  0.41320  Biso   1.000  H
  H184     1.0000 0.36960  0.87680  0.41320  Biso   1.000  H
  H185     1.0000 0.61960  0.87320  0.16320  Biso   1.000  H
  H186     1.0000 0.38040  0.12680  0.16320  Biso   1.000  H
  H187     1.0000 0.63040  0.12320  0.41320  Biso   1.000  H
  H188     1.0000 0.86960  0.37680  0.41320  Biso   1.000  H
  H189     1.0000 0.61960  0.37320  0.66320  Biso   1.000  H
  H190     1.0000 0.38040  0.62680  0.66320  Biso   1.000  H
  H191     1.0000 0.63040  0.62320  0.91320  Biso   1.000  H
  H192     1.0000 0.86960  0.87680  0.91320  Biso   1.000  H
