data_image0
_cell_length_a       23.637
_cell_length_b       23.637
_cell_length_c       23.637
_cell_angle_alpha    90
_cell_angle_beta     90
_cell_angle_gamma    90

_symmetry_space_group_name_H-M    "P 1"
_symmetry_int_tables_number       1

loop_
  _symmetry_equiv_pos_as_xyz
  'x, y, z'

loop_
  _atom_site_label
  _atom_site_occupancy
  _atom_site_fract_x
  _atom_site_fract_y
  _atom_site_fract_z
  _atom_site_thermal_displace_type
  _atom_site_B_iso_or_equiv
  _atom_site_type_symbol
  I1       1.0000 0.99315  0.08561  0.78153  Biso   1.000  I
  I2       1.0000 0.49315  0.58561  0.28153  Biso   1.000  I
  I3       1.0000 0.78153  0.99315  0.08561  Biso   1.000  I
  I4       1.0000 0.08561  0.78153  0.99315  Biso   1.000  I
  I5       1.0000 0.28153  0.49315  0.58561  Biso   1.000  I
  I6       1.0000 0.58561  0.28153  0.49315  Biso   1.000  I
  I7       1.0000 0.49315  0.41439  0.21847  Biso   1.000  I
  I8       1.0000 0.99315  0.91439  0.71847  Biso   1.000  I
  I9       1.0000 0.28153  0.50685  0.91439  Biso   1.000  I
  I10      1.0000 0.58561  0.71847  0.00685  Biso   1.000  I
  I11      1.0000 0.78153  0.00685  0.41439  Biso   1.000  I
  I12      1.0000 0.08561  0.21847  0.50685  Biso   1.000  I
  I13      1.0000 0.00685  0.58561  0.71847  Biso   1.000  I
  I14      1.0000 0.50685  0.08561  0.21847  Biso   1.000  I
  I15      1.0000 0.21847  0.49315  0.41439  Biso   1.000  I
  I16      1.0000 0.91439  0.28153  0.50685  Biso   1.000  I
  I17      1.0000 0.71847  0.99315  0.91439  Biso   1.000  I
  I18      1.0000 0.41439  0.78153  0.00685  Biso   1.000  I
  I19      1.0000 0.50685  0.91439  0.28153  Biso   1.000  I
  I20      1.0000 0.00685  0.41439  0.78153  Biso   1.000  I
  I21      1.0000 0.71847  0.00685  0.58561  Biso   1.000  I
  I22      1.0000 0.41439  0.21847  0.49315  Biso   1.000  I
  I23      1.0000 0.21847  0.50685  0.08561  Biso   1.000  I
  I24      1.0000 0.91439  0.71847  0.99315  Biso   1.000  I
  I25      1.0000 0.33561  0.24315  0.03153  Biso   1.000  I
  I26      1.0000 0.83561  0.74315  0.53153  Biso   1.000  I
  I27      1.0000 0.24315  0.03153  0.33561  Biso   1.000  I
  I28      1.0000 0.03153  0.33561  0.24315  Biso   1.000  I
  I29      1.0000 0.74315  0.53153  0.83561  Biso   1.000  I
  I30      1.0000 0.53153  0.83561  0.74315  Biso   1.000  I
  I31      1.0000 0.66439  0.74315  0.46847  Biso   1.000  I
  I32      1.0000 0.16439  0.24315  0.96847  Biso   1.000  I
  I33      1.0000 0.75685  0.53153  0.16439  Biso   1.000  I
  I34      1.0000 0.96847  0.83561  0.25685  Biso   1.000  I
  I35      1.0000 0.25685  0.03153  0.66439  Biso   1.000  I
  I36      1.0000 0.46847  0.33561  0.75685  Biso   1.000  I
  I37      1.0000 0.83561  0.25685  0.96847  Biso   1.000  I
  I38      1.0000 0.33561  0.75685  0.46847  Biso   1.000  I
  I39      1.0000 0.74315  0.46847  0.66439  Biso   1.000  I
  I40      1.0000 0.53153  0.16439  0.75685  Biso   1.000  I
  I41      1.0000 0.24315  0.96847  0.16439  Biso   1.000  I
  I42      1.0000 0.03153  0.66439  0.25685  Biso   1.000  I
  I43      1.0000 0.16439  0.75685  0.53153  Biso   1.000  I
  I44      1.0000 0.66439  0.25685  0.03153  Biso   1.000  I
  I45      1.0000 0.25685  0.96847  0.83561  Biso   1.000  I
  I46      1.0000 0.46847  0.66439  0.74315  Biso   1.000  I
  I47      1.0000 0.75685  0.46847  0.33561  Biso   1.000  I
  I48      1.0000 0.96847  0.16439  0.24315  Biso   1.000  I
  Cu1      1.0000 0.97476  0.98077  0.80449  Biso   1.000  Cu
  Cu2      1.0000 0.47476  0.48077  0.30449  Biso   1.000  Cu
  Cu3      1.0000 0.80449  0.97476  0.98077  Biso   1.000  Cu
  Cu4      1.0000 0.98077  0.80449  0.97476  Biso   1.000  Cu
  Cu5      1.0000 0.30449  0.47476  0.48077  Biso   1.000  Cu
  Cu6      1.0000 0.48077  0.30449  0.47476  Biso   1.000  Cu
  Cu7      1.0000 0.47476  0.51923  0.19551  Biso   1.000  Cu
  Cu8      1.0000 0.97476  0.01923  0.69551  Biso   1.000  Cu
  Cu9      1.0000 0.30449  0.52524  0.01923  Biso   1.000  Cu
  Cu10     1.0000 0.48077  0.69551  0.02524  Biso   1.000  Cu
  Cu11     1.0000 0.80449  0.02524  0.51923  Biso   1.000  Cu
  Cu12     1.0000 0.98077  0.19551  0.52524  Biso   1.000  Cu
  Cu13     1.0000 0.02524  0.48077  0.69551  Biso   1.000  Cu
  Cu14     1.0000 0.52524  0.98077  0.19551  Biso   1.000  Cu
  Cu15     1.0000 0.19551  0.47476  0.51923  Biso   1.000  Cu
  Cu16     1.0000 0.01923  0.30449  0.52524  Biso   1.000  Cu
  Cu17     1.0000 0.69551  0.97476  0.01923  Biso   1.000  Cu
  Cu18     1.0000 0.51923  0.80449  0.02524  Biso   1.000  Cu
  Cu19     1.0000 0.52524  0.01923  0.30449  Biso   1.000  Cu
  Cu20     1.0000 0.02524  0.51923  0.80449  Biso   1.000  Cu
  Cu21     1.0000 0.69551  0.02524  0.48077  Biso   1.000  Cu
  Cu22     1.0000 0.51923  0.19551  0.47476  Biso   1.000  Cu
  Cu23     1.0000 0.19551  0.52524  0.98077  Biso   1.000  Cu
  Cu24     1.0000 0.01923  0.69551  0.97476  Biso   1.000  Cu
  Cu25     1.0000 0.23077  0.22476  0.05449  Biso   1.000  Cu
  Cu26     1.0000 0.73077  0.72476  0.55449  Biso   1.000  Cu
  Cu27     1.0000 0.22476  0.05449  0.23077  Biso   1.000  Cu
  Cu28     1.0000 0.05449  0.23077  0.22476  Biso   1.000  Cu
  Cu29     1.0000 0.72476  0.55449  0.73077  Biso   1.000  Cu
  Cu30     1.0000 0.55449  0.73077  0.72476  Biso   1.000  Cu
  Cu31     1.0000 0.76923  0.72476  0.44551  Biso   1.000  Cu
  Cu32     1.0000 0.26923  0.22476  0.94551  Biso   1.000  Cu
  Cu33     1.0000 0.77524  0.55449  0.26923  Biso   1.000  Cu
  Cu34     1.0000 0.94551  0.73077  0.27524  Biso   1.000  Cu
  Cu35     1.0000 0.27524  0.05449  0.76923  Biso   1.000  Cu
  Cu36     1.0000 0.44551  0.23077  0.77524  Biso   1.000  Cu
  Cu37     1.0000 0.73077  0.27524  0.94551  Biso   1.000  Cu
  Cu38     1.0000 0.23077  0.77524  0.44551  Biso   1.000  Cu
  Cu39     1.0000 0.72476  0.44551  0.76923  Biso   1.000  Cu
  Cu40     1.0000 0.55449  0.26923  0.77524  Biso   1.000  Cu
  Cu41     1.0000 0.22476  0.94551  0.26923  Biso   1.000  Cu
  Cu42     1.0000 0.05449  0.76923  0.27524  Biso   1.000  Cu
  Cu43     1.0000 0.26923  0.77524  0.55449  Biso   1.000  Cu
  Cu44     1.0000 0.76923  0.27524  0.05449  Biso   1.000  Cu
  Cu45     1.0000 0.27524  0.94551  0.73077  Biso   1.000  Cu
  Cu46     1.0000 0.44551  0.76923  0.72476  Biso   1.000  Cu
  Cu47     1.0000 0.77524  0.44551  0.23077  Biso   1.000  Cu
  Cu48     1.0000 0.94551  0.26923  0.22476  Biso   1.000  Cu
  Co1      1.0000 0.92253  0.92253  0.92253  Biso   1.000  Co
  Co2      1.0000 0.42253  0.42253  0.42253  Biso   1.000  Co
  Co3      1.0000 0.42253  0.57747  0.07747  Biso   1.000  Co
  Co4      1.0000 0.92253  0.07747  0.57747  Biso   1.000  Co
  Co5      1.0000 0.07747  0.42253  0.57747  Biso   1.000  Co
  Co6      1.0000 0.57747  0.92253  0.07747  Biso   1.000  Co
  Co7      1.0000 0.57747  0.07747  0.42253  Biso   1.000  Co
  Co8      1.0000 0.07747  0.57747  0.92253  Biso   1.000  Co
  Co9      1.0000 0.17253  0.17253  0.17253  Biso   1.000  Co
  Co10     1.0000 0.67253  0.67253  0.67253  Biso   1.000  Co
  Co11     1.0000 0.82747  0.67253  0.32747  Biso   1.000  Co
  Co12     1.0000 0.32747  0.17253  0.82747  Biso   1.000  Co
  Co13     1.0000 0.67253  0.32747  0.82747  Biso   1.000  Co
  Co14     1.0000 0.17253  0.82747  0.32747  Biso   1.000  Co
  Co15     1.0000 0.32747  0.82747  0.67253  Biso   1.000  Co
  Co16     1.0000 0.82747  0.32747  0.17253  Biso   1.000  Co
  S1       1.0000 0.88230  0.95610  0.84250  Biso   1.000  S
  S2       1.0000 0.38230  0.45610  0.34250  Biso   1.000  S
  S3       1.0000 0.84250  0.88230  0.95610  Biso   1.000  S
  S4       1.0000 0.95610  0.84250  0.88230  Biso   1.000  S
  S5       1.0000 0.34250  0.38230  0.45610  Biso   1.000  S
  S6       1.0000 0.45610  0.34250  0.38230  Biso   1.000  S
  S7       1.0000 0.38230  0.54390  0.15750  Biso   1.000  S
  S8       1.0000 0.88230  0.04390  0.65750  Biso   1.000  S
  S9       1.0000 0.34250  0.61770  0.04390  Biso   1.000  S
  S10      1.0000 0.45610  0.65750  0.11770  Biso   1.000  S
  S11      1.0000 0.84250  0.11770  0.54390  Biso   1.000  S
  S12      1.0000 0.95610  0.15750  0.61770  Biso   1.000  S
  S13      1.0000 0.11770  0.45610  0.65750  Biso   1.000  S
  S14      1.0000 0.61770  0.95610  0.15750  Biso   1.000  S
  S15      1.0000 0.15750  0.38230  0.54390  Biso   1.000  S
  S16      1.0000 0.04390  0.34250  0.61770  Biso   1.000  S
  S17      1.0000 0.65750  0.88230  0.04390  Biso   1.000  S
  S18      1.0000 0.54390  0.84250  0.11770  Biso   1.000  S
  S19      1.0000 0.61770  0.04390  0.34250  Biso   1.000  S
  S20      1.0000 0.11770  0.54390  0.84250  Biso   1.000  S
  S21      1.0000 0.65750  0.11770  0.45610  Biso   1.000  S
  S22      1.0000 0.54390  0.15750  0.38230  Biso   1.000  S
  S23      1.0000 0.15750  0.61770  0.95610  Biso   1.000  S
  S24      1.0000 0.04390  0.65750  0.88230  Biso   1.000  S
  S25      1.0000 0.20610  0.13230  0.09250  Biso   1.000  S
  S26      1.0000 0.70610  0.63230  0.59250  Biso   1.000  S
  S27      1.0000 0.13230  0.09250  0.20610  Biso   1.000  S
  S28      1.0000 0.09250  0.20610  0.13230  Biso   1.000  S
  S29      1.0000 0.63230  0.59250  0.70610  Biso   1.000  S
  S30      1.0000 0.59250  0.70610  0.63230  Biso   1.000  S
  S31      1.0000 0.79390  0.63230  0.40750  Biso   1.000  S
  S32      1.0000 0.29390  0.13230  0.90750  Biso   1.000  S
  S33      1.0000 0.86770  0.59250  0.29390  Biso   1.000  S
  S34      1.0000 0.90750  0.70610  0.36770  Biso   1.000  S
  S35      1.0000 0.36770  0.09250  0.79390  Biso   1.000  S
  S36      1.0000 0.40750  0.20610  0.86770  Biso   1.000  S
  S37      1.0000 0.70610  0.36770  0.90750  Biso   1.000  S
  S38      1.0000 0.20610  0.86770  0.40750  Biso   1.000  S
  S39      1.0000 0.63230  0.40750  0.79390  Biso   1.000  S
  S40      1.0000 0.59250  0.29390  0.86770  Biso   1.000  S
  S41      1.0000 0.13230  0.90750  0.29390  Biso   1.000  S
  S42      1.0000 0.09250  0.79390  0.36770  Biso   1.000  S
  S43      1.0000 0.29390  0.86770  0.59250  Biso   1.000  S
  S44      1.0000 0.79390  0.36770  0.09250  Biso   1.000  S
  S45      1.0000 0.36770  0.90750  0.70610  Biso   1.000  S
  S46      1.0000 0.40750  0.79390  0.63230  Biso   1.000  S
  S47      1.0000 0.86770  0.40750  0.20610  Biso   1.000  S
  S48      1.0000 0.90750  0.29390  0.13230  Biso   1.000  S
  S49      1.0000 0.89410  0.01250  0.94690  Biso   1.000  S
  S50      1.0000 0.39410  0.51250  0.44690  Biso   1.000  S
  S51      1.0000 0.94690  0.89410  0.01250  Biso   1.000  S
  S52      1.0000 0.01250  0.94690  0.89410  Biso   1.000  S
  S53      1.0000 0.44690  0.39410  0.51250  Biso   1.000  S
  S54      1.0000 0.51250  0.44690  0.39410  Biso   1.000  S
  S55      1.0000 0.39410  0.48750  0.05310  Biso   1.000  S
  S56      1.0000 0.89410  0.98750  0.55310  Biso   1.000  S
  S57      1.0000 0.44690  0.60590  0.98750  Biso   1.000  S
  S58      1.0000 0.51250  0.55310  0.10590  Biso   1.000  S
  S59      1.0000 0.94690  0.10590  0.48750  Biso   1.000  S
  S60      1.0000 0.01250  0.05310  0.60590  Biso   1.000  S
  S61      1.0000 0.10590  0.51250  0.55310  Biso   1.000  S
  S62      1.0000 0.60590  0.01250  0.05310  Biso   1.000  S
  S63      1.0000 0.05310  0.39410  0.48750  Biso   1.000  S
  S64      1.0000 0.98750  0.44690  0.60590  Biso   1.000  S
  S65      1.0000 0.55310  0.89410  0.98750  Biso   1.000  S
  S66      1.0000 0.48750  0.94690  0.10590  Biso   1.000  S
  S67      1.0000 0.60590  0.98750  0.44690  Biso   1.000  S
  S68      1.0000 0.10590  0.48750  0.94690  Biso   1.000  S
  S69      1.0000 0.55310  0.10590  0.51250  Biso   1.000  S
  S70      1.0000 0.48750  0.05310  0.39410  Biso   1.000  S
  S71      1.0000 0.05310  0.60590  0.01250  Biso   1.000  S
  S72      1.0000 0.98750  0.55310  0.89410  Biso   1.000  S
  S73      1.0000 0.26250  0.14410  0.19690  Biso   1.000  S
  S74      1.0000 0.76250  0.64410  0.69690  Biso   1.000  S
  S75      1.0000 0.14410  0.19690  0.26250  Biso   1.000  S
  S76      1.0000 0.19690  0.26250  0.14410  Biso   1.000  S
  S77      1.0000 0.64410  0.69690  0.76250  Biso   1.000  S
  S78      1.0000 0.69690  0.76250  0.64410  Biso   1.000  S
  S79      1.0000 0.73750  0.64410  0.30310  Biso   1.000  S
  S80      1.0000 0.23750  0.14410  0.80310  Biso   1.000  S
  S81      1.0000 0.85590  0.69690  0.23750  Biso   1.000  S
  S82      1.0000 0.80310  0.76250  0.35590  Biso   1.000  S
  S83      1.0000 0.35590  0.19690  0.73750  Biso   1.000  S
  S84      1.0000 0.30310  0.26250  0.85590  Biso   1.000  S
  S85      1.0000 0.76250  0.35590  0.80310  Biso   1.000  S
  S86      1.0000 0.26250  0.85590  0.30310  Biso   1.000  S
  S87      1.0000 0.64410  0.30310  0.73750  Biso   1.000  S
  S88      1.0000 0.69690  0.23750  0.85590  Biso   1.000  S
  S89      1.0000 0.14410  0.80310  0.23750  Biso   1.000  S
  S90      1.0000 0.19690  0.73750  0.35590  Biso   1.000  S
  S91      1.0000 0.23750  0.85590  0.69690  Biso   1.000  S
  S92      1.0000 0.73750  0.35590  0.19690  Biso   1.000  S
  S93      1.0000 0.35590  0.80310  0.76250  Biso   1.000  S
  S94      1.0000 0.30310  0.73750  0.64410  Biso   1.000  S
  S95      1.0000 0.85590  0.30310  0.26250  Biso   1.000  S
  S96      1.0000 0.80310  0.23750  0.14410  Biso   1.000  S
  C1       1.0000 0.87040  0.01730  0.87780  Biso   1.000  C
  C2       1.0000 0.37040  0.51730  0.37780  Biso   1.000  C
  C3       1.0000 0.87780  0.87040  0.01730  Biso   1.000  C
  C4       1.0000 0.01730  0.87780  0.87040  Biso   1.000  C
  C5       1.0000 0.37780  0.37040  0.51730  Biso   1.000  C
  C6       1.0000 0.51730  0.37780  0.37040  Biso   1.000  C
  C7       1.0000 0.37040  0.48270  0.12220  Biso   1.000  C
  C8       1.0000 0.87040  0.98270  0.62220  Biso   1.000  C
  C9       1.0000 0.37780  0.62960  0.98270  Biso   1.000  C
  C10      1.0000 0.51730  0.62220  0.12960  Biso   1.000  C
  C11      1.0000 0.87780  0.12960  0.48270  Biso   1.000  C
  C12      1.0000 0.01730  0.12220  0.62960  Biso   1.000  C
  C13      1.0000 0.12960  0.51730  0.62220  Biso   1.000  C
  C14      1.0000 0.62960  0.01730  0.12220  Biso   1.000  C
  C15      1.0000 0.12220  0.37040  0.48270  Biso   1.000  C
  C16      1.0000 0.98270  0.37780  0.62960  Biso   1.000  C
  C17      1.0000 0.62220  0.87040  0.98270  Biso   1.000  C
  C18      1.0000 0.48270  0.87780  0.12960  Biso   1.000  C
  C19      1.0000 0.62960  0.98270  0.37780  Biso   1.000  C
  C20      1.0000 0.12960  0.48270  0.87780  Biso   1.000  C
  C21      1.0000 0.62220  0.12960  0.51730  Biso   1.000  C
  C22      1.0000 0.48270  0.12220  0.37040  Biso   1.000  C
  C23      1.0000 0.12220  0.62960  0.01730  Biso   1.000  C
  C24      1.0000 0.98270  0.62220  0.87040  Biso   1.000  C
  C25      1.0000 0.26730  0.12040  0.12780  Biso   1.000  C
  C26      1.0000 0.76730  0.62040  0.62780  Biso   1.000  C
  C27      1.0000 0.12040  0.12780  0.26730  Biso   1.000  C
  C28      1.0000 0.12780  0.26730  0.12040  Biso   1.000  C
  C29      1.0000 0.62040  0.62780  0.76730  Biso   1.000  C
  C30      1.0000 0.62780  0.76730  0.62040  Biso   1.000  C
  C31      1.0000 0.73270  0.62040  0.37220  Biso   1.000  C
  C32      1.0000 0.23270  0.12040  0.87220  Biso   1.000  C
  C33      1.0000 0.87960  0.62780  0.23270  Biso   1.000  C
  C34      1.0000 0.87220  0.76730  0.37960  Biso   1.000  C
  C35      1.0000 0.37960  0.12780  0.73270  Biso   1.000  C
  C36      1.0000 0.37220  0.26730  0.87960  Biso   1.000  C
  C37      1.0000 0.76730  0.37960  0.87220  Biso   1.000  C
  C38      1.0000 0.26730  0.87960  0.37220  Biso   1.000  C
  C39      1.0000 0.62040  0.37220  0.73270  Biso   1.000  C
  C40      1.0000 0.62780  0.23270  0.87960  Biso   1.000  C
  C41      1.0000 0.12040  0.87220  0.23270  Biso   1.000  C
  C42      1.0000 0.12780  0.73270  0.37960  Biso   1.000  C
  C43      1.0000 0.23270  0.87960  0.62780  Biso   1.000  C
  C44      1.0000 0.73270  0.37960  0.12780  Biso   1.000  C
  C45      1.0000 0.37960  0.87220  0.76730  Biso   1.000  C
  C46      1.0000 0.37220  0.73270  0.62040  Biso   1.000  C
  C47      1.0000 0.87960  0.37220  0.26730  Biso   1.000  C
  C48      1.0000 0.87220  0.23270  0.12040  Biso   1.000  C
  N1       1.0000 0.84690  0.06050  0.85640  Biso   1.000  N
  N2       1.0000 0.34690  0.56050  0.35640  Biso   1.000  N
  N3       1.0000 0.85640  0.84690  0.06050  Biso   1.000  N
  N4       1.0000 0.06050  0.85640  0.84690  Biso   1.000  N
  N5       1.0000 0.35640  0.34690  0.56050  Biso   1.000  N
  N6       1.0000 0.56050  0.35640  0.34690  Biso   1.000  N
  N7       1.0000 0.34690  0.43950  0.14360  Biso   1.000  N
  N8       1.0000 0.84690  0.93950  0.64360  Biso   1.000  N
  N9       1.0000 0.35640  0.65310  0.93950  Biso   1.000  N
  N10      1.0000 0.56050  0.64360  0.15310  Biso   1.000  N
  N11      1.0000 0.85640  0.15310  0.43950  Biso   1.000  N
  N12      1.0000 0.06050  0.14360  0.65310  Biso   1.000  N
  N13      1.0000 0.15310  0.56050  0.64360  Biso   1.000  N
  N14      1.0000 0.65310  0.06050  0.14360  Biso   1.000  N
  N15      1.0000 0.14360  0.34690  0.43950  Biso   1.000  N
  N16      1.0000 0.93950  0.35640  0.65310  Biso   1.000  N
  N17      1.0000 0.64360  0.84690  0.93950  Biso   1.000  N
  N18      1.0000 0.43950  0.85640  0.15310  Biso   1.000  N
  N19      1.0000 0.65310  0.93950  0.35640  Biso   1.000  N
  N20      1.0000 0.15310  0.43950  0.85640  Biso   1.000  N
  N21      1.0000 0.64360  0.15310  0.56050  Biso   1.000  N
  N22      1.0000 0.43950  0.14360  0.34690  Biso   1.000  N
  N23      1.0000 0.14360  0.65310  0.06050  Biso   1.000  N
  N24      1.0000 0.93950  0.64360  0.84690  Biso   1.000  N
  N25      1.0000 0.31050  0.09690  0.10640  Biso   1.000  N
  N26      1.0000 0.81050  0.59690  0.60640  Biso   1.000  N
  N27      1.0000 0.09690  0.10640  0.31050  Biso   1.000  N
  N28      1.0000 0.10640  0.31050  0.09690  Biso   1.000  N
  N29      1.0000 0.59690  0.60640  0.81050  Biso   1.000  N
  N30      1.0000 0.60640  0.81050  0.59690  Biso   1.000  N
  N31      1.0000 0.68950  0.59690  0.39360  Biso   1.000  N
  N32      1.0000 0.18950  0.09690  0.89360  Biso   1.000  N
  N33      1.0000 0.90310  0.60640  0.18950  Biso   1.000  N
  N34      1.0000 0.89360  0.81050  0.40310  Biso   1.000  N
  N35      1.0000 0.40310  0.10640  0.68950  Biso   1.000  N
  N36      1.0000 0.39360  0.31050  0.90310  Biso   1.000  N
  N37      1.0000 0.81050  0.40310  0.89360  Biso   1.000  N
  N38      1.0000 0.31050  0.90310  0.39360  Biso   1.000  N
  N39      1.0000 0.59690  0.39360  0.68950  Biso   1.000  N
  N40      1.0000 0.60640  0.18950  0.90310  Biso   1.000  N
  N41      1.0000 0.09690  0.89360  0.18950  Biso   1.000  N
  N42      1.0000 0.10640  0.68950  0.40310  Biso   1.000  N
  N43      1.0000 0.18950  0.90310  0.60640  Biso   1.000  N
  N44      1.0000 0.68950  0.40310  0.10640  Biso   1.000  N
  N45      1.0000 0.40310  0.89360  0.81050  Biso   1.000  N
  N46      1.0000 0.39360  0.68950  0.59690  Biso   1.000  N
  N47      1.0000 0.90310  0.39360  0.31050  Biso   1.000  N
  N48      1.0000 0.89360  0.18950  0.09690  Biso   1.000  N
  C49      1.0000 0.84170  0.11890  0.88160  Biso   1.000  C
  C50      1.0000 0.34170  0.61890  0.38160  Biso   1.000  C
  C51      1.0000 0.88160  0.84170  0.11890  Biso   1.000  C
  C52      1.0000 0.11890  0.88160  0.84170  Biso   1.000  C
  C53      1.0000 0.38160  0.34170  0.61890  Biso   1.000  C
  C54      1.0000 0.61890  0.38160  0.34170  Biso   1.000  C
  C55      1.0000 0.34170  0.38110  0.11840  Biso   1.000  C
  C56      1.0000 0.84170  0.88110  0.61840  Biso   1.000  C
  C57      1.0000 0.38160  0.65830  0.88110  Biso   1.000  C
  C58      1.0000 0.61890  0.61840  0.15830  Biso   1.000  C
  C59      1.0000 0.88160  0.15830  0.38110  Biso   1.000  C
  C60      1.0000 0.11890  0.11840  0.65830  Biso   1.000  C
  C61      1.0000 0.15830  0.61890  0.61840  Biso   1.000  C
  C62      1.0000 0.65830  0.11890  0.11840  Biso   1.000  C
  C63      1.0000 0.11840  0.34170  0.38110  Biso   1.000  C
  C64      1.0000 0.88110  0.38160  0.65830  Biso   1.000  C
  C65      1.0000 0.61840  0.84170  0.88110  Biso   1.000  C
  C66      1.0000 0.38110  0.88160  0.15830  Biso   1.000  C
  C67      1.0000 0.65830  0.88110  0.38160  Biso   1.000  C
  C68      1.0000 0.15830  0.38110  0.88160  Biso   1.000  C
  C69      1.0000 0.61840  0.15830  0.61890  Biso   1.000  C
  C70      1.0000 0.38110  0.11840  0.34170  Biso   1.000  C
  C71      1.0000 0.11840  0.65830  0.11890  Biso   1.000  C
  C72      1.0000 0.88110  0.61840  0.84170  Biso   1.000  C
  C73      1.0000 0.36890  0.09170  0.13160  Biso   1.000  C
  C74      1.0000 0.86890  0.59170  0.63160  Biso   1.000  C
  C75      1.0000 0.09170  0.13160  0.36890  Biso   1.000  C
  C76      1.0000 0.13160  0.36890  0.09170  Biso   1.000  C
  C77      1.0000 0.59170  0.63160  0.86890  Biso   1.000  C
  C78      1.0000 0.63160  0.86890  0.59170  Biso   1.000  C
  C79      1.0000 0.63110  0.59170  0.36840  Biso   1.000  C
  C80      1.0000 0.13110  0.09170  0.86840  Biso   1.000  C
  C81      1.0000 0.90830  0.63160  0.13110  Biso   1.000  C
  C82      1.0000 0.86840  0.86890  0.40830  Biso   1.000  C
  C83      1.0000 0.40830  0.13160  0.63110  Biso   1.000  C
  C84      1.0000 0.36840  0.36890  0.90830  Biso   1.000  C
  C85      1.0000 0.86890  0.40830  0.86840  Biso   1.000  C
  C86      1.0000 0.36890  0.90830  0.36840  Biso   1.000  C
  C87      1.0000 0.59170  0.36840  0.63110  Biso   1.000  C
  C88      1.0000 0.63160  0.13110  0.90830  Biso   1.000  C
  C89      1.0000 0.09170  0.86840  0.13110  Biso   1.000  C
  C90      1.0000 0.13160  0.63110  0.40830  Biso   1.000  C
  C91      1.0000 0.13110  0.90830  0.63160  Biso   1.000  C
  C92      1.0000 0.63110  0.40830  0.13160  Biso   1.000  C
  C93      1.0000 0.40830  0.86840  0.86890  Biso   1.000  C
  C94      1.0000 0.36840  0.63110  0.59170  Biso   1.000  C
  C95      1.0000 0.90830  0.36840  0.36890  Biso   1.000  C
  C96      1.0000 0.86840  0.13110  0.09170  Biso   1.000  C
  C97      1.0000 0.83160  0.15910  0.83730  Biso   1.000  C
  C98      1.0000 0.33160  0.65910  0.33730  Biso   1.000  C
  C99      1.0000 0.83730  0.83160  0.15910  Biso   1.000  C
  C100     1.0000 0.15910  0.83730  0.83160  Biso   1.000  C
  C101     1.0000 0.33730  0.33160  0.65910  Biso   1.000  C
  C102     1.0000 0.65910  0.33730  0.33160  Biso   1.000  C
  C103     1.0000 0.33160  0.34090  0.16270  Biso   1.000  C
  C104     1.0000 0.83160  0.84090  0.66270  Biso   1.000  C
  C105     1.0000 0.33730  0.66840  0.84090  Biso   1.000  C
  C106     1.0000 0.65910  0.66270  0.16840  Biso   1.000  C
  C107     1.0000 0.83730  0.16840  0.34090  Biso   1.000  C
  C108     1.0000 0.15910  0.16270  0.66840  Biso   1.000  C
  C109     1.0000 0.16840  0.65910  0.66270  Biso   1.000  C
  C110     1.0000 0.66840  0.15910  0.16270  Biso   1.000  C
  C111     1.0000 0.16270  0.33160  0.34090  Biso   1.000  C
  C112     1.0000 0.84090  0.33730  0.66840  Biso   1.000  C
  C113     1.0000 0.66270  0.83160  0.84090  Biso   1.000  C
  C114     1.0000 0.34090  0.83730  0.16840  Biso   1.000  C
  C115     1.0000 0.66840  0.84090  0.33730  Biso   1.000  C
  C116     1.0000 0.16840  0.34090  0.83730  Biso   1.000  C
  C117     1.0000 0.66270  0.16840  0.65910  Biso   1.000  C
  C118     1.0000 0.34090  0.16270  0.33160  Biso   1.000  C
  C119     1.0000 0.16270  0.66840  0.15910  Biso   1.000  C
  C120     1.0000 0.84090  0.66270  0.83160  Biso   1.000  C
  C121     1.0000 0.40910  0.08160  0.08730  Biso   1.000  C
  C122     1.0000 0.90910  0.58160  0.58730  Biso   1.000  C
  C123     1.0000 0.08160  0.08730  0.40910  Biso   1.000  C
  C124     1.0000 0.08730  0.40910  0.08160  Biso   1.000  C
  C125     1.0000 0.58160  0.58730  0.90910  Biso   1.000  C
  C126     1.0000 0.58730  0.90910  0.58160  Biso   1.000  C
  C127     1.0000 0.59090  0.58160  0.41270  Biso   1.000  C
  C128     1.0000 0.09090  0.08160  0.91270  Biso   1.000  C
  C129     1.0000 0.91840  0.58730  0.09090  Biso   1.000  C
  C130     1.0000 0.91270  0.90910  0.41840  Biso   1.000  C
  C131     1.0000 0.41840  0.08730  0.59090  Biso   1.000  C
  C132     1.0000 0.41270  0.40910  0.91840  Biso   1.000  C
  C133     1.0000 0.90910  0.41840  0.91270  Biso   1.000  C
  C134     1.0000 0.40910  0.91840  0.41270  Biso   1.000  C
  C135     1.0000 0.58160  0.41270  0.59090  Biso   1.000  C
  C136     1.0000 0.58730  0.09090  0.91840  Biso   1.000  C
  C137     1.0000 0.08160  0.91270  0.09090  Biso   1.000  C
  C138     1.0000 0.08730  0.59090  0.41840  Biso   1.000  C
  C139     1.0000 0.09090  0.91840  0.58730  Biso   1.000  C
  C140     1.0000 0.59090  0.41840  0.08730  Biso   1.000  C
  C141     1.0000 0.41840  0.91270  0.90910  Biso   1.000  C
  C142     1.0000 0.41270  0.59090  0.58160  Biso   1.000  C
  C143     1.0000 0.91840  0.41270  0.40910  Biso   1.000  C
  C144     1.0000 0.91270  0.09090  0.08160  Biso   1.000  C
  C145     1.0000 0.80420  0.12510  0.79220  Biso   1.000  C
  C146     1.0000 0.30420  0.62510  0.29220  Biso   1.000  C
  C147     1.0000 0.79220  0.80420  0.12510  Biso   1.000  C
  C148     1.0000 0.12510  0.79220  0.80420  Biso   1.000  C
  C149     1.0000 0.29220  0.30420  0.62510  Biso   1.000  C
  C150     1.0000 0.62510  0.29220  0.30420  Biso   1.000  C
  C151     1.0000 0.30420  0.37490  0.20780  Biso   1.000  C
  C152     1.0000 0.80420  0.87490  0.70780  Biso   1.000  C
  C153     1.0000 0.29220  0.69580  0.87490  Biso   1.000  C
  C154     1.0000 0.62510  0.70780  0.19580  Biso   1.000  C
  C155     1.0000 0.79220  0.19580  0.37490  Biso   1.000  C
  C156     1.0000 0.12510  0.20780  0.69580  Biso   1.000  C
  C157     1.0000 0.19580  0.62510  0.70780  Biso   1.000  C
  C158     1.0000 0.69580  0.12510  0.20780  Biso   1.000  C
  C159     1.0000 0.20780  0.30420  0.37490  Biso   1.000  C
  C160     1.0000 0.87490  0.29220  0.69580  Biso   1.000  C
  C161     1.0000 0.70780  0.80420  0.87490  Biso   1.000  C
  C162     1.0000 0.37490  0.79220  0.19580  Biso   1.000  C
  C163     1.0000 0.69580  0.87490  0.29220  Biso   1.000  C
  C164     1.0000 0.19580  0.37490  0.79220  Biso   1.000  C
  C165     1.0000 0.70780  0.19580  0.62510  Biso   1.000  C
  C166     1.0000 0.37490  0.20780  0.30420  Biso   1.000  C
  C167     1.0000 0.20780  0.69580  0.12510  Biso   1.000  C
  C168     1.0000 0.87490  0.70780  0.80420  Biso   1.000  C
  C169     1.0000 0.37510  0.05420  0.04220  Biso   1.000  C
  C170     1.0000 0.87510  0.55420  0.54220  Biso   1.000  C
  C171     1.0000 0.05420  0.04220  0.37510  Biso   1.000  C
  C172     1.0000 0.04220  0.37510  0.05420  Biso   1.000  C
  C173     1.0000 0.55420  0.54220  0.87510  Biso   1.000  C
  C174     1.0000 0.54220  0.87510  0.55420  Biso   1.000  C
  C175     1.0000 0.62490  0.55420  0.45780  Biso   1.000  C
  C176     1.0000 0.12490  0.05420  0.95780  Biso   1.000  C
  C177     1.0000 0.94580  0.54220  0.12490  Biso   1.000  C
  C178     1.0000 0.95780  0.87510  0.44580  Biso   1.000  C
  C179     1.0000 0.44580  0.04220  0.62490  Biso   1.000  C
  C180     1.0000 0.45780  0.37510  0.94580  Biso   1.000  C
  C181     1.0000 0.87510  0.44580  0.95780  Biso   1.000  C
  C182     1.0000 0.37510  0.94580  0.45780  Biso   1.000  C
  C183     1.0000 0.55420  0.45780  0.62490  Biso   1.000  C
  C184     1.0000 0.54220  0.12490  0.94580  Biso   1.000  C
  C185     1.0000 0.05420  0.95780  0.12490  Biso   1.000  C
  C186     1.0000 0.04220  0.62490  0.44580  Biso   1.000  C
  C187     1.0000 0.12490  0.94580  0.54220  Biso   1.000  C
  C188     1.0000 0.62490  0.44580  0.04220  Biso   1.000  C
  C189     1.0000 0.44580  0.95780  0.87510  Biso   1.000  C
  C190     1.0000 0.45780  0.62490  0.55420  Biso   1.000  C
  C191     1.0000 0.94580  0.45780  0.37510  Biso   1.000  C
  C192     1.0000 0.95780  0.12490  0.05420  Biso   1.000  C
  C193     1.0000 0.82490  0.06270  0.79790  Biso   1.000  C
  C194     1.0000 0.32490  0.56270  0.29790  Biso   1.000  C
  C195     1.0000 0.79790  0.82490  0.06270  Biso   1.000  C
  C196     1.0000 0.06270  0.79790  0.82490  Biso   1.000  C
  C197     1.0000 0.29790  0.32490  0.56270  Biso   1.000  C
  C198     1.0000 0.56270  0.29790  0.32490  Biso   1.000  C
  C199     1.0000 0.32490  0.43730  0.20210  Biso   1.000  C
  C200     1.0000 0.82490  0.93730  0.70210  Biso   1.000  C
  C201     1.0000 0.29790  0.67510  0.93730  Biso   1.000  C
  C202     1.0000 0.56270  0.70210  0.17510  Biso   1.000  C
  C203     1.0000 0.79790  0.17510  0.43730  Biso   1.000  C
  C204     1.0000 0.06270  0.20210  0.67510  Biso   1.000  C
  C205     1.0000 0.17510  0.56270  0.70210  Biso   1.000  C
  C206     1.0000 0.67510  0.06270  0.20210  Biso   1.000  C
  C207     1.0000 0.20210  0.32490  0.43730  Biso   1.000  C
  C208     1.0000 0.93730  0.29790  0.67510  Biso   1.000  C
  C209     1.0000 0.70210  0.82490  0.93730  Biso   1.000  C
  C210     1.0000 0.43730  0.79790  0.17510  Biso   1.000  C
  C211     1.0000 0.67510  0.93730  0.29790  Biso   1.000  C
  C212     1.0000 0.17510  0.43730  0.79790  Biso   1.000  C
  C213     1.0000 0.70210  0.17510  0.56270  Biso   1.000  C
  C214     1.0000 0.43730  0.20210  0.32490  Biso   1.000  C
  C215     1.0000 0.20210  0.67510  0.06270  Biso   1.000  C
  C216     1.0000 0.93730  0.70210  0.82490  Biso   1.000  C
  C217     1.0000 0.31270  0.07490  0.04790  Biso   1.000  C
  C218     1.0000 0.81270  0.57490  0.54790  Biso   1.000  C
  C219     1.0000 0.07490  0.04790  0.31270  Biso   1.000  C
  C220     1.0000 0.04790  0.31270  0.07490  Biso   1.000  C
  C221     1.0000 0.57490  0.54790  0.81270  Biso   1.000  C
  C222     1.0000 0.54790  0.81270  0.57490  Biso   1.000  C
  C223     1.0000 0.68730  0.57490  0.45210  Biso   1.000  C
  C224     1.0000 0.18730  0.07490  0.95210  Biso   1.000  C
  C225     1.0000 0.92510  0.54790  0.18730  Biso   1.000  C
  C226     1.0000 0.95210  0.81270  0.42510  Biso   1.000  C
  C227     1.0000 0.42510  0.04790  0.68730  Biso   1.000  C
  C228     1.0000 0.45210  0.31270  0.92510  Biso   1.000  C
  C229     1.0000 0.81270  0.42510  0.95210  Biso   1.000  C
  C230     1.0000 0.31270  0.92510  0.45210  Biso   1.000  C
  C231     1.0000 0.57490  0.45210  0.68730  Biso   1.000  C
  C232     1.0000 0.54790  0.18730  0.92510  Biso   1.000  C
  C233     1.0000 0.07490  0.95210  0.18730  Biso   1.000  C
  C234     1.0000 0.04790  0.68730  0.42510  Biso   1.000  C
  C235     1.0000 0.18730  0.92510  0.54790  Biso   1.000  C
  C236     1.0000 0.68730  0.42510  0.04790  Biso   1.000  C
  C237     1.0000 0.42510  0.95210  0.81270  Biso   1.000  C
  C238     1.0000 0.45210  0.68730  0.57490  Biso   1.000  C
  C239     1.0000 0.92510  0.45210  0.31270  Biso   1.000  C
  C240     1.0000 0.95210  0.18730  0.07490  Biso   1.000  C
  H1       1.0000 0.87640  0.12870  0.90100  Biso   1.000  H
  H2       1.0000 0.37640  0.62870  0.40100  Biso   1.000  H
  H3       1.0000 0.90100  0.87640  0.12870  Biso   1.000  H
  H4       1.0000 0.12870  0.90100  0.87640  Biso   1.000  H
  H5       1.0000 0.40100  0.37640  0.62870  Biso   1.000  H
  H6       1.0000 0.62870  0.40100  0.37640  Biso   1.000  H
  H7       1.0000 0.37640  0.37130  0.09900  Biso   1.000  H
  H8       1.0000 0.87640  0.87130  0.59900  Biso   1.000  H
  H9       1.0000 0.40100  0.62360  0.87130  Biso   1.000  H
  H10      1.0000 0.62870  0.59900  0.12360  Biso   1.000  H
  H11      1.0000 0.90100  0.12360  0.37130  Biso   1.000  H
  H12      1.0000 0.12870  0.09900  0.62360  Biso   1.000  H
  H13      1.0000 0.12360  0.62870  0.59900  Biso   1.000  H
  H14      1.0000 0.62360  0.12870  0.09900  Biso   1.000  H
  H15      1.0000 0.09900  0.37640  0.37130  Biso   1.000  H
  H16      1.0000 0.87130  0.40100  0.62360  Biso   1.000  H
  H17      1.0000 0.59900  0.87640  0.87130  Biso   1.000  H
  H18      1.0000 0.37130  0.90100  0.12360  Biso   1.000  H
  H19      1.0000 0.62360  0.87130  0.40100  Biso   1.000  H
  H20      1.0000 0.12360  0.37130  0.90100  Biso   1.000  H
  H21      1.0000 0.59900  0.12360  0.62870  Biso   1.000  H
  H22      1.0000 0.37130  0.09900  0.37640  Biso   1.000  H
  H23      1.0000 0.09900  0.62360  0.12870  Biso   1.000  H
  H24      1.0000 0.87130  0.59900  0.87640  Biso   1.000  H
  H25      1.0000 0.37870  0.12640  0.15100  Biso   1.000  H
  H26      1.0000 0.87870  0.62640  0.65100  Biso   1.000  H
  H27      1.0000 0.12640  0.15100  0.37870  Biso   1.000  H
  H28      1.0000 0.15100  0.37870  0.12640  Biso   1.000  H
  H29      1.0000 0.62640  0.65100  0.87870  Biso   1.000  H
  H30      1.0000 0.65100  0.87870  0.62640  Biso   1.000  H
  H31      1.0000 0.62130  0.62640  0.34900  Biso   1.000  H
  H32      1.0000 0.12130  0.12640  0.84900  Biso   1.000  H
  H33      1.0000 0.87360  0.65100  0.12130  Biso   1.000  H
  H34      1.0000 0.84900  0.87870  0.37360  Biso   1.000  H
  H35      1.0000 0.37360  0.15100  0.62130  Biso   1.000  H
  H36      1.0000 0.34900  0.37870  0.87360  Biso   1.000  H
  H37      1.0000 0.87870  0.37360  0.84900  Biso   1.000  H
  H38      1.0000 0.37870  0.87360  0.34900  Biso   1.000  H
  H39      1.0000 0.62640  0.34900  0.62130  Biso   1.000  H
  H40      1.0000 0.65100  0.12130  0.87360  Biso   1.000  H
  H41      1.0000 0.12640  0.84900  0.12130  Biso   1.000  H
  H42      1.0000 0.15100  0.62130  0.37360  Biso   1.000  H
  H43      1.0000 0.12130  0.87360  0.65100  Biso   1.000  H
  H44      1.0000 0.62130  0.37360  0.15100  Biso   1.000  H
  H45      1.0000 0.37360  0.84900  0.87870  Biso   1.000  H
  H46      1.0000 0.34900  0.62130  0.62640  Biso   1.000  H
  H47      1.0000 0.87360  0.34900  0.37870  Biso   1.000  H
  H48      1.0000 0.84900  0.12130  0.12640  Biso   1.000  H
  H49      1.0000 0.81150  0.12130  0.90710  Biso   1.000  H
  H50      1.0000 0.31150  0.62130  0.40710  Biso   1.000  H
  H51      1.0000 0.90710  0.81150  0.12130  Biso   1.000  H
  H52      1.0000 0.12130  0.90710  0.81150  Biso   1.000  H
  H53      1.0000 0.40710  0.31150  0.62130  Biso   1.000  H
  H54      1.0000 0.62130  0.40710  0.31150  Biso   1.000  H
  H55      1.0000 0.31150  0.37870  0.09290  Biso   1.000  H
  H56      1.0000 0.81150  0.87870  0.59290  Biso   1.000  H
  H57      1.0000 0.40710  0.68850  0.87870  Biso   1.000  H
  H58      1.0000 0.62130  0.59290  0.18850  Biso   1.000  H
  H59      1.0000 0.90710  0.18850  0.37870  Biso   1.000  H
  H60      1.0000 0.12130  0.09290  0.68850  Biso   1.000  H
  H61      1.0000 0.18850  0.62130  0.59290  Biso   1.000  H
  H62      1.0000 0.68850  0.12130  0.09290  Biso   1.000  H
  H63      1.0000 0.09290  0.31150  0.37870  Biso   1.000  H
  H64      1.0000 0.87870  0.40710  0.68850  Biso   1.000  H
  H65      1.0000 0.59290  0.81150  0.87870  Biso   1.000  H
  H66      1.0000 0.37870  0.90710  0.18850  Biso   1.000  H
  H67      1.0000 0.68850  0.87870  0.40710  Biso   1.000  H
  H68      1.0000 0.18850  0.37870  0.90710  Biso   1.000  H
  H69      1.0000 0.59290  0.18850  0.62130  Biso   1.000  H
  H70      1.0000 0.37870  0.09290  0.31150  Biso   1.000  H
  H71      1.0000 0.09290  0.68850  0.12130  Biso   1.000  H
  H72      1.0000 0.87870  0.59290  0.81150  Biso   1.000  H
  H73      1.0000 0.37130  0.06150  0.15710  Biso   1.000  H
  H74      1.0000 0.87130  0.56150  0.65710  Biso   1.000  H
  H75      1.0000 0.06150  0.15710  0.37130  Biso   1.000  H
  H76      1.0000 0.15710  0.37130  0.06150  Biso   1.000  H
  H77      1.0000 0.56150  0.65710  0.87130  Biso   1.000  H
  H78      1.0000 0.65710  0.87130  0.56150  Biso   1.000  H
  H79      1.0000 0.62870  0.56150  0.34290  Biso   1.000  H
  H80      1.0000 0.12870  0.06150  0.84290  Biso   1.000  H
  H81      1.0000 0.93850  0.65710  0.12870  Biso   1.000  H
  H82      1.0000 0.84290  0.87130  0.43850  Biso   1.000  H
  H83      1.0000 0.43850  0.15710  0.62870  Biso   1.000  H
  H84      1.0000 0.34290  0.37130  0.93850  Biso   1.000  H
  H85      1.0000 0.87130  0.43850  0.84290  Biso   1.000  H
  H86      1.0000 0.37130  0.93850  0.34290  Biso   1.000  H
  H87      1.0000 0.56150  0.34290  0.62870  Biso   1.000  H
  H88      1.0000 0.65710  0.12870  0.93850  Biso   1.000  H
  H89      1.0000 0.06150  0.84290  0.12870  Biso   1.000  H
  H90      1.0000 0.15710  0.62870  0.43850  Biso   1.000  H
  H91      1.0000 0.12870  0.93850  0.65710  Biso   1.000  H
  H92      1.0000 0.62870  0.43850  0.15710  Biso   1.000  H
  H93      1.0000 0.43850  0.84290  0.87130  Biso   1.000  H
  H94      1.0000 0.34290  0.62870  0.56150  Biso   1.000  H
  H95      1.0000 0.93850  0.34290  0.37130  Biso   1.000  H
  H96      1.0000 0.84290  0.12870  0.06150  Biso   1.000  H
  H97      1.0000 0.86840  0.17610  0.82500  Biso   1.000  H
  H98      1.0000 0.36840  0.67610  0.32500  Biso   1.000  H
  H99      1.0000 0.82500  0.86840  0.17610  Biso   1.000  H
  H100     1.0000 0.17610  0.82500  0.86840  Biso   1.000  H
  H101     1.0000 0.32500  0.36840  0.67610  Biso   1.000  H
  H102     1.0000 0.67610  0.32500  0.36840  Biso   1.000  H
  H103     1.0000 0.36840  0.32390  0.17500  Biso   1.000  H
  H104     1.0000 0.86840  0.82390  0.67500  Biso   1.000  H
  H105     1.0000 0.32500  0.63160  0.82390  Biso   1.000  H
  H106     1.0000 0.67610  0.67500  0.13160  Biso   1.000  H
  H107     1.0000 0.82500  0.13160  0.32390  Biso   1.000  H
  H108     1.0000 0.17610  0.17500  0.63160  Biso   1.000  H
  H109     1.0000 0.13160  0.67610  0.67500  Biso   1.000  H
  H110     1.0000 0.63160  0.17610  0.17500  Biso   1.000  H
  H111     1.0000 0.17500  0.36840  0.32390  Biso   1.000  H
  H112     1.0000 0.82390  0.32500  0.63160  Biso   1.000  H
  H113     1.0000 0.67500  0.86840  0.82390  Biso   1.000  H
  H114     1.0000 0.32390  0.82500  0.13160  Biso   1.000  H
  H115     1.0000 0.63160  0.82390  0.32500  Biso   1.000  H
  H116     1.0000 0.13160  0.32390  0.82500  Biso   1.000  H
  H117     1.0000 0.67500  0.13160  0.67610  Biso   1.000  H
  H118     1.0000 0.32390  0.17500  0.36840  Biso   1.000  H
  H119     1.0000 0.17500  0.63160  0.17610  Biso   1.000  H
  H120     1.0000 0.82390  0.67500  0.86840  Biso   1.000  H
  H121     1.0000 0.42610  0.11840  0.07500  Biso   1.000  H
  H122     1.0000 0.92610  0.61840  0.57500  Biso   1.000  H
  H123     1.0000 0.11840  0.07500  0.42610  Biso   1.000  H
  H124     1.0000 0.07500  0.42610  0.11840  Biso   1.000  H
  H125     1.0000 0.61840  0.57500  0.92610  Biso   1.000  H
  H126     1.0000 0.57500  0.92610  0.61840  Biso   1.000  H
  H127     1.0000 0.57390  0.61840  0.42500  Biso   1.000  H
  H128     1.0000 0.07390  0.11840  0.92500  Biso   1.000  H
  H129     1.0000 0.88160  0.57500  0.07390  Biso   1.000  H
  H130     1.0000 0.92500  0.92610  0.38160  Biso   1.000  H
  H131     1.0000 0.38160  0.07500  0.57390  Biso   1.000  H
  H132     1.0000 0.42500  0.42610  0.88160  Biso   1.000  H
  H133     1.0000 0.92610  0.38160  0.92500  Biso   1.000  H
  H134     1.0000 0.42610  0.88160  0.42500  Biso   1.000  H
  H135     1.0000 0.61840  0.42500  0.57390  Biso   1.000  H
  H136     1.0000 0.57500  0.07390  0.88160  Biso   1.000  H
  H137     1.0000 0.11840  0.92500  0.07390  Biso   1.000  H
  H138     1.0000 0.07500  0.57390  0.38160  Biso   1.000  H
  H139     1.0000 0.07390  0.88160  0.57500  Biso   1.000  H
  H140     1.0000 0.57390  0.38160  0.07500  Biso   1.000  H
  H141     1.0000 0.38160  0.92500  0.92610  Biso   1.000  H
  H142     1.0000 0.42500  0.57390  0.61840  Biso   1.000  H
  H143     1.0000 0.88160  0.42500  0.42610  Biso   1.000  H
  H144     1.0000 0.92500  0.07390  0.11840  Biso   1.000  H
  H145     1.0000 0.80970  0.19060  0.85050  Biso   1.000  H
  H146     1.0000 0.30970  0.69060  0.35050  Biso   1.000  H
  H147     1.0000 0.85050  0.80970  0.19060  Biso   1.000  H
  H148     1.0000 0.19060  0.85050  0.80970  Biso   1.000  H
  H149     1.0000 0.35050  0.30970  0.69060  Biso   1.000  H
  H150     1.0000 0.69060  0.35050  0.30970  Biso   1.000  H
  H151     1.0000 0.30970  0.30940  0.14950  Biso   1.000  H
  H152     1.0000 0.80970  0.80940  0.64950  Biso   1.000  H
  H153     1.0000 0.35050  0.69030  0.80940  Biso   1.000  H
  H154     1.0000 0.69060  0.64950  0.19030  Biso   1.000  H
  H155     1.0000 0.85050  0.19030  0.30940  Biso   1.000  H
  H156     1.0000 0.19060  0.14950  0.69030  Biso   1.000  H
  H157     1.0000 0.19030  0.69060  0.64950  Biso   1.000  H
  H158     1.0000 0.69030  0.19060  0.14950  Biso   1.000  H
  H159     1.0000 0.14950  0.30970  0.30940  Biso   1.000  H
  H160     1.0000 0.80940  0.35050  0.69030  Biso   1.000  H
  H161     1.0000 0.64950  0.80970  0.80940  Biso   1.000  H
  H162     1.0000 0.30940  0.85050  0.19030  Biso   1.000  H
  H163     1.0000 0.69030  0.80940  0.35050  Biso   1.000  H
  H164     1.0000 0.19030  0.30940  0.85050  Biso   1.000  H
  H165     1.0000 0.64950  0.19030  0.69060  Biso   1.000  H
  H166     1.0000 0.30940  0.14950  0.30970  Biso   1.000  H
  H167     1.0000 0.14950  0.69030  0.19060  Biso   1.000  H
  H168     1.0000 0.80940  0.64950  0.80970  Biso   1.000  H
  H169     1.0000 0.44060  0.05970  0.10050  Biso   1.000  H
  H170     1.0000 0.94060  0.55970  0.60050  Biso   1.000  H
  H171     1.0000 0.05970  0.10050  0.44060  Biso   1.000  H
  H172     1.0000 0.10050  0.44060  0.05970  Biso   1.000  H
  H173     1.0000 0.55970  0.60050  0.94060  Biso   1.000  H
  H174     1.0000 0.60050  0.94060  0.55970  Biso   1.000  H
  H175     1.0000 0.55940  0.55970  0.39950  Biso   1.000  H
  H176     1.0000 0.05940  0.05970  0.89950  Biso   1.000  H
  H177     1.0000 0.94030  0.60050  0.05940  Biso   1.000  H
  H178     1.0000 0.89950  0.94060  0.44030  Biso   1.000  H
  H179     1.0000 0.44030  0.10050  0.55940  Biso   1.000  H
  H180     1.0000 0.39950  0.44060  0.94030  Biso   1.000  H
  H181     1.0000 0.94060  0.44030  0.89950  Biso   1.000  H
  H182     1.0000 0.44060  0.94030  0.39950  Biso   1.000  H
  H183     1.0000 0.55970  0.39950  0.55940  Biso   1.000  H
  H184     1.0000 0.60050  0.05940  0.94030  Biso   1.000  H
  H185     1.0000 0.05970  0.89950  0.05940  Biso   1.000  H
  H186     1.0000 0.10050  0.55940  0.44030  Biso   1.000  H
  H187     1.0000 0.05940  0.94030  0.60050  Biso   1.000  H
  H188     1.0000 0.55940  0.44030  0.10050  Biso   1.000  H
  H189     1.0000 0.44030  0.89950  0.94060  Biso   1.000  H
  H190     1.0000 0.39950  0.55940  0.55970  Biso   1.000  H
  H191     1.0000 0.94030  0.39950  0.44060  Biso   1.000  H
  H192     1.0000 0.89950  0.05940  0.05970  Biso   1.000  H
  H193     1.0000 0.76330  0.12530  0.79390  Biso   1.000  H
  H194     1.0000 0.26330  0.62530  0.29390  Biso   1.000  H
  H195     1.0000 0.79390  0.76330  0.12530  Biso   1.000  H
  H196     1.0000 0.12530  0.79390  0.76330  Biso   1.000  H
  H197     1.0000 0.29390  0.26330  0.62530  Biso   1.000  H
  H198     1.0000 0.62530  0.29390  0.26330  Biso   1.000  H
  H199     1.0000 0.26330  0.37470  0.20610  Biso   1.000  H
  H200     1.0000 0.76330  0.87470  0.70610  Biso   1.000  H
  H201     1.0000 0.29390  0.73670  0.87470  Biso   1.000  H
  H202     1.0000 0.62530  0.70610  0.23670  Biso   1.000  H
  H203     1.0000 0.79390  0.23670  0.37470  Biso   1.000  H
  H204     1.0000 0.12530  0.20610  0.73670  Biso   1.000  H
  H205     1.0000 0.23670  0.62530  0.70610  Biso   1.000  H
  H206     1.0000 0.73670  0.12530  0.20610  Biso   1.000  H
  H207     1.0000 0.20610  0.26330  0.37470  Biso   1.000  H
  H208     1.0000 0.87470  0.29390  0.73670  Biso   1.000  H
  H209     1.0000 0.70610  0.76330  0.87470  Biso   1.000  H
  H210     1.0000 0.37470  0.79390  0.23670  Biso   1.000  H
  H211     1.0000 0.73670  0.87470  0.29390  Biso   1.000  H
  H212     1.0000 0.23670  0.37470  0.79390  Biso   1.000  H
  H213     1.0000 0.70610  0.23670  0.62530  Biso   1.000  H
  H214     1.0000 0.37470  0.20610  0.26330  Biso   1.000  H
  H215     1.0000 0.20610  0.73670  0.12530  Biso   1.000  H
  H216     1.0000 0.87470  0.70610  0.76330  Biso   1.000  H
  H217     1.0000 0.37530  0.01330  0.04390  Biso   1.000  H
  H218     1.0000 0.87530  0.51330  0.54390  Biso   1.000  H
  H219     1.0000 0.01330  0.04390  0.37530  Biso   1.000  H
  H220     1.0000 0.04390  0.37530  0.01330  Biso   1.000  H
  H221     1.0000 0.51330  0.54390  0.87530  Biso   1.000  H
  H222     1.0000 0.54390  0.87530  0.51330  Biso   1.000  H
  H223     1.0000 0.62470  0.51330  0.45610  Biso   1.000  H
  H224     1.0000 0.12470  0.01330  0.95610  Biso   1.000  H
  H225     1.0000 0.98670  0.54390  0.12470  Biso   1.000  H
  H226     1.0000 0.95610  0.87530  0.48670  Biso   1.000  H
  H227     1.0000 0.48670  0.04390  0.62470  Biso   1.000  H
  H228     1.0000 0.45610  0.37530  0.98670  Biso   1.000  H
  H229     1.0000 0.87530  0.48670  0.95610  Biso   1.000  H
  H230     1.0000 0.37530  0.98670  0.45610  Biso   1.000  H
  H231     1.0000 0.51330  0.45610  0.62470  Biso   1.000  H
  H232     1.0000 0.54390  0.12470  0.98670  Biso   1.000  H
  H233     1.0000 0.01330  0.95610  0.12470  Biso   1.000  H
  H234     1.0000 0.04390  0.62470  0.48670  Biso   1.000  H
  H235     1.0000 0.12470  0.98670  0.54390  Biso   1.000  H
  H236     1.0000 0.62470  0.48670  0.04390  Biso   1.000  H
  H237     1.0000 0.48670  0.95610  0.87530  Biso   1.000  H
  H238     1.0000 0.45610  0.62470  0.51330  Biso   1.000  H
  H239     1.0000 0.98670  0.45610  0.37530  Biso   1.000  H
  H240     1.0000 0.95610  0.12470  0.01330  Biso   1.000  H
  H241     1.0000 0.81360  0.13690  0.75330  Biso   1.000  H
  H242     1.0000 0.31360  0.63690  0.25330  Biso   1.000  H
  H243     1.0000 0.75330  0.81360  0.13690  Biso   1.000  H
  H244     1.0000 0.13690  0.75330  0.81360  Biso   1.000  H
  H245     1.0000 0.25330  0.31360  0.63690  Biso   1.000  H
  H246     1.0000 0.63690  0.25330  0.31360  Biso   1.000  H
  H247     1.0000 0.31360  0.36310  0.24670  Biso   1.000  H
  H248     1.0000 0.81360  0.86310  0.74670  Biso   1.000  H
  H249     1.0000 0.25330  0.68640  0.86310  Biso   1.000  H
  H250     1.0000 0.63690  0.74670  0.18640  Biso   1.000  H
  H251     1.0000 0.75330  0.18640  0.36310  Biso   1.000  H
  H252     1.0000 0.13690  0.24670  0.68640  Biso   1.000  H
  H253     1.0000 0.18640  0.63690  0.74670  Biso   1.000  H
  H254     1.0000 0.68640  0.13690  0.24670  Biso   1.000  H
  H255     1.0000 0.24670  0.31360  0.36310  Biso   1.000  H
  H256     1.0000 0.86310  0.25330  0.68640  Biso   1.000  H
  H257     1.0000 0.74670  0.81360  0.86310  Biso   1.000  H
  H258     1.0000 0.36310  0.75330  0.18640  Biso   1.000  H
  H259     1.0000 0.68640  0.86310  0.25330  Biso   1.000  H
  H260     1.0000 0.18640  0.36310  0.75330  Biso   1.000  H
  H261     1.0000 0.74670  0.18640  0.63690  Biso   1.000  H
  H262     1.0000 0.36310  0.24670  0.31360  Biso   1.000  H
  H263     1.0000 0.24670  0.68640  0.13690  Biso   1.000  H
  H264     1.0000 0.86310  0.74670  0.81360  Biso   1.000  H
  H265     1.0000 0.38690  0.06360  0.00330  Biso   1.000  H
  H266     1.0000 0.88690  0.56360  0.50330  Biso   1.000  H
  H267     1.0000 0.06360  0.00330  0.38690  Biso   1.000  H
  H268     1.0000 0.00330  0.38690  0.06360  Biso   1.000  H
  H269     1.0000 0.56360  0.50330  0.88690  Biso   1.000  H
  H270     1.0000 0.50330  0.88690  0.56360  Biso   1.000  H
  H271     1.0000 0.61310  0.56360  0.49670  Biso   1.000  H
  H272     1.0000 0.11310  0.06360  0.99670  Biso   1.000  H
  H273     1.0000 0.93640  0.50330  0.11310  Biso   1.000  H
  H274     1.0000 0.99670  0.88690  0.43640  Biso   1.000  H
  H275     1.0000 0.43640  0.00330  0.61310  Biso   1.000  H
  H276     1.0000 0.49670  0.38690  0.93640  Biso   1.000  H
  H277     1.0000 0.88690  0.43640  0.99670  Biso   1.000  H
  H278     1.0000 0.38690  0.93640  0.49670  Biso   1.000  H
  H279     1.0000 0.56360  0.49670  0.61310  Biso   1.000  H
  H280     1.0000 0.50330  0.11310  0.93640  Biso   1.000  H
  H281     1.0000 0.06360  0.99670  0.11310  Biso   1.000  H
  H282     1.0000 0.00330  0.61310  0.43640  Biso   1.000  H
  H283     1.0000 0.11310  0.93640  0.50330  Biso   1.000  H
  H284     1.0000 0.61310  0.43640  0.00330  Biso   1.000  H
  H285     1.0000 0.43640  0.99670  0.88690  Biso   1.000  H
  H286     1.0000 0.49670  0.61310  0.56360  Biso   1.000  H
  H287     1.0000 0.93640  0.49670  0.38690  Biso   1.000  H
  H288     1.0000 0.99670  0.11310  0.06360  Biso   1.000  H
  H289     1.0000 0.79300  0.03480  0.79130  Biso   1.000  H
  H290     1.0000 0.29300  0.53480  0.29130  Biso   1.000  H
  H291     1.0000 0.79130  0.79300  0.03480  Biso   1.000  H
  H292     1.0000 0.03480  0.79130  0.79300  Biso   1.000  H
  H293     1.0000 0.29130  0.29300  0.53480  Biso   1.000  H
  H294     1.0000 0.53480  0.29130  0.29300  Biso   1.000  H
  H295     1.0000 0.29300  0.46520  0.20870  Biso   1.000  H
  H296     1.0000 0.79300  0.96520  0.70870  Biso   1.000  H
  H297     1.0000 0.29130  0.70700  0.96520  Biso   1.000  H
  H298     1.0000 0.53480  0.70870  0.20700  Biso   1.000  H
  H299     1.0000 0.79130  0.20700  0.46520  Biso   1.000  H
  H300     1.0000 0.03480  0.20870  0.70700  Biso   1.000  H
  H301     1.0000 0.20700  0.53480  0.70870  Biso   1.000  H
  H302     1.0000 0.70700  0.03480  0.20870  Biso   1.000  H
  H303     1.0000 0.20870  0.29300  0.46520  Biso   1.000  H
  H304     1.0000 0.96520  0.29130  0.70700  Biso   1.000  H
  H305     1.0000 0.70870  0.79300  0.96520  Biso   1.000  H
  H306     1.0000 0.46520  0.79130  0.20700  Biso   1.000  H
  H307     1.0000 0.70700  0.96520  0.29130  Biso   1.000  H
  H308     1.0000 0.20700  0.46520  0.79130  Biso   1.000  H
  H309     1.0000 0.70870  0.20700  0.53480  Biso   1.000  H
  H310     1.0000 0.46520  0.20870  0.29300  Biso   1.000  H
  H311     1.0000 0.20870  0.70700  0.03480  Biso   1.000  H
  H312     1.0000 0.96520  0.70870  0.79300  Biso   1.000  H
  H313     1.0000 0.28480  0.04300  0.04130  Biso   1.000  H
  H314     1.0000 0.78480  0.54300  0.54130  Biso   1.000  H
  H315     1.0000 0.04300  0.04130  0.28480  Biso   1.000  H
  H316     1.0000 0.04130  0.28480  0.04300  Biso   1.000  H
  H317     1.0000 0.54300  0.54130  0.78480  Biso   1.000  H
  H318     1.0000 0.54130  0.78480  0.54300  Biso   1.000  H
  H319     1.0000 0.71520  0.54300  0.45870  Biso   1.000  H
  H320     1.0000 0.21520  0.04300  0.95870  Biso   1.000  H
  H321     1.0000 0.95700  0.54130  0.21520  Biso   1.000  H
  H322     1.0000 0.95870  0.78480  0.45700  Biso   1.000  H
  H323     1.0000 0.45700  0.04130  0.71520  Biso   1.000  H
  H324     1.0000 0.45870  0.28480  0.95700  Biso   1.000  H
  H325     1.0000 0.78480  0.45700  0.95870  Biso   1.000  H
  H326     1.0000 0.28480  0.95700  0.45870  Biso   1.000  H
  H327     1.0000 0.54300  0.45870  0.71520  Biso   1.000  H
  H328     1.0000 0.54130  0.21520  0.95700  Biso   1.000  H
  H329     1.0000 0.04300  0.95870  0.21520  Biso   1.000  H
  H330     1.0000 0.04130  0.71520  0.45700  Biso   1.000  H
  H331     1.0000 0.21520  0.95700  0.54130  Biso   1.000  H
  H332     1.0000 0.71520  0.45700  0.04130  Biso   1.000  H
  H333     1.0000 0.45700  0.95870  0.78480  Biso   1.000  H
  H334     1.0000 0.45870  0.71520  0.54300  Biso   1.000  H
  H335     1.0000 0.95700  0.45870  0.28480  Biso   1.000  H
  H336     1.0000 0.95870  0.21520  0.04300  Biso   1.000  H
  H337     1.0000 0.85210  0.05130  0.77020  Biso   1.000  H
  H338     1.0000 0.35210  0.55130  0.27020  Biso   1.000  H
  H339     1.0000 0.77020  0.85210  0.05130  Biso   1.000  H
  H340     1.0000 0.05130  0.77020  0.85210  Biso   1.000  H
  H341     1.0000 0.27020  0.35210  0.55130  Biso   1.000  H
  H342     1.0000 0.55130  0.27020  0.35210  Biso   1.000  H
  H343     1.0000 0.35210  0.44870  0.22980  Biso   1.000  H
  H344     1.0000 0.85210  0.94870  0.72980  Biso   1.000  H
  H345     1.0000 0.27020  0.64790  0.94870  Biso   1.000  H
  H346     1.0000 0.55130  0.72980  0.14790  Biso   1.000  H
  H347     1.0000 0.77020  0.14790  0.44870  Biso   1.000  H
  H348     1.0000 0.05130  0.22980  0.64790  Biso   1.000  H
  H349     1.0000 0.14790  0.55130  0.72980  Biso   1.000  H
  H350     1.0000 0.64790  0.05130  0.22980  Biso   1.000  H
  H351     1.0000 0.22980  0.35210  0.44870  Biso   1.000  H
  H352     1.0000 0.94870  0.27020  0.64790  Biso   1.000  H
  H353     1.0000 0.72980  0.85210  0.94870  Biso   1.000  H
  H354     1.0000 0.44870  0.77020  0.14790  Biso   1.000  H
  H355     1.0000 0.64790  0.94870  0.27020  Biso   1.000  H
  H356     1.0000 0.14790  0.44870  0.77020  Biso   1.000  H
  H357     1.0000 0.72980  0.14790  0.55130  Biso   1.000  H
  H358     1.0000 0.44870  0.22980  0.35210  Biso   1.000  H
  H359     1.0000 0.22980  0.64790  0.05130  Biso   1.000  H
  H360     1.0000 0.94870  0.72980  0.85210  Biso   1.000  H
  H361     1.0000 0.30130  0.10210  0.02020  Biso   1.000  H
  H362     1.0000 0.80130  0.60210  0.52020  Biso   1.000  H
  H363     1.0000 0.10210  0.02020  0.30130  Biso   1.000  H
  H364     1.0000 0.02020  0.30130  0.10210  Biso   1.000  H
  H365     1.0000 0.60210  0.52020  0.80130  Biso   1.000  H
  H366     1.0000 0.52020  0.80130  0.60210  Biso   1.000  H
  H367     1.0000 0.69870  0.60210  0.47980  Biso   1.000  H
  H368     1.0000 0.19870  0.10210  0.97980  Biso   1.000  H
  H369     1.0000 0.89790  0.52020  0.19870  Biso   1.000  H
  H370     1.0000 0.97980  0.80130  0.39790  Biso   1.000  H
  H371     1.0000 0.39790  0.02020  0.69870  Biso   1.000  H
  H372     1.0000 0.47980  0.30130  0.89790  Biso   1.000  H
  H373     1.0000 0.80130  0.39790  0.97980  Biso   1.000  H
  H374     1.0000 0.30130  0.89790  0.47980  Biso   1.000  H
  H375     1.0000 0.60210  0.47980  0.69870  Biso   1.000  H
  H376     1.0000 0.52020  0.19870  0.89790  Biso   1.000  H
  H377     1.0000 0.10210  0.97980  0.19870  Biso   1.000  H
  H378     1.0000 0.02020  0.69870  0.39790  Biso   1.000  H
  H379     1.0000 0.19870  0.89790  0.52020  Biso   1.000  H
  H380     1.0000 0.69870  0.39790  0.02020  Biso   1.000  H
  H381     1.0000 0.39790  0.97980  0.80130  Biso   1.000  H
  H382     1.0000 0.47980  0.69870  0.60210  Biso   1.000  H
  H383     1.0000 0.89790  0.47980  0.30130  Biso   1.000  H
  H384     1.0000 0.97980  0.19870  0.10210  Biso   1.000  H
