data_image0
_cell_length_a       13.414
_cell_length_b       24.535
_cell_length_c       32.152
_cell_angle_alpha    69.742
_cell_angle_beta     86.87
_cell_angle_gamma    85.929

_symmetry_space_group_name_H-M    "P 1"
_symmetry_int_tables_number       1

loop_
  _symmetry_equiv_pos_as_xyz
  'x, y, z'

loop_
  _atom_site_label
  _atom_site_occupancy
  _atom_site_fract_x
  _atom_site_fract_y
  _atom_site_fract_z
  _atom_site_thermal_displace_type
  _atom_site_B_iso_or_equiv
  _atom_site_type_symbol
  Cu1      1.0000 0.39748  0.19843  0.88771  Biso   1.000  Cu
  Cu2      1.0000 0.60252  0.80157  0.11229  Biso   1.000  Cu
  Cu3      1.0000 0.53979  0.27407  0.92150  Biso   1.000  Cu
  Cu4      1.0000 0.46021  0.72593  0.07850  Biso   1.000  Cu
  Cu5      1.0000 0.23530  0.72599  0.63139  Biso   1.000  Cu
  Cu6      1.0000 0.76470  0.27401  0.36861  Biso   1.000  Cu
  Cu7      1.0000 0.08711  0.65556  0.59443  Biso   1.000  Cu
  Cu8      1.0000 0.91289  0.34444  0.40557  Biso   1.000  Cu
  P1       1.0000 0.28695  0.26897  0.89486  Biso   1.000  P
  P2       1.0000 0.71305  0.73103  0.10514  Biso   1.000  P
  P3       1.0000 0.43590  0.35332  0.89751  Biso   1.000  P
  P4       1.0000 0.56410  0.64668  0.10249  Biso   1.000  P
  P5       1.0000 0.49366  0.22541  0.82432  Biso   1.000  P
  P6       1.0000 0.50634  0.77459  0.17568  Biso   1.000  P
  P7       1.0000 0.65181  0.26138  0.87093  Biso   1.000  P
  P8       1.0000 0.34819  0.73862  0.12907  Biso   1.000  P
  P9       1.0000 0.35078  0.65227  0.64023  Biso   1.000  P
  P10      1.0000 0.64922  0.34773  0.35977  Biso   1.000  P
  P11      1.0000 0.21411  0.58874  0.60429  Biso   1.000  P
  P12      1.0000 0.78589  0.41126  0.39571  Biso   1.000  P
  P13      1.0000 0.11544  0.72641  0.68377  Biso   1.000  P
  P14      1.0000 0.88456  0.27359  0.31623  Biso   1.000  P
  P15      1.0000 0.97252  0.66424  0.64543  Biso   1.000  P
  P16      1.0000 0.02748  0.33576  0.35457  Biso   1.000  P
  S1       1.0000 0.67947  0.92456  0.25343  Biso   1.000  S
  S2       1.0000 0.32053  0.07544  0.74657  Biso   1.000  S
  S3       1.0000 0.81708  0.03426  0.69598  Biso   1.000  S
  S4       1.0000 0.18292  0.96574  0.30402  Biso   1.000  S
  S5       1.0000 0.84932  0.02615  0.28456  Biso   1.000  S
  S6       1.0000 0.15068  0.97385  0.71544  Biso   1.000  S
  N1       1.0000 0.45510  0.14081  0.94212  Biso   1.000  N
  N2       1.0000 0.54490  0.85919  0.05788  Biso   1.000  N
  N3       1.0000 0.30040  0.14491  0.87302  Biso   1.000  N
  N4       1.0000 0.69960  0.85509  0.12698  Biso   1.000  N
  N5       1.0000 0.56720  0.23300  0.98289  Biso   1.000  N
  N6       1.0000 0.43280  0.76700  0.01711  Biso   1.000  N
  N7       1.0000 0.17920  0.76530  0.57189  Biso   1.000  N
  N8       1.0000 0.82080  0.23470  0.42811  Biso   1.000  N
  N9       1.0000 0.32900  0.78725  0.63256  Biso   1.000  N
  N10      1.0000 0.67100  0.21275  0.36744  Biso   1.000  N
  N11      1.0000 0.04090  0.68910  0.53313  Biso   1.000  N
  N12      1.0000 0.95910  0.31090  0.46687  Biso   1.000  N
  C1       1.0000 0.33160  0.34235  0.86781  Biso   1.000  C
  C2       1.0000 0.66840  0.65765  0.13219  Biso   1.000  C
  H1       1.0000 0.35290  0.34750  0.83740  Biso   1.000  H
  H2       1.0000 0.64710  0.65250  0.16260  Biso   1.000  H
  H3       1.0000 0.27770  0.37100  0.86730  Biso   1.000  H
  H4       1.0000 0.72230  0.62900  0.13270  Biso   1.000  H
  C3       1.0000 0.17220  0.27052  0.86649  Biso   1.000  C
  C4       1.0000 0.82780  0.72948  0.13351  Biso   1.000  C
  C5       1.0000 0.09960  0.23220  0.88939  Biso   1.000  C
  C6       1.0000 0.90040  0.76780  0.11061  Biso   1.000  C
  H5       1.0000 0.10840  0.20860  0.91880  Biso   1.000  H
  H6       1.0000 0.89160  0.79140  0.08120  Biso   1.000  H
  C7       1.0000 0.01370  0.22970  0.86773  Biso   1.000  C
  C8       1.0000 0.98630  0.77030  0.13227  Biso   1.000  C
  H7       1.0000 0.96480  0.20440  0.88280  Biso   1.000  H
  H8       1.0000 0.03520  0.79560  0.11720  Biso   1.000  H
  C9       1.0000 0.00070  0.26410  0.82444  Biso   1.000  C
  C10      1.0000 0.99930  0.73590  0.17556  Biso   1.000  C
  H9       1.0000 0.94310  0.26200  0.81040  Biso   1.000  H
  H10      1.0000 0.05690  0.73800  0.18960  Biso   1.000  H
  C11      1.0000 0.07250  0.30210  0.80135  Biso   1.000  C
  C12      1.0000 0.92750  0.69790  0.19865  Biso   1.000  C
  H11      1.0000 0.06350  0.32540  0.77190  Biso   1.000  H
  H12      1.0000 0.93650  0.67460  0.22810  Biso   1.000  H
  C13      1.0000 0.15830  0.30490  0.82279  Biso   1.000  C
  C14      1.0000 0.84170  0.69510  0.17721  Biso   1.000  C
  H13      1.0000 0.20690  0.33030  0.80750  Biso   1.000  H
  H14      1.0000 0.79310  0.66970  0.19250  Biso   1.000  H
  C15      1.0000 0.24150  0.26950  0.94919  Biso   1.000  C
  C16      1.0000 0.75850  0.73050  0.05081  Biso   1.000  C
  C17      1.0000 0.16880  0.31180  0.95300  Biso   1.000  C
  C18      1.0000 0.83120  0.68820  0.04700  Biso   1.000  C
  H15      1.0000 0.14260  0.33960  0.92770  Biso   1.000  H
  H16      1.0000 0.85740  0.66040  0.07230  Biso   1.000  H
  C19      1.0000 0.13740  0.31190  0.99330  Biso   1.000  C
  C20      1.0000 0.86260  0.68810  0.00670  Biso   1.000  C
  H17      1.0000 0.08730  0.33910  0.99550  Biso   1.000  H
  H18      1.0000 0.91270  0.66090  0.00450  Biso   1.000  H
  C21      1.0000 0.17650  0.27370  0.03050  Biso   1.000  C
  C22      1.0000 0.82350  0.72630  0.96950  Biso   1.000  C
  H19      1.0000 0.15610  0.27660  0.05780  Biso   1.000  H
  H20      1.0000 0.84390  0.72340  0.94220  Biso   1.000  H
  C23      1.0000 0.24930  0.22840  0.02880  Biso   1.000  C
  C24      1.0000 0.75070  0.77160  0.97120  Biso   1.000  C
  H21      1.0000 0.27410  0.20040  0.05440  Biso   1.000  H
  H22      1.0000 0.72590  0.79960  0.94560  Biso   1.000  H
  C25      1.0000 0.28060  0.22940  0.98588  Biso   1.000  C
  C26      1.0000 0.71940  0.77060  0.01412  Biso   1.000  C
  H23      1.0000 0.32910  0.20180  0.98280  Biso   1.000  H
  H24      1.0000 0.67090  0.79820  0.01720  Biso   1.000  H
  C27      1.0000 0.50120  0.41180  0.85730  Biso   1.000  C
  C28      1.0000 0.49880  0.58820  0.14270  Biso   1.000  C
  C29      1.0000 0.46850  0.44420  0.81510  Biso   1.000  C
  C30      1.0000 0.53150  0.55580  0.18490  Biso   1.000  C
  H25      1.0000 0.40730  0.43710  0.80620  Biso   1.000  H
  H26      1.0000 0.59270  0.56290  0.19380  Biso   1.000  H
  C31      1.0000 0.52670  0.48770  0.78550  Biso   1.000  C
  C32      1.0000 0.47330  0.51230  0.21450  Biso   1.000  C
  H27      1.0000 0.50320  0.50910  0.75750  Biso   1.000  H
  H28      1.0000 0.49680  0.49090  0.24250  Biso   1.000  H
  C33      1.0000 0.61660  0.49870  0.79730  Biso   1.000  C
  C34      1.0000 0.38340  0.50130  0.20270  Biso   1.000  C
  H29      1.0000 0.65530  0.52660  0.77720  Biso   1.000  H
  H30      1.0000 0.34470  0.47340  0.22280  Biso   1.000  H
  C35      1.0000 0.65090  0.46760  0.84000  Biso   1.000  C
  C36      1.0000 0.34910  0.53240  0.16000  Biso   1.000  C
  H31      1.0000 0.71130  0.47620  0.84860  Biso   1.000  H
  H32      1.0000 0.28870  0.52380  0.15140  Biso   1.000  H
  C37      1.0000 0.59540  0.42450  0.86920  Biso   1.000  C
  C38      1.0000 0.40460  0.57550  0.13080  Biso   1.000  C
  H33      1.0000 0.61980  0.40340  0.89710  Biso   1.000  H
  H34      1.0000 0.38020  0.59660  0.10290  Biso   1.000  H
  C39      1.0000 0.37670  0.38580  0.93670  Biso   1.000  C
  C40      1.0000 0.62330  0.61420  0.06330  Biso   1.000  C
  C41      1.0000 0.31340  0.43660  0.92030  Biso   1.000  C
  C42      1.0000 0.68660  0.56340  0.07970  Biso   1.000  C
  H35      1.0000 0.30290  0.45140  0.89000  Biso   1.000  H
  H36      1.0000 0.69710  0.54860  0.11000  Biso   1.000  H
  C43      1.0000 0.26770  0.46450  0.94570  Biso   1.000  C
  C44      1.0000 0.73230  0.53550  0.05430  Biso   1.000  C
  H37      1.0000 0.22620  0.49790  0.93430  Biso   1.000  H
  H38      1.0000 0.77380  0.50210  0.06570  Biso   1.000  H
  C45      1.0000 0.28740  0.43960  0.99020  Biso   1.000  C
  C46      1.0000 0.71260  0.56040  0.00980  Biso   1.000  C
  H39      1.0000 0.25620  0.45660  0.00960  Biso   1.000  H
  H40      1.0000 0.74380  0.54340  0.99040  Biso   1.000  H
  C47      1.0000 0.35070  0.39110  0.00750  Biso   1.000  C
  C48      1.0000 0.64930  0.60890  0.99250  Biso   1.000  C
  H41      1.0000 0.36280  0.37690  0.03770  Biso   1.000  H
  H42      1.0000 0.63720  0.62310  0.96230  Biso   1.000  H
  C49      1.0000 0.39710  0.36290  0.97940  Biso   1.000  C
  C50      1.0000 0.60290  0.63710  0.02060  Biso   1.000  C
  H43      1.0000 0.43980  0.32990  0.99030  Biso   1.000  H
  H44      1.0000 0.56020  0.67010  0.00970  Biso   1.000  H
  C51      1.0000 0.59050  0.27697  0.81804  Biso   1.000  C
  C52      1.0000 0.40950  0.72303  0.18196  Biso   1.000  C
  H45      1.0000 0.56070  0.31630  0.80840  Biso   1.000  H
  H46      1.0000 0.43930  0.68370  0.19160  Biso   1.000  H
  H47      1.0000 0.63980  0.27410  0.79560  Biso   1.000  H
  H48      1.0000 0.36020  0.72590  0.20440  Biso   1.000  H
  C53      1.0000 0.41920  0.26031  0.77536  Biso   1.000  C
  C54      1.0000 0.58080  0.73969  0.22464  Biso   1.000  C
  C55      1.0000 0.36670  0.22390  0.75846  Biso   1.000  C
  C56      1.0000 0.63330  0.77610  0.24154  Biso   1.000  C
  H49      1.0000 0.37440  0.18360  0.77140  Biso   1.000  H
  H50      1.0000 0.62560  0.81640  0.22860  Biso   1.000  H
  C57      1.0000 0.30540  0.24810  0.72340  Biso   1.000  C
  C58      1.0000 0.69460  0.75190  0.27660  Biso   1.000  C
  H51      1.0000 0.27420  0.22400  0.71190  Biso   1.000  H
  H52      1.0000 0.72580  0.77600  0.28810  Biso   1.000  H
  C59      1.0000 0.33760  0.34340  0.72177  Biso   1.000  C
  C60      1.0000 0.66240  0.65660  0.27823  Biso   1.000  C
  H53      1.0000 0.32640  0.38350  0.70960  Biso   1.000  H
  H54      1.0000 0.67360  0.61650  0.29040  Biso   1.000  H
  C61      1.0000 0.40210  0.31990  0.75629  Biso   1.000  C
  C62      1.0000 0.59790  0.68010  0.24371  Biso   1.000  C
  H55      1.0000 0.43440  0.34450  0.76690  Biso   1.000  H
  H56      1.0000 0.56560  0.65550  0.23310  Biso   1.000  H
  C63      1.0000 0.56260  0.16600  0.81203  Biso   1.000  C
  C64      1.0000 0.43740  0.83400  0.18797  Biso   1.000  C
  C65      1.0000 0.60410  0.17550  0.76995  Biso   1.000  C
  C66      1.0000 0.39590  0.82450  0.23005  Biso   1.000  C
  H57      1.0000 0.59360  0.21150  0.74780  Biso   1.000  H
  H58      1.0000 0.40640  0.78850  0.25220  Biso   1.000  H
  C67      1.0000 0.66080  0.13200  0.76090  Biso   1.000  C
  C68      1.0000 0.33920  0.86800  0.23910  Biso   1.000  C
  H59      1.0000 0.68720  0.13830  0.73230  Biso   1.000  H
  H60      1.0000 0.31280  0.86170  0.26770  Biso   1.000  H
  C69      1.0000 0.67810  0.08150  0.79200  Biso   1.000  C
  C70      1.0000 0.32190  0.91850  0.20800  Biso   1.000  C
  H61      1.0000 0.71850  0.05300  0.78540  Biso   1.000  H
  H62      1.0000 0.28150  0.94700  0.21460  Biso   1.000  H
  C71      1.0000 0.63650  0.06940  0.83580  Biso   1.000  C
  C72      1.0000 0.36350  0.93060  0.16420  Biso   1.000  C
  H63      1.0000 0.64840  0.03340  0.85780  Biso   1.000  H
  H64      1.0000 0.35160  0.96660  0.14220  Biso   1.000  H
  C73      1.0000 0.57740  0.11340  0.84448  Biso   1.000  C
  C74      1.0000 0.42260  0.88660  0.15552  Biso   1.000  C
  H65      1.0000 0.54800  0.10690  0.87250  Biso   1.000  H
  H66      1.0000 0.45200  0.89310  0.12750  Biso   1.000  H
  C75      1.0000 0.74930  0.31284  0.86033  Biso   1.000  C
  C76      1.0000 0.25070  0.68716  0.13967  Biso   1.000  C
  C77      1.0000 0.78010  0.34810  0.81833  Biso   1.000  C
  C78      1.0000 0.21990  0.65190  0.18167  Biso   1.000  C
  H67      1.0000 0.74990  0.34700  0.79330  Biso   1.000  H
  H68      1.0000 0.25010  0.65300  0.20670  Biso   1.000  H
  C79      1.0000 0.85700  0.38510  0.81419  Biso   1.000  C
  C80      1.0000 0.14300  0.61490  0.18581  Biso   1.000  C
  H69      1.0000 0.87750  0.40910  0.78610  Biso   1.000  H
  H70      1.0000 0.12250  0.59090  0.21390  Biso   1.000  H
  C81      1.0000 0.90290  0.38660  0.85078  Biso   1.000  C
  C82      1.0000 0.09710  0.61340  0.14922  Biso   1.000  C
  H71      1.0000 0.95560  0.41070  0.84740  Biso   1.000  H
  H72      1.0000 0.04440  0.58930  0.15260  Biso   1.000  H
  C83      1.0000 0.87100  0.35250  0.89272  Biso   1.000  C
  C84      1.0000 0.12900  0.64750  0.10728  Biso   1.000  C
  H73      1.0000 0.90100  0.35430  0.91760  Biso   1.000  H
  H74      1.0000 0.09900  0.64570  0.08240  Biso   1.000  H
  C85      1.0000 0.79470  0.31602  0.89764  Biso   1.000  C
  C86      1.0000 0.20530  0.68398  0.10236  Biso   1.000  C
  H75      1.0000 0.77300  0.29330  0.92590  Biso   1.000  H
  H76      1.0000 0.22700  0.70670  0.07410  Biso   1.000  H
  C87      1.0000 0.72470  0.19268  0.88020  Biso   1.000  C
  C88      1.0000 0.27530  0.80732  0.11980  Biso   1.000  C
  C89      1.0000 0.78240  0.18180  0.84638  Biso   1.000  C
  C90      1.0000 0.21760  0.81820  0.15362  Biso   1.000  C
  H77      1.0000 0.78230  0.20890  0.81780  Biso   1.000  H
  H78      1.0000 0.21770  0.79110  0.18220  Biso   1.000  H
  C91      1.0000 0.84020  0.13000  0.85560  Biso   1.000  C
  C92      1.0000 0.15980  0.87000  0.14440  Biso   1.000  C
  H79      1.0000 0.87760  0.12210  0.83290  Biso   1.000  H
  H80      1.0000 0.12240  0.87790  0.16710  Biso   1.000  H
  C93      1.0000 0.84240  0.09040  0.89800  Biso   1.000  C
  C94      1.0000 0.15760  0.90960  0.10200  Biso   1.000  C
  H81      1.0000 0.88190  0.05600  0.90380  Biso   1.000  H
  H82      1.0000 0.11810  0.94400  0.09620  Biso   1.000  H
  C95      1.0000 0.78680  0.10080  0.93232  Biso   1.000  C
  C96      1.0000 0.21320  0.89920  0.06768  Biso   1.000  C
  H83      1.0000 0.78920  0.07420  0.96110  Biso   1.000  H
  H84      1.0000 0.21080  0.92580  0.03890  Biso   1.000  H
  C97      1.0000 0.72710  0.15203  0.92270  Biso   1.000  C
  C98      1.0000 0.27290  0.84797  0.07730  Biso   1.000  C
  H85      1.0000 0.68800  0.15920  0.94520  Biso   1.000  H
  H86      1.0000 0.31200  0.84080  0.05480  Biso   1.000  H
  C99      1.0000 0.30250  0.58111  0.64793  Biso   1.000  C
  C100     1.0000 0.69750  0.41889  0.35207  Biso   1.000  C
  H87      1.0000 0.26910  0.56610  0.67680  Biso   1.000  H
  H88      1.0000 0.73090  0.43390  0.32320  Biso   1.000  H
  H89      1.0000 0.35750  0.55380  0.64660  Biso   1.000  H
  H90      1.0000 0.64250  0.44620  0.35340  Biso   1.000  H
  C101     1.0000 0.45080  0.66100  0.59760  Biso   1.000  C
  C102     1.0000 0.54920  0.33900  0.40240  Biso   1.000  C
  C103     1.0000 0.45570  0.71520  0.56410  Biso   1.000  C
  C104     1.0000 0.54430  0.28480  0.43590  Biso   1.000  C
  H91      1.0000 0.40510  0.74390  0.56180  Biso   1.000  H
  H92      1.0000 0.59490  0.25610  0.43820  Biso   1.000  H
  C105     1.0000 0.53610  0.72560  0.53480  Biso   1.000  C
  C106     1.0000 0.46390  0.27440  0.46520  Biso   1.000  C
  H93      1.0000 0.54160  0.76230  0.51340  Biso   1.000  H
  H94      1.0000 0.45840  0.23770  0.48660  Biso   1.000  H
  C107     1.0000 0.60710  0.68330  0.53660  Biso   1.000  C
  C108     1.0000 0.39290  0.31670  0.46340  Biso   1.000  C
  H95      1.0000 0.65920  0.69050  0.51550  Biso   1.000  H
  H96      1.0000 0.34080  0.30950  0.48450  Biso   1.000  H
  C109     1.0000 0.60380  0.63010  0.56880  Biso   1.000  C
  C110     1.0000 0.39620  0.36990  0.43120  Biso   1.000  C
  H97      1.0000 0.65310  0.60130  0.56940  Biso   1.000  H
  H98      1.0000 0.34690  0.39870  0.43060  Biso   1.000  H
  C111     1.0000 0.52460  0.61830  0.60210  Biso   1.000  C
  C112     1.0000 0.47540  0.38170  0.39790  Biso   1.000  C
  H99      1.0000 0.52350  0.58310  0.62560  Biso   1.000  H
  H100     1.0000 0.47650  0.41690  0.37440  Biso   1.000  H
  C113     1.0000 0.41940  0.64210  0.68980  Biso   1.000  C
  C114     1.0000 0.58060  0.35790  0.31020  Biso   1.000  C
  C115     1.0000 0.37080  0.61680  0.73158  Biso   1.000  C
  C116     1.0000 0.62920  0.38320  0.26842  Biso   1.000  C
  H101     1.0000 0.30940  0.60040  0.73380  Biso   1.000  H
  H102     1.0000 0.69060  0.39960  0.26620  Biso   1.000  H
  C117     1.0000 0.41810  0.61710  0.77030  Biso   1.000  C
  C118     1.0000 0.58190  0.38290  0.22970  Biso   1.000  C
  H103     1.0000 0.38700  0.60010  0.79790  Biso   1.000  H
  H104     1.0000 0.61300  0.39990  0.20210  Biso   1.000  H
  C119     1.0000 0.50620  0.64110  0.76800  Biso   1.000  C
  C120     1.0000 0.49380  0.35890  0.23200  Biso   1.000  C
  H105     1.0000 0.53490  0.64210  0.79340  Biso   1.000  H
  H106     1.0000 0.46510  0.35790  0.20660  Biso   1.000  H
  C121     1.0000 0.55210  0.66370  0.72740  Biso   1.000  C
  C122     1.0000 0.44790  0.33630  0.27260  Biso   1.000  C
  H107     1.0000 0.61460  0.67850  0.72630  Biso   1.000  H
  H108     1.0000 0.38540  0.32150  0.27370  Biso   1.000  H
  C123     1.0000 0.51230  0.66680  0.68630  Biso   1.000  C
  C124     1.0000 0.48770  0.33320  0.31370  Biso   1.000  C
  H109     1.0000 0.54540  0.68380  0.65920  Biso   1.000  H
  H110     1.0000 0.45460  0.31620  0.34080  Biso   1.000  H
  C125     1.0000 0.29320  0.59840  0.55381  Biso   1.000  C
  C126     1.0000 0.70680  0.40160  0.44619  Biso   1.000  C
  C127     1.0000 0.28270  0.64920  0.51857  Biso   1.000  C
  C128     1.0000 0.71730  0.35080  0.48143  Biso   1.000  C
  H111     1.0000 0.23500  0.67740  0.52110  Biso   1.000  H
  H112     1.0000 0.76500  0.32260  0.47890  Biso   1.000  H
  C129     1.0000 0.33900  0.66120  0.47930  Biso   1.000  C
  C130     1.0000 0.66100  0.33880  0.52070  Biso   1.000  C
  H113     1.0000 0.32970  0.69680  0.45650  Biso   1.000  H
  H114     1.0000 0.67030  0.30320  0.54350  Biso   1.000  H
  C131     1.0000 0.40370  0.62290  0.47460  Biso   1.000  C
  C132     1.0000 0.59630  0.37710  0.52540  Biso   1.000  C
  H115     1.0000 0.44130  0.63080  0.44820  Biso   1.000  H
  H116     1.0000 0.55870  0.36920  0.55180  Biso   1.000  H
  C133     1.0000 0.41890  0.57020  0.50790  Biso   1.000  C
  C134     1.0000 0.58110  0.42980  0.49210  Biso   1.000  C
  H117     1.0000 0.46500  0.54240  0.50350  Biso   1.000  H
  H118     1.0000 0.53500  0.45760  0.49650  Biso   1.000  H
  C135     1.0000 0.36210  0.55720  0.55090  Biso   1.000  C
  C136     1.0000 0.63790  0.44280  0.44910  Biso   1.000  C
  H119     1.0000 0.37350  0.52270  0.57440  Biso   1.000  H
  H120     1.0000 0.62650  0.47730  0.42560  Biso   1.000  H
  C137     1.0000 0.16800  0.51760  0.61695  Biso   1.000  C
  C138     1.0000 0.83200  0.48240  0.38305  Biso   1.000  C
  C139     1.0000 0.13640  0.50150  0.58300  Biso   1.000  C
  C140     1.0000 0.86360  0.49850  0.41700  Biso   1.000  C
  H121     1.0000 0.14520  0.52680  0.55400  Biso   1.000  H
  H122     1.0000 0.85480  0.47320  0.44600  Biso   1.000  H
  C141     1.0000 0.09270  0.45000  0.58980  Biso   1.000  C
  C142     1.0000 0.90730  0.55000  0.41020  Biso   1.000  C
  H123     1.0000 0.07400  0.43940  0.56640  Biso   1.000  H
  H124     1.0000 0.92600  0.56060  0.43360  Biso   1.000  H
  C143     1.0000 0.07770  0.41380  0.63500  Biso   1.000  C
  C144     1.0000 0.92230  0.58620  0.36500  Biso   1.000  C
  H125     1.0000 0.04300  0.38030  0.64120  Biso   1.000  H
  H126     1.0000 0.95700  0.61970  0.35880  Biso   1.000  H
  C145     1.0000 0.11130  0.42630  0.66810  Biso   1.000  C
  C146     1.0000 0.88870  0.57370  0.33190  Biso   1.000  C
  H127     1.0000 0.10650  0.39970  0.69690  Biso   1.000  H
  H128     1.0000 0.89350  0.60030  0.30310  Biso   1.000  H
  C147     1.0000 0.15490  0.48040  0.66000  Biso   1.000  C
  C148     1.0000 0.84510  0.51960  0.34000  Biso   1.000  C
  H129     1.0000 0.17450  0.49050  0.68350  Biso   1.000  H
  H130     1.0000 0.82550  0.50950  0.31650  Biso   1.000  H
  C149     1.0000 0.02210  0.67141  0.69514  Biso   1.000  C
  C150     1.0000 0.97790  0.32859  0.30486  Biso   1.000  C
  H131     1.0000 0.05210  0.63400  0.71300  Biso   1.000  H
  H132     1.0000 0.94790  0.36600  0.28700  Biso   1.000  H
  H133     1.0000 0.96690  0.68130  0.71250  Biso   1.000  H
  H134     1.0000 0.03310  0.31870  0.28750  Biso   1.000  H
  C151     1.0000 0.04280  0.79521  0.67361  Biso   1.000  C
  C152     1.0000 0.95720  0.20479  0.32639  Biso   1.000  C
  C153     1.0000 0.06390  0.84280  0.63653  Biso   1.000  C
  C154     1.0000 0.93610  0.15720  0.36347  Biso   1.000  C
  H135     1.0000 0.11580  0.83950  0.61700  Biso   1.000  H
  H136     1.0000 0.88420  0.16050  0.38300  Biso   1.000  H
  C155     1.0000 0.00950  0.89530  0.62782  Biso   1.000  C
  C156     1.0000 0.99050  0.10470  0.37218  Biso   1.000  C
  H137     1.0000 0.02400  0.92640  0.60220  Biso   1.000  H
  H138     1.0000 0.97600  0.07360  0.39780  Biso   1.000  H
  C157     1.0000 0.93530  0.90190  0.65620  Biso   1.000  C
  C158     1.0000 0.06470  0.09810  0.34380  Biso   1.000  C
  H139     1.0000 0.89810  0.93710  0.65020  Biso   1.000  H
  H140     1.0000 0.10190  0.06290  0.34980  Biso   1.000  H
  C159     1.0000 0.91540  0.85440  0.69500  Biso   1.000  C
  C160     1.0000 0.08460  0.14560  0.30500  Biso   1.000  C
  H141     1.0000 0.86710  0.85850  0.71580  Biso   1.000  H
  H142     1.0000 0.13290  0.14150  0.28420  Biso   1.000  H
  C161     1.0000 0.96780  0.80200  0.70200  Biso   1.000  C
  C162     1.0000 0.03220  0.19800  0.29800  Biso   1.000  C
  H143     1.0000 0.95150  0.77020  0.72670  Biso   1.000  H
  H144     1.0000 0.04850  0.22980  0.27330  Biso   1.000  H
  C163     1.0000 0.16380  0.71510  0.73826  Biso   1.000  C
  C164     1.0000 0.83620  0.28490  0.26174  Biso   1.000  C
  C165     1.0000 0.14750  0.66530  0.77583  Biso   1.000  C
  C166     1.0000 0.85250  0.33470  0.22417  Biso   1.000  C
  H145     1.0000 0.10960  0.63600  0.77390  Biso   1.000  H
  H146     1.0000 0.89040  0.36400  0.22610  Biso   1.000  H
  C167     1.0000 0.18890  0.66030  0.81620  Biso   1.000  C
  C168     1.0000 0.81110  0.33970  0.18380  Biso   1.000  C
  H147     1.0000 0.17860  0.62750  0.84110  Biso   1.000  H
  H148     1.0000 0.82140  0.37250  0.15890  Biso   1.000  H
  C169     1.0000 0.24430  0.70340  0.81940  Biso   1.000  C
  C170     1.0000 0.75570  0.29660  0.18060  Biso   1.000  C
  H149     1.0000 0.27020  0.69990  0.84650  Biso   1.000  H
  H150     1.0000 0.72980  0.30010  0.15350  Biso   1.000  H
  C171     1.0000 0.26210  0.75230  0.78250  Biso   1.000  C
  C172     1.0000 0.73790  0.24770  0.21750  Biso   1.000  C
  H151     1.0000 0.30180  0.78070  0.78460  Biso   1.000  H
  H152     1.0000 0.69820  0.21930  0.21540  Biso   1.000  H
  C173     1.0000 0.21930  0.75870  0.74120  Biso   1.000  C
  C174     1.0000 0.78070  0.24130  0.25880  Biso   1.000  C
  H153     1.0000 0.22870  0.79190  0.71660  Biso   1.000  H
  H154     1.0000 0.77130  0.20810  0.28340  Biso   1.000  H
  C175     1.0000 0.87400  0.72161  0.62835  Biso   1.000  C
  C176     1.0000 0.12600  0.27839  0.37165  Biso   1.000  C
  C177     1.0000 0.71950  0.80730  0.59910  Biso   1.000  C
  C178     1.0000 0.28050  0.19270  0.40090  Biso   1.000  C
  C179     1.0000 0.88610  0.76840  0.59360  Biso   1.000  C
  C180     1.0000 0.11390  0.23160  0.40640  Biso   1.000  C
  H155     1.0000 0.94650  0.77420  0.57740  Biso   1.000  H
  H156     1.0000 0.05350  0.22580  0.42260  Biso   1.000  H
  C181     1.0000 0.71450  0.75750  0.64670  Biso   1.000  C
  C182     1.0000 0.28550  0.24250  0.35330  Biso   1.000  C
  H157     1.0000 0.65960  0.75610  0.66590  Biso   1.000  H
  H158     1.0000 0.34040  0.24390  0.33410  Biso   1.000  H
  C183     1.0000 0.79490  0.71610  0.65880  Biso   1.000  C
  C184     1.0000 0.20510  0.28390  0.34120  Biso   1.000  C
  H159     1.0000 0.79510  0.68620  0.68620  Biso   1.000  H
  H160     1.0000 0.20490  0.31380  0.31380  Biso   1.000  H
  C185     1.0000 0.80520  0.80960  0.58150  Biso   1.000  C
  C186     1.0000 0.19480  0.19040  0.41850  Biso   1.000  C
  H161     1.0000 0.81680  0.84290  0.55720  Biso   1.000  H
  H162     1.0000 0.18320  0.15710  0.44280  Biso   1.000  H
  C187     1.0000 0.82410  0.72810  0.58470  Biso   1.000  C
  C188     1.0000 0.17590  0.27190  0.41530  Biso   1.000  C
  H163     1.0000 0.84430  0.70290  0.56950  Biso   1.000  H
  H164     1.0000 0.15570  0.29710  0.43050  Biso   1.000  H
  C189     1.0000 0.74940  0.77100  0.56780  Biso   1.000  C
  C190     1.0000 0.25060  0.22900  0.43220  Biso   1.000  C
  H165     1.0000 0.72000  0.77780  0.54080  Biso   1.000  H
  H166     1.0000 0.28000  0.22220  0.45920  Biso   1.000  H
  C191     1.0000 0.76240  0.80490  0.62670  Biso   1.000  C
  C192     1.0000 0.23760  0.19510  0.37330  Biso   1.000  C
  H167     1.0000 0.75100  0.83400  0.63900  Biso   1.000  H
  H168     1.0000 0.24900  0.16600  0.36100  Biso   1.000  H
  C193     1.0000 0.83460  0.76070  0.64520  Biso   1.000  C
  C194     1.0000 0.16540  0.23930  0.35480  Biso   1.000  C
  H169     1.0000 0.85770  0.75840  0.67260  Biso   1.000  H
  H170     1.0000 0.14230  0.24160  0.32740  Biso   1.000  H
  C195     1.0000 0.90430  0.59812  0.66717  Biso   1.000  C
  C196     1.0000 0.09570  0.40188  0.33283  Biso   1.000  C
  C197     1.0000 0.80100  0.49430  0.69750  Biso   1.000  C
  C198     1.0000 0.19900  0.50570  0.30250  Biso   1.000  C
  C199     1.0000 0.94120  0.54420  0.68020  Biso   1.000  C
  C200     1.0000 0.05880  0.45580  0.31980  Biso   1.000  C
  H171     1.0000 0.01050  0.53920  0.67860  Biso   1.000  H
  H172     1.0000 0.98950  0.46080  0.32140  Biso   1.000  H
  C201     1.0000 0.88840  0.49250  0.69640  Biso   1.000  C
  C202     1.0000 0.11160  0.50750  0.30360  Biso   1.000  C
  H173     1.0000 0.92380  0.45660  0.70630  Biso   1.000  H
  H174     1.0000 0.07620  0.54340  0.29370  Biso   1.000  H
  C203     1.0000 0.73760  0.55040  0.68450  Biso   1.000  C
  C204     1.0000 0.26240  0.44960  0.31550  Biso   1.000  C
  H175     1.0000 0.66820  0.55080  0.68690  Biso   1.000  H
  H176     1.0000 0.33180  0.44920  0.31310  Biso   1.000  H
  C205     1.0000 0.78660  0.60020  0.66930  Biso   1.000  C
  C206     1.0000 0.21340  0.39980  0.33070  Biso   1.000  C
  H177     1.0000 0.75060  0.63590  0.66010  Biso   1.000  H
  H178     1.0000 0.24940  0.36410  0.33990  Biso   1.000  H
  C207     1.0000 0.85890  0.51610  0.72640  Biso   1.000  C
  C208     1.0000 0.14110  0.48390  0.27360  Biso   1.000  C
  H179     1.0000 0.86370  0.49230  0.75590  Biso   1.000  H
  H180     1.0000 0.13630  0.50770  0.24410  Biso   1.000  H
  C209     1.0000 0.89420  0.57400  0.63850  Biso   1.000  C
  C210     1.0000 0.10580  0.42600  0.36150  Biso   1.000  C
  H181     1.0000 0.91840  0.59100  0.60950  Biso   1.000  H
  H182     1.0000 0.08160  0.40900  0.39050  Biso   1.000  H
  C211     1.0000 0.90560  0.56770  0.71390  Biso   1.000  C
  C212     1.0000 0.09440  0.43230  0.28610  Biso   1.000  C
  H183     1.0000 0.93490  0.58130  0.73370  Biso   1.000  H
  H184     1.0000 0.06510  0.41870  0.26630  Biso   1.000  H
  C213     1.0000 0.84660  0.52180  0.65110  Biso   1.000  C
  C214     1.0000 0.15340  0.47820  0.34890  Biso   1.000  C
  H185     1.0000 0.84250  0.50310  0.63050  Biso   1.000  H
  H186     1.0000 0.15750  0.49690  0.36950  Biso   1.000  H
  C215     1.0000 0.48020  0.11270  0.97684  Biso   1.000  C
  C216     1.0000 0.51980  0.88730  0.02316  Biso   1.000  C
  C217     1.0000 0.50810  0.07920  0.02165  Biso   1.000  C
  C218     1.0000 0.49190  0.92080  0.97835  Biso   1.000  C
  C219     1.0000 0.58810  0.03898  0.03072  Biso   1.000  C
  C220     1.0000 0.41190  0.96102  0.96928  Biso   1.000  C
  H187     1.0000 0.62370  0.03050  0.00790  Biso   1.000  H
  H188     1.0000 0.37630  0.96950  0.99210  Biso   1.000  H
  C221     1.0000 0.45450  0.09070  0.05650  Biso   1.000  C
  C222     1.0000 0.54550  0.90930  0.94350  Biso   1.000  C
  H189     1.0000 0.40070  0.11800  0.05060  Biso   1.000  H
  H190     1.0000 0.59930  0.88200  0.94940  Biso   1.000  H
  C223     1.0000 0.61470  0.01139  0.07439  Biso   1.000  C
  C224     1.0000 0.38530  0.98861  0.92561  Biso   1.000  C
  H191     1.0000 0.66910  0.98450  0.08050  Biso   1.000  H
  H192     1.0000 0.33090  0.01550  0.91950  Biso   1.000  H
  C225     1.0000 0.48140  0.06180  0.09936  Biso   1.000  C
  C226     1.0000 0.51860  0.93820  0.90064  Biso   1.000  C
  H193     1.0000 0.44370  0.06880  0.12230  Biso   1.000  H
  H194     1.0000 0.55630  0.93120  0.87770  Biso   1.000  H
  C227     1.0000 0.56280  0.02258  0.10936  Biso   1.000  C
  C228     1.0000 0.43720  0.97742  0.89064  Biso   1.000  C
  C229     1.0000 0.59350  0.99290  0.15498  Biso   1.000  C
  C230     1.0000 0.40650  0.00710  0.84502  Biso   1.000  C
  H195     1.0000 0.65150  0.96880  0.15930  Biso   1.000  H
  H196     1.0000 0.34850  0.03120  0.84070  Biso   1.000  H
  C231     1.0000 0.54540  0.99760  0.19054  Biso   1.000  C
  C232     1.0000 0.45460  0.00240  0.80946  Biso   1.000  C
  H197     1.0000 0.48830  0.02240  0.18580  Biso   1.000  H
  H198     1.0000 0.51170  0.97760  0.81420  Biso   1.000  H
  C233     1.0000 0.57260  0.96800  0.23624  Biso   1.000  C
  C234     1.0000 0.42740  0.03200  0.76376  Biso   1.000  C
  C235     1.0000 0.51530  0.97090  0.27254  Biso   1.000  C
  C236     1.0000 0.48470  0.02910  0.72746  Biso   1.000  C
  H199     1.0000 0.45450  0.99230  0.27040  Biso   1.000  H
  H200     1.0000 0.54550  0.00770  0.72960  Biso   1.000  H
  C237     1.0000 0.55840  0.93830  0.31277  Biso   1.000  C
  C238     1.0000 0.44160  0.06170  0.68723  Biso   1.000  C
  H201     1.0000 0.52810  0.93560  0.34010  Biso   1.000  H
  H202     1.0000 0.47190  0.06440  0.65990  Biso   1.000  H
  C239     1.0000 0.64860  0.91060  0.30892  Biso   1.000  C
  C240     1.0000 0.35140  0.08940  0.69108  Biso   1.000  C
  C241     1.0000 0.70910  0.87601  0.34568  Biso   1.000  C
  C242     1.0000 0.29090  0.12399  0.65432  Biso   1.000  C
  H203     1.0000 0.68410  0.87370  0.37380  Biso   1.000  H
  H204     1.0000 0.31590  0.12630  0.62620  Biso   1.000  H
  C243     1.0000 0.79610  0.84713  0.34434  Biso   1.000  C
  C244     1.0000 0.20390  0.15287  0.65566  Biso   1.000  C
  H205     1.0000 0.82400  0.84910  0.31680  Biso   1.000  H
  H206     1.0000 0.17600  0.15090  0.68320  Biso   1.000  H
  C245     1.0000 0.85040  0.81239  0.38401  Biso   1.000  C
  C246     1.0000 0.14960  0.18761  0.61599  Biso   1.000  C
  C247     1.0000 0.93370  0.77710  0.38091  Biso   1.000  C
  C248     1.0000 0.06630  0.22290  0.61909  Biso   1.000  C
  H207     1.0000 0.95450  0.77600  0.35310  Biso   1.000  H
  H208     1.0000 0.04550  0.22400  0.64690  Biso   1.000  H
  C249     1.0000 0.81960  0.81350  0.42613  Biso   1.000  C
  C250     1.0000 0.18040  0.18650  0.57387  Biso   1.000  C
  H209     1.0000 0.76400  0.83680  0.42920  Biso   1.000  H
  H210     1.0000 0.23600  0.16320  0.57080  Biso   1.000  H
  C251     1.0000 0.98740  0.74340  0.41741  Biso   1.000  C
  C252     1.0000 0.01260  0.25660  0.58259  Biso   1.000  C
  H211     1.0000 0.04390  0.72070  0.41430  Biso   1.000  H
  H212     1.0000 0.95610  0.27930  0.58570  Biso   1.000  H
  C253     1.0000 0.87150  0.78020  0.46276  Biso   1.000  C
  C254     1.0000 0.12850  0.21980  0.53724  Biso   1.000  C
  H213     1.0000 0.85070  0.78160  0.49050  Biso   1.000  H
  H214     1.0000 0.14930  0.21840  0.50950  Biso   1.000  H
  C255     1.0000 0.95420  0.74450  0.45943  Biso   1.000  C
  C256     1.0000 0.04580  0.25550  0.54057  Biso   1.000  C
  C257     1.0000 0.00500  0.71210  0.49917  Biso   1.000  C
  C258     1.0000 0.99500  0.28790  0.50083  Biso   1.000  C
  C259     1.0000 0.59580  0.21250  0.01792  Biso   1.000  C
  C260     1.0000 0.40420  0.78750  0.98208  Biso   1.000  C
  C261     1.0000 0.63200  0.18540  0.06209  Biso   1.000  C
  C262     1.0000 0.36800  0.81460  0.93791  Biso   1.000  C
  C263     1.0000 0.71960  0.15160  0.06857  Biso   1.000  C
  C264     1.0000 0.28040  0.84840  0.93143  Biso   1.000  C
  H215     1.0000 0.75550  0.14750  0.04410  Biso   1.000  H
  H216     1.0000 0.24450  0.85250  0.95590  Biso   1.000  H
  C265     1.0000 0.58020  0.19190  0.09750  Biso   1.000  C
  C266     1.0000 0.41980  0.80810  0.90250  Biso   1.000  C
  H217     1.0000 0.52300  0.21670  0.09370  Biso   1.000  H
  H218     1.0000 0.47700  0.78330  0.90630  Biso   1.000  H
  C267     1.0000 0.75590  0.12370  0.11029  Biso   1.000  C
  C268     1.0000 0.24410  0.87630  0.88971  Biso   1.000  C
  H219     1.0000 0.81660  0.10210  0.11360  Biso   1.000  H
  H220     1.0000 0.18340  0.89790  0.88640  Biso   1.000  H
  C269     1.0000 0.61550  0.15980  0.14130  Biso   1.000  C
  C270     1.0000 0.38450  0.84020  0.85870  Biso   1.000  C
  H221     1.0000 0.57840  0.16100  0.16630  Biso   1.000  H
  H222     1.0000 0.42160  0.83900  0.83370  Biso   1.000  H
  C271     1.0000 0.70450  0.12740  0.14570  Biso   1.000  C
  C272     1.0000 0.29550  0.87260  0.85430  Biso   1.000  C
  C273     1.0000 0.74200  0.09550  0.19180  Biso   1.000  C
  C274     1.0000 0.25800  0.90450  0.80820  Biso   1.000  C
  H223     1.0000 0.80510  0.07670  0.19350  Biso   1.000  H
  H224     1.0000 0.19490  0.92330  0.80650  Biso   1.000  H
  C275     1.0000 0.69720  0.09160  0.22850  Biso   1.000  C
  C276     1.0000 0.30280  0.90840  0.77150  Biso   1.000  C
  H225     1.0000 0.63390  0.11020  0.22660  Biso   1.000  H
  H226     1.0000 0.36610  0.88980  0.77340  Biso   1.000  H
  C277     1.0000 0.73190  0.06230  0.27222  Biso   1.000  C
  C278     1.0000 0.26810  0.93770  0.72778  Biso   1.000  C
  C279     1.0000 0.67980  0.05890  0.30980  Biso   1.000  C
  C280     1.0000 0.32020  0.94110  0.69020  Biso   1.000  C
  H227     1.0000 0.61540  0.07540  0.31060  Biso   1.000  H
  H228     1.0000 0.38460  0.92460  0.68940  Biso   1.000  H
  C281     1.0000 0.73440  0.02740  0.34800  Biso   1.000  C
  C282     1.0000 0.26560  0.97260  0.65200  Biso   1.000  C
  H229     1.0000 0.70820  0.02100  0.37650  Biso   1.000  H
  H230     1.0000 0.29180  0.97900  0.62350  Biso   1.000  H
  C283     1.0000 0.82700  0.00720  0.34000  Biso   1.000  C
  C284     1.0000 0.17300  0.99280  0.66000  Biso   1.000  C
  C285     1.0000 0.91270  0.96740  0.37090  Biso   1.000  C
  C286     1.0000 0.08730  0.03260  0.62910  Biso   1.000  C
  H231     1.0000 0.97270  0.95510  0.36020  Biso   1.000  H
  H232     1.0000 0.02730  0.04490  0.63980  Biso   1.000  H
  C287     1.0000 0.89070  0.95570  0.40860  Biso   1.000  C
  C288     1.0000 0.10930  0.04430  0.59140  Biso   1.000  C
  H233     1.0000 0.83090  0.96930  0.41840  Biso   1.000  H
  H234     1.0000 0.16910  0.03070  0.58160  Biso   1.000  H
  C289     1.0000 0.96930  0.91540  0.44100  Biso   1.000  C
  C290     1.0000 0.03070  0.08460  0.55900  Biso   1.000  C
  C291     1.0000 0.05680  0.89100  0.43042  Biso   1.000  C
  C292     1.0000 0.94320  0.10900  0.56958  Biso   1.000  C
  H235     1.0000 0.07730  0.90050  0.40080  Biso   1.000  H
  H236     1.0000 0.92270  0.09950  0.59920  Biso   1.000  H
  C293     1.0000 0.94280  0.90520  0.48390  Biso   1.000  C
  C294     1.0000 0.05720  0.09480  0.51610  Biso   1.000  C
  H237     1.0000 0.88520  0.92360  0.49130  Biso   1.000  H
  H238     1.0000 0.11480  0.07640  0.50870  Biso   1.000  H
  C295     1.0000 0.11670  0.85180  0.46309  Biso   1.000  C
  C296     1.0000 0.88330  0.14820  0.53691  Biso   1.000  C
  H239     1.0000 0.17510  0.83410  0.45560  Biso   1.000  H
  H240     1.0000 0.82490  0.16590  0.54440  Biso   1.000  H
  C297     1.0000 0.00060  0.86760  0.51640  Biso   1.000  C
  C298     1.0000 0.99940  0.13240  0.48360  Biso   1.000  C
  H241     1.0000 0.98120  0.86040  0.54600  Biso   1.000  H
  H242     1.0000 0.01880  0.13960  0.45400  Biso   1.000  H
  C299     1.0000 0.08670  0.84030  0.50638  Biso   1.000  C
  C300     1.0000 0.91330  0.15970  0.49362  Biso   1.000  C
  C301     1.0000 0.14150  0.79890  0.54159  Biso   1.000  C
  C302     1.0000 0.85850  0.20110  0.45841  Biso   1.000  C
  C303     1.0000 0.39090  0.81390  0.63717  Biso   1.000  C
  C304     1.0000 0.60910  0.18610  0.36283  Biso   1.000  C
  C305     1.0000 0.46530  0.84893  0.64435  Biso   1.000  C
  C306     1.0000 0.53470  0.15107  0.35565  Biso   1.000  C
  C307     1.0000 0.51330  0.83250  0.68502  Biso   1.000  C
  C308     1.0000 0.48670  0.16750  0.31498  Biso   1.000  C
  H243     1.0000 0.50010  0.79740  0.70720  Biso   1.000  H
  H244     1.0000 0.49990  0.20260  0.29280  Biso   1.000  H
  C309     1.0000 0.48930  0.90000  0.61062  Biso   1.000  C
  C310     1.0000 0.51070  0.10000  0.38938  Biso   1.000  C
  H245     1.0000 0.46150  0.90980  0.58290  Biso   1.000  H
  H246     1.0000 0.53850  0.09020  0.41710  Biso   1.000  H
  C311     1.0000 0.57910  0.86810  0.69182  Biso   1.000  C
  C312     1.0000 0.42090  0.13190  0.30818  Biso   1.000  C
  H247     1.0000 0.61050  0.85690  0.71880  Biso   1.000  H
  H248     1.0000 0.38950  0.14310  0.28120  Biso   1.000  H
  C313     1.0000 0.55420  0.93580  0.61843  Biso   1.000  C
  C314     1.0000 0.44580  0.06420  0.38157  Biso   1.000  C
  H249     1.0000 0.56770  0.97090  0.59630  Biso   1.000  H
  H250     1.0000 0.43230  0.02910  0.40370  Biso   1.000  H
  C315     1.0000 0.60020  0.92053  0.65923  Biso   1.000  C
  C316     1.0000 0.39980  0.07947  0.34077  Biso   1.000  C
  C317     1.0000 0.66570  0.96090  0.66774  Biso   1.000  C
  C318     1.0000 0.33430  0.03910  0.33226  Biso   1.000  C
  H251     1.0000 0.70740  0.94530  0.69170  Biso   1.000  H
  H252     1.0000 0.29260  0.05470  0.30830  Biso   1.000  H
  C319     1.0000 0.67130  0.01610  0.64532  Biso   1.000  C
  C320     1.0000 0.32870  0.98390  0.35468  Biso   1.000  C
  H253     1.0000 0.63340  0.03080  0.62000  Biso   1.000  H
  H254     1.0000 0.36660  0.96920  0.38000  Biso   1.000  H
  C321     1.0000 0.72820  0.05670  0.65481  Biso   1.000  C
  C322     1.0000 0.27180  0.94330  0.34519  Biso   1.000  C
  C323     1.0000 0.72260  0.11620  0.63669  Biso   1.000  C
  C324     1.0000 0.27740  0.88380  0.36331  Biso   1.000  C
  H255     1.0000 0.67810  0.13630  0.61460  Biso   1.000  H
  H256     1.0000 0.32190  0.86370  0.38540  Biso   1.000  H
  C325     1.0000 0.78940  0.14520  0.65389  Biso   1.000  C
  C326     1.0000 0.21060  0.85480  0.34611  Biso   1.000  C
  H257     1.0000 0.79520  0.18530  0.64400  Biso   1.000  H
  H258     1.0000 0.20480  0.81470  0.35600  Biso   1.000  H
  C327     1.0000 0.84400  0.10540  0.68726  Biso   1.000  C
  C328     1.0000 0.15600  0.89460  0.31274  Biso   1.000  C
  C329     1.0000 0.91570  0.11880  0.71404  Biso   1.000  C
  C330     1.0000 0.08430  0.88120  0.28596  Biso   1.000  C
  H259     1.0000 0.92900  0.15770  0.70710  Biso   1.000  H
  H260     1.0000 0.07100  0.84230  0.29290  Biso   1.000  H
  C331     1.0000 0.96390  0.08030  0.74763  Biso   1.000  C
  C332     1.0000 0.03610  0.91970  0.25237  Biso   1.000  C
  C333     1.0000 0.03460  0.09422  0.77562  Biso   1.000  C
  C334     1.0000 0.96540  0.90578  0.22438  Biso   1.000  C
  C335     1.0000 0.07330  0.04996  0.81253  Biso   1.000  C
  C336     1.0000 0.92670  0.95004  0.18747  Biso   1.000  C
  H261     1.0000 0.05400  0.01220  0.81900  Biso   1.000  H
  H262     1.0000 0.94600  0.98780  0.18100  Biso   1.000  H
  C337     1.0000 0.06290  0.15065  0.76700  Biso   1.000  C
  C338     1.0000 0.93710  0.84935  0.23300  Biso   1.000  C
  H263     1.0000 0.03650  0.18080  0.74300  Biso   1.000  H
  H264     1.0000 0.96350  0.81920  0.25700  Biso   1.000  H
  C339     1.0000 0.13890  0.06091  0.83948  Biso   1.000  C
  C340     1.0000 0.86110  0.93909  0.16052  Biso   1.000  C
  H265     1.0000 0.16360  0.03090  0.86400  Biso   1.000  H
  H266     1.0000 0.83640  0.96910  0.13600  Biso   1.000  H
  C341     1.0000 0.12940  0.16257  0.79353  Biso   1.000  C
  C342     1.0000 0.87060  0.83743  0.20647  Biso   1.000  C
  H267     1.0000 0.14820  0.20040  0.78730  Biso   1.000  H
  H268     1.0000 0.85180  0.79960  0.21270  Biso   1.000  H
  C343     1.0000 0.16840  0.11741  0.82991  Biso   1.000  C
  C344     1.0000 0.83160  0.88259  0.17009  Biso   1.000  C
  C345     1.0000 0.24270  0.13030  0.85506  Biso   1.000  C
  C346     1.0000 0.75730  0.86970  0.14494  Biso   1.000  C
  C347     1.0000 0.28900  0.30700  0.70496  Biso   1.000  C
  C348     1.0000 0.71100  0.69300  0.29504  Biso   1.000  C
  H269     1.0000 0.24600  0.32280  0.68150  Biso   1.000  H
  H270     1.0000 0.75400  0.67720  0.31850  Biso   1.000  H
  H271     1.0000 0.94600  0.04300  0.75380  Biso   1.000  H
  H272     1.0000 0.05400  0.95700  0.24620  Biso   1.000  H
