data_image0
_cell_length_a       17.413
_cell_length_b       19.386
_cell_length_c       23.367
_cell_angle_alpha    90
_cell_angle_beta     90
_cell_angle_gamma    90

_symmetry_space_group_name_H-M    "P 1"
_symmetry_int_tables_number       1

loop_
  _symmetry_equiv_pos_as_xyz
  'x, y, z'

loop_
  _atom_site_label
  _atom_site_occupancy
  _atom_site_fract_x
  _atom_site_fract_y
  _atom_site_fract_z
  _atom_site_thermal_displace_type
  _atom_site_B_iso_or_equiv
  _atom_site_type_symbol
  I1       1.0000 0.38499  0.99924  0.10527  Biso   1.000  I
  I2       1.0000 0.61501  0.00076  0.60527  Biso   1.000  I
  I3       1.0000 0.11501  0.49924  0.10527  Biso   1.000  I
  I4       1.0000 0.88499  0.50076  0.60527  Biso   1.000  I
  I5       1.0000 0.12953  0.99480  0.10524  Biso   1.000  I
  I6       1.0000 0.87047  0.00520  0.60524  Biso   1.000  I
  I7       1.0000 0.37047  0.49480  0.10524  Biso   1.000  I
  I8       1.0000 0.62953  0.50520  0.60524  Biso   1.000  I
  I9       1.0000 0.38532  0.24608  0.60528  Biso   1.000  I
  I10      1.0000 0.61468  0.75392  0.10528  Biso   1.000  I
  I11      1.0000 0.11468  0.74608  0.60528  Biso   1.000  I
  I12      1.0000 0.88532  0.25392  0.10528  Biso   1.000  I
  I13      1.0000 0.13344  0.26603  0.60511  Biso   1.000  I
  I14      1.0000 0.86656  0.73397  0.10511  Biso   1.000  I
  I15      1.0000 0.36656  0.76603  0.60511  Biso   1.000  I
  I16      1.0000 0.63344  0.23397  0.10511  Biso   1.000  I
  Cu1      1.0000 0.26058  0.95538  0.16316  Biso   1.000  Cu
  Cu2      1.0000 0.73942  0.04462  0.66316  Biso   1.000  Cu
  Cu3      1.0000 0.23942  0.45538  0.16316  Biso   1.000  Cu
  Cu4      1.0000 0.76058  0.54462  0.66316  Biso   1.000  Cu
  Cu5      1.0000 0.26050  0.95565  0.04714  Biso   1.000  Cu
  Cu6      1.0000 0.73950  0.04435  0.54714  Biso   1.000  Cu
  Cu7      1.0000 0.23950  0.45565  0.04714  Biso   1.000  Cu
  Cu8      1.0000 0.76050  0.54435  0.54714  Biso   1.000  Cu
  Cu9      1.0000 0.26394  0.29827  0.54692  Biso   1.000  Cu
  Cu10     1.0000 0.73606  0.70173  0.04692  Biso   1.000  Cu
  Cu11     1.0000 0.23606  0.79827  0.54692  Biso   1.000  Cu
  Cu12     1.0000 0.76394  0.20173  0.04692  Biso   1.000  Cu
  Cu13     1.0000 0.26353  0.29834  0.66349  Biso   1.000  Cu
  Cu14     1.0000 0.73647  0.70166  0.16349  Biso   1.000  Cu
  Cu15     1.0000 0.23647  0.79834  0.66349  Biso   1.000  Cu
  Cu16     1.0000 0.76353  0.20166  0.16349  Biso   1.000  Cu
  P1       1.0000 0.25601  0.84228  0.17171  Biso   1.000  P
  P2       1.0000 0.74399  0.15772  0.67171  Biso   1.000  P
  P3       1.0000 0.24399  0.34228  0.17171  Biso   1.000  P
  P4       1.0000 0.75601  0.65772  0.67171  Biso   1.000  P
  P5       1.0000 0.25691  0.84116  0.03843  Biso   1.000  P
  P6       1.0000 0.74309  0.15884  0.53843  Biso   1.000  P
  P7       1.0000 0.24309  0.34116  0.03843  Biso   1.000  P
  P8       1.0000 0.75691  0.65884  0.53843  Biso   1.000  P
  P9       1.0000 0.27049  0.41268  0.53837  Biso   1.000  P
  P10      1.0000 0.72951  0.58732  0.03837  Biso   1.000  P
  P11      1.0000 0.22951  0.91268  0.53837  Biso   1.000  P
  P12      1.0000 0.77049  0.08732  0.03837  Biso   1.000  P
  P13      1.0000 0.27119  0.41202  0.67179  Biso   1.000  P
  P14      1.0000 0.72881  0.58798  0.17179  Biso   1.000  P
  P15      1.0000 0.22881  0.91202  0.67179  Biso   1.000  P
  P16      1.0000 0.77119  0.08798  0.17179  Biso   1.000  P
  N1       1.0000 0.26135  0.02112  0.23152  Biso   1.000  N
  N2       1.0000 0.73865  0.97888  0.73152  Biso   1.000  N
  N3       1.0000 0.23865  0.52112  0.23152  Biso   1.000  N
  N4       1.0000 0.76135  0.47888  0.73152  Biso   1.000  N
  N5       1.0000 0.26107  0.23263  0.47928  Biso   1.000  N
  N6       1.0000 0.73893  0.76737  0.97928  Biso   1.000  N
  N7       1.0000 0.23893  0.73263  0.47928  Biso   1.000  N
  N8       1.0000 0.76107  0.26737  0.97928  Biso   1.000  N
  N9       1.0000 0.26280  0.02179  0.98202  Biso   1.000  N
  N10      1.0000 0.73720  0.97821  0.48202  Biso   1.000  N
  N11      1.0000 0.23720  0.52179  0.98202  Biso   1.000  N
  N12      1.0000 0.76280  0.47821  0.48202  Biso   1.000  N
  N13      1.0000 0.25929  0.23324  0.73298  Biso   1.000  N
  N14      1.0000 0.74071  0.76676  0.23298  Biso   1.000  N
  N15      1.0000 0.24071  0.73324  0.73298  Biso   1.000  N
  N16      1.0000 0.75929  0.26676  0.23298  Biso   1.000  N
  C1       1.0000 0.16213  0.80647  0.18450  Biso   1.000  C
  C2       1.0000 0.83787  0.19353  0.68450  Biso   1.000  C
  C3       1.0000 0.33787  0.30647  0.18450  Biso   1.000  C
  C4       1.0000 0.66213  0.69353  0.68450  Biso   1.000  C
  H1       1.0000 0.13520  0.81020  0.14780  Biso   1.000  H
  H2       1.0000 0.86480  0.18980  0.64780  Biso   1.000  H
  H3       1.0000 0.36480  0.31020  0.14780  Biso   1.000  H
  H4       1.0000 0.63520  0.68980  0.64780  Biso   1.000  H
  C5       1.0000 0.16010  0.73179  0.19904  Biso   1.000  C
  C6       1.0000 0.83990  0.26821  0.69904  Biso   1.000  C
  C7       1.0000 0.33990  0.23179  0.19904  Biso   1.000  C
  C8       1.0000 0.66010  0.76821  0.69904  Biso   1.000  C
  H5       1.0000 0.19040  0.72280  0.23310  Biso   1.000  H
  H6       1.0000 0.80960  0.27720  0.73310  Biso   1.000  H
  H7       1.0000 0.30960  0.22280  0.23310  Biso   1.000  H
  H8       1.0000 0.69040  0.77720  0.73310  Biso   1.000  H
  H9       1.0000 0.18060  0.70460  0.16780  Biso   1.000  H
  H10      1.0000 0.81940  0.29540  0.66780  Biso   1.000  H
  H11      1.0000 0.31940  0.20460  0.16780  Biso   1.000  H
  H12      1.0000 0.68060  0.79540  0.66780  Biso   1.000  H
  C9       1.0000 0.07012  0.71222  0.21031  Biso   1.000  C
  C10      1.0000 0.92988  0.28778  0.71031  Biso   1.000  C
  C11      1.0000 0.42988  0.21222  0.21031  Biso   1.000  C
  C12      1.0000 0.57012  0.78778  0.71031  Biso   1.000  C
  H13      1.0000 0.04440  0.71530  0.17360  Biso   1.000  H
  H14      1.0000 0.95560  0.28470  0.67360  Biso   1.000  H
  H15      1.0000 0.45560  0.21530  0.17360  Biso   1.000  H
  H16      1.0000 0.54440  0.78470  0.67360  Biso   1.000  H
  H17      1.0000 0.06900  0.66400  0.22140  Biso   1.000  H
  H18      1.0000 0.93100  0.33600  0.72140  Biso   1.000  H
  H19      1.0000 0.43100  0.16400  0.22140  Biso   1.000  H
  H20      1.0000 0.56900  0.83600  0.72140  Biso   1.000  H
  C13      1.0000 0.02810  0.74469  0.24628  Biso   1.000  C
  C14      1.0000 0.97190  0.25531  0.74628  Biso   1.000  C
  C15      1.0000 0.47190  0.24469  0.24628  Biso   1.000  C
  C16      1.0000 0.52810  0.75531  0.74628  Biso   1.000  C
  H21      1.0000 0.04670  0.73750  0.28490  Biso   1.000  H
  H22      1.0000 0.95330  0.26250  0.78490  Biso   1.000  H
  H23      1.0000 0.45330  0.23750  0.28490  Biso   1.000  H
  H24      1.0000 0.54670  0.76250  0.78490  Biso   1.000  H
  H25      1.0000 0.97540  0.72870  0.24410  Biso   1.000  H
  H26      1.0000 0.02460  0.27130  0.74410  Biso   1.000  H
  H27      1.0000 0.52460  0.22870  0.24410  Biso   1.000  H
  H28      1.0000 0.47540  0.77130  0.74410  Biso   1.000  H
  C17      1.0000 0.03289  0.82080  0.23031  Biso   1.000  C
  C18      1.0000 0.96711  0.17920  0.73031  Biso   1.000  C
  C19      1.0000 0.46711  0.32080  0.23031  Biso   1.000  C
  C20      1.0000 0.53289  0.67920  0.73031  Biso   1.000  C
  H29      1.0000 0.00790  0.82800  0.19370  Biso   1.000  H
  H30      1.0000 0.99210  0.17200  0.69370  Biso   1.000  H
  H31      1.0000 0.49210  0.32800  0.19370  Biso   1.000  H
  H32      1.0000 0.50790  0.67200  0.69370  Biso   1.000  H
  H33      1.0000 0.00580  0.84790  0.25870  Biso   1.000  H
  H34      1.0000 0.99420  0.15210  0.75870  Biso   1.000  H
  H35      1.0000 0.49420  0.34790  0.25870  Biso   1.000  H
  H36      1.0000 0.50580  0.65210  0.75870  Biso   1.000  H
  C21      1.0000 0.11165  0.84400  0.22683  Biso   1.000  C
  C22      1.0000 0.88835  0.15600  0.72683  Biso   1.000  C
  C23      1.0000 0.38835  0.34400  0.22683  Biso   1.000  C
  C24      1.0000 0.61165  0.65600  0.72683  Biso   1.000  C
  H37      1.0000 0.13460  0.83980  0.26450  Biso   1.000  H
  H38      1.0000 0.86540  0.16020  0.76450  Biso   1.000  H
  H39      1.0000 0.36540  0.33980  0.26450  Biso   1.000  H
  H40      1.0000 0.63460  0.66020  0.76450  Biso   1.000  H
  H41      1.0000 0.11150  0.89260  0.21690  Biso   1.000  H
  H42      1.0000 0.88850  0.10740  0.71690  Biso   1.000  H
  H43      1.0000 0.38850  0.39260  0.21690  Biso   1.000  H
  H44      1.0000 0.61150  0.60740  0.71690  Biso   1.000  H
  C25      1.0000 0.32453  0.80241  0.22261  Biso   1.000  C
  C26      1.0000 0.67547  0.19759  0.72261  Biso   1.000  C
  C27      1.0000 0.17547  0.30241  0.22261  Biso   1.000  C
  C28      1.0000 0.82453  0.69759  0.72261  Biso   1.000  C
  H45      1.0000 0.32200  0.75200  0.21950  Biso   1.000  H
  H46      1.0000 0.67800  0.24800  0.71950  Biso   1.000  H
  H47      1.0000 0.17800  0.25200  0.21950  Biso   1.000  H
  H48      1.0000 0.82200  0.74800  0.71950  Biso   1.000  H
  C29      1.0000 0.30200  0.82480  0.28321  Biso   1.000  C
  C30      1.0000 0.69800  0.17520  0.78321  Biso   1.000  C
  C31      1.0000 0.19800  0.32480  0.28321  Biso   1.000  C
  C32      1.0000 0.80200  0.67520  0.78321  Biso   1.000  C
  H49      1.0000 0.25030  0.80860  0.29070  Biso   1.000  H
  H50      1.0000 0.74970  0.19140  0.79070  Biso   1.000  H
  H51      1.0000 0.24970  0.30860  0.29070  Biso   1.000  H
  H52      1.0000 0.75030  0.69140  0.79070  Biso   1.000  H
  H53      1.0000 0.30060  0.87490  0.28420  Biso   1.000  H
  H54      1.0000 0.69940  0.12510  0.78420  Biso   1.000  H
  H55      1.0000 0.19940  0.37490  0.28420  Biso   1.000  H
  H56      1.0000 0.80060  0.62510  0.78420  Biso   1.000  H
  C33      1.0000 0.35490  0.79950  0.33276  Biso   1.000  C
  C34      1.0000 0.64510  0.20050  0.83276  Biso   1.000  C
  C35      1.0000 0.14510  0.29950  0.33276  Biso   1.000  C
  C36      1.0000 0.85490  0.70050  0.83276  Biso   1.000  C
  H57      1.0000 0.34460  0.75130  0.34110  Biso   1.000  H
  H58      1.0000 0.65540  0.24870  0.84110  Biso   1.000  H
  H59      1.0000 0.15540  0.25130  0.34110  Biso   1.000  H
  H60      1.0000 0.84460  0.74870  0.84110  Biso   1.000  H
  H61      1.0000 0.34520  0.82620  0.36710  Biso   1.000  H
  H62      1.0000 0.65480  0.17380  0.86710  Biso   1.000  H
  H63      1.0000 0.15480  0.32620  0.36710  Biso   1.000  H
  H64      1.0000 0.84520  0.67380  0.86710  Biso   1.000  H
  C37      1.0000 0.44843  0.80930  0.31195  Biso   1.000  C
  C38      1.0000 0.55157  0.19070  0.81195  Biso   1.000  C
  C39      1.0000 0.05157  0.30930  0.31195  Biso   1.000  C
  C40      1.0000 0.94843  0.69070  0.81195  Biso   1.000  C
  H65      1.0000 0.45990  0.85720  0.30360  Biso   1.000  H
  H66      1.0000 0.54010  0.14280  0.80360  Biso   1.000  H
  H67      1.0000 0.04010  0.35720  0.30360  Biso   1.000  H
  H68      1.0000 0.95990  0.64280  0.80360  Biso   1.000  H
  H69      1.0000 0.48340  0.79290  0.34120  Biso   1.000  H
  H70      1.0000 0.51660  0.20710  0.84120  Biso   1.000  H
  H71      1.0000 0.01660  0.29290  0.34120  Biso   1.000  H
  H72      1.0000 0.98340  0.70710  0.84120  Biso   1.000  H
  C41      1.0000 0.45344  0.76292  0.25560  Biso   1.000  C
  C42      1.0000 0.54656  0.23708  0.75560  Biso   1.000  C
  C43      1.0000 0.04656  0.26292  0.25560  Biso   1.000  C
  C44      1.0000 0.95344  0.73708  0.75560  Biso   1.000  C
  H73      1.0000 0.42610  0.71960  0.25900  Biso   1.000  H
  H74      1.0000 0.57390  0.28040  0.75900  Biso   1.000  H
  H75      1.0000 0.07390  0.21960  0.25900  Biso   1.000  H
  H76      1.0000 0.92610  0.78040  0.75900  Biso   1.000  H
  H77      1.0000 0.50570  0.75500  0.24290  Biso   1.000  H
  H78      1.0000 0.49430  0.24500  0.74290  Biso   1.000  H
  H79      1.0000 0.99430  0.25500  0.24290  Biso   1.000  H
  H80      1.0000 0.00570  0.74500  0.74290  Biso   1.000  H
  C45      1.0000 0.40309  0.82583  0.21280  Biso   1.000  C
  C46      1.0000 0.59691  0.17417  0.71280  Biso   1.000  C
  C47      1.0000 0.09691  0.32583  0.21280  Biso   1.000  C
  C48      1.0000 0.90309  0.67417  0.71280  Biso   1.000  C
  H81      1.0000 0.41120  0.87240  0.22670  Biso   1.000  H
  H82      1.0000 0.58880  0.12760  0.72670  Biso   1.000  H
  H83      1.0000 0.08880  0.37240  0.22670  Biso   1.000  H
  H84      1.0000 0.91120  0.62760  0.72670  Biso   1.000  H
  H85      1.0000 0.41730  0.82310  0.17270  Biso   1.000  H
  H86      1.0000 0.58270  0.17690  0.67270  Biso   1.000  H
  H87      1.0000 0.08270  0.32310  0.17270  Biso   1.000  H
  H88      1.0000 0.91730  0.67690  0.67270  Biso   1.000  H
  C49      1.0000 0.15900  0.80460  0.02273  Biso   1.000  C
  C50      1.0000 0.84100  0.19540  0.52273  Biso   1.000  C
  C51      1.0000 0.34100  0.30460  0.02273  Biso   1.000  C
  C52      1.0000 0.65900  0.69540  0.52273  Biso   1.000  C
  H89      1.0000 0.12920  0.81420  0.05740  Biso   1.000  H
  H90      1.0000 0.87080  0.18580  0.55740  Biso   1.000  H
  H91      1.0000 0.37080  0.31420  0.05740  Biso   1.000  H
  H92      1.0000 0.62920  0.68580  0.55740  Biso   1.000  H
  C53      1.0000 0.11787  0.84410  0.97647  Biso   1.000  C
  C54      1.0000 0.88213  0.15590  0.47647  Biso   1.000  C
  C55      1.0000 0.38213  0.34410  0.97647  Biso   1.000  C
  C56      1.0000 0.61787  0.65590  0.47647  Biso   1.000  C
  H93      1.0000 0.14310  0.83660  0.94000  Biso   1.000  H
  H94      1.0000 0.85690  0.16340  0.44000  Biso   1.000  H
  H95      1.0000 0.35690  0.33660  0.94000  Biso   1.000  H
  H96      1.0000 0.64310  0.66340  0.44000  Biso   1.000  H
  H97      1.0000 0.11930  0.89310  0.98490  Biso   1.000  H
  H98      1.0000 0.88070  0.10690  0.48490  Biso   1.000  H
  H99      1.0000 0.38070  0.39310  0.98490  Biso   1.000  H
  H100     1.0000 0.61930  0.60690  0.48490  Biso   1.000  H
  C57      1.0000 0.03094  0.81847  0.97300  Biso   1.000  C
  C58      1.0000 0.96906  0.18153  0.47300  Biso   1.000  C
  C59      1.0000 0.46906  0.31847  0.97300  Biso   1.000  C
  C60      1.0000 0.53094  0.68153  0.47300  Biso   1.000  C
  H101     1.0000 0.00290  0.83390  0.00650  Biso   1.000  H
  H102     1.0000 0.99710  0.16610  0.50650  Biso   1.000  H
  H103     1.0000 0.49710  0.33390  0.00650  Biso   1.000  H
  H104     1.0000 0.50290  0.66610  0.50650  Biso   1.000  H
  H105     1.0000 0.00630  0.83780  0.93940  Biso   1.000  H
  H106     1.0000 0.99370  0.16220  0.43940  Biso   1.000  H
  H107     1.0000 0.49370  0.33780  0.93940  Biso   1.000  H
  H108     1.0000 0.50630  0.66220  0.43940  Biso   1.000  H
  C61      1.0000 0.02976  0.73850  0.96980  Biso   1.000  C
  C62      1.0000 0.97024  0.26150  0.46980  Biso   1.000  C
  C63      1.0000 0.47024  0.23850  0.96980  Biso   1.000  C
  C64      1.0000 0.52976  0.76150  0.46980  Biso   1.000  C
  H109     1.0000 0.05060  0.72500  0.93300  Biso   1.000  H
  H110     1.0000 0.94940  0.27500  0.43300  Biso   1.000  H
  H111     1.0000 0.44940  0.22500  0.93300  Biso   1.000  H
  H112     1.0000 0.55060  0.77500  0.43300  Biso   1.000  H
  H113     1.0000 0.97660  0.72370  0.97070  Biso   1.000  H
  H114     1.0000 0.02340  0.27630  0.47070  Biso   1.000  H
  H115     1.0000 0.52340  0.22370  0.97070  Biso   1.000  H
  H116     1.0000 0.47660  0.77630  0.47070  Biso   1.000  H
  C65      1.0000 0.07420  0.69798  0.01723  Biso   1.000  C
  C66      1.0000 0.92580  0.30202  0.51723  Biso   1.000  C
  C67      1.0000 0.42580  0.19798  0.01723  Biso   1.000  C
  C68      1.0000 0.57420  0.80202  0.51723  Biso   1.000  C
  H117     1.0000 0.05090  0.70570  0.05440  Biso   1.000  H
  H118     1.0000 0.94910  0.29430  0.55440  Biso   1.000  H
  H119     1.0000 0.44910  0.20570  0.05440  Biso   1.000  H
  H120     1.0000 0.55090  0.79430  0.55440  Biso   1.000  H
  H121     1.0000 0.07360  0.64890  0.00920  Biso   1.000  H
  H122     1.0000 0.92640  0.35110  0.50920  Biso   1.000  H
  H123     1.0000 0.42640  0.14890  0.00920  Biso   1.000  H
  H124     1.0000 0.57360  0.85110  0.50920  Biso   1.000  H
  C69      1.0000 0.15546  0.72521  0.01637  Biso   1.000  C
  C70      1.0000 0.84454  0.27479  0.51637  Biso   1.000  C
  C71      1.0000 0.34454  0.22521  0.01637  Biso   1.000  C
  C72      1.0000 0.65546  0.77479  0.51637  Biso   1.000  C
  H125     1.0000 0.17970  0.71210  0.98060  Biso   1.000  H
  H126     1.0000 0.82030  0.28790  0.48060  Biso   1.000  H
  H127     1.0000 0.32030  0.21210  0.98060  Biso   1.000  H
  H128     1.0000 0.67970  0.78790  0.48060  Biso   1.000  H
  H129     1.0000 0.18420  0.70410  0.04730  Biso   1.000  H
  H130     1.0000 0.81580  0.29590  0.54730  Biso   1.000  H
  H131     1.0000 0.31580  0.20410  0.04730  Biso   1.000  H
  H132     1.0000 0.68420  0.79590  0.54730  Biso   1.000  H
  C73      1.0000 0.31783  0.80300  0.98382  Biso   1.000  C
  C74      1.0000 0.68217  0.19700  0.48382  Biso   1.000  C
  C75      1.0000 0.18217  0.30300  0.98382  Biso   1.000  C
  C76      1.0000 0.81783  0.69700  0.48382  Biso   1.000  C
  H133     1.0000 0.30370  0.75410  0.98180  Biso   1.000  H
  H134     1.0000 0.69630  0.24590  0.48180  Biso   1.000  H
  H135     1.0000 0.19630  0.25410  0.98180  Biso   1.000  H
  H136     1.0000 0.80370  0.74590  0.48180  Biso   1.000  H
  C77      1.0000 0.40538  0.80530  0.00185  Biso   1.000  C
  C78      1.0000 0.59462  0.19470  0.50185  Biso   1.000  C
  C79      1.0000 0.09462  0.30530  0.00185  Biso   1.000  C
  C80      1.0000 0.90538  0.69470  0.50185  Biso   1.000  C
  H137     1.0000 0.41510  0.84820  0.02190  Biso   1.000  H
  H138     1.0000 0.58490  0.15180  0.52190  Biso   1.000  H
  H139     1.0000 0.08490  0.34820  0.02190  Biso   1.000  H
  H140     1.0000 0.91510  0.65180  0.52190  Biso   1.000  H
  H141     1.0000 0.41530  0.76790  0.02830  Biso   1.000  H
  H142     1.0000 0.58470  0.23210  0.52830  Biso   1.000  H
  H143     1.0000 0.08470  0.26790  0.02830  Biso   1.000  H
  H144     1.0000 0.91530  0.73210  0.52830  Biso   1.000  H
  C81      1.0000 0.45978  0.79981  0.95326  Biso   1.000  C
  C82      1.0000 0.54022  0.20019  0.45326  Biso   1.000  C
  C83      1.0000 0.04022  0.29981  0.95326  Biso   1.000  C
  C84      1.0000 0.95978  0.70019  0.45326  Biso   1.000  C
  H145     1.0000 0.50400  0.82820  0.96230  Biso   1.000  H
  H146     1.0000 0.49600  0.17180  0.46230  Biso   1.000  H
  H147     1.0000 0.99600  0.32820  0.96230  Biso   1.000  H
  H148     1.0000 0.00400  0.67180  0.46230  Biso   1.000  H
  H149     1.0000 0.47760  0.75240  0.95180  Biso   1.000  H
  H150     1.0000 0.52240  0.24760  0.45180  Biso   1.000  H
  H151     1.0000 0.02240  0.25240  0.95180  Biso   1.000  H
  H152     1.0000 0.97760  0.74760  0.45180  Biso   1.000  H
  C85      1.0000 0.43410  0.81870  0.89529  Biso   1.000  C
  C86      1.0000 0.56590  0.18130  0.39529  Biso   1.000  C
  C87      1.0000 0.06590  0.31870  0.89529  Biso   1.000  C
  C88      1.0000 0.93410  0.68130  0.39529  Biso   1.000  C
  H153     1.0000 0.43930  0.86820  0.89070  Biso   1.000  H
  H154     1.0000 0.56070  0.13180  0.39070  Biso   1.000  H
  H155     1.0000 0.06070  0.36820  0.89070  Biso   1.000  H
  H156     1.0000 0.93930  0.63180  0.39070  Biso   1.000  H
  H157     1.0000 0.46790  0.79690  0.86770  Biso   1.000  H
  H158     1.0000 0.53210  0.20310  0.36770  Biso   1.000  H
  H159     1.0000 0.03210  0.29690  0.86770  Biso   1.000  H
  H160     1.0000 0.96790  0.70310  0.36770  Biso   1.000  H
  C89      1.0000 0.36316  0.80130  0.88350  Biso   1.000  C
  C90      1.0000 0.63684  0.19870  0.38350  Biso   1.000  C
  C91      1.0000 0.13684  0.30130  0.88350  Biso   1.000  C
  C92      1.0000 0.86316  0.69870  0.38350  Biso   1.000  C
  H161     1.0000 0.35880  0.75140  0.88310  Biso   1.000  H
  H162     1.0000 0.64120  0.24860  0.38310  Biso   1.000  H
  H163     1.0000 0.14120  0.25140  0.88310  Biso   1.000  H
  H164     1.0000 0.85880  0.74860  0.38310  Biso   1.000  H
  H165     1.0000 0.34970  0.81820  0.84570  Biso   1.000  H
  H166     1.0000 0.65030  0.18180  0.34570  Biso   1.000  H
  H167     1.0000 0.15030  0.31820  0.84570  Biso   1.000  H
  H168     1.0000 0.84970  0.68180  0.34570  Biso   1.000  H
  C93      1.0000 0.30900  0.83020  0.92642  Biso   1.000  C
  C94      1.0000 0.69100  0.16980  0.42642  Biso   1.000  C
  C95      1.0000 0.19100  0.33020  0.92642  Biso   1.000  C
  C96      1.0000 0.80900  0.66980  0.42642  Biso   1.000  C
  H169     1.0000 0.31580  0.87990  0.92780  Biso   1.000  H
  H170     1.0000 0.68420  0.12010  0.42780  Biso   1.000  H
  H171     1.0000 0.18420  0.37990  0.92780  Biso   1.000  H
  H172     1.0000 0.81580  0.62010  0.42780  Biso   1.000  H
  H173     1.0000 0.25690  0.82130  0.91370  Biso   1.000  H
  H174     1.0000 0.74310  0.17870  0.41370  Biso   1.000  H
  H175     1.0000 0.24310  0.32130  0.91370  Biso   1.000  H
  H176     1.0000 0.75690  0.67870  0.41370  Biso   1.000  H
  C97      1.0000 0.28520  0.79865  0.10260  Biso   1.000  C
  C98      1.0000 0.71480  0.20135  0.60260  Biso   1.000  C
  C99      1.0000 0.21480  0.29865  0.10260  Biso   1.000  C
  C100     1.0000 0.78520  0.70135  0.60260  Biso   1.000  C
  H177     1.0000 0.34070  0.79400  0.10230  Biso   1.000  H
  H178     1.0000 0.65930  0.20600  0.60230  Biso   1.000  H
  H179     1.0000 0.15930  0.29400  0.10230  Biso   1.000  H
  H180     1.0000 0.84070  0.70600  0.60230  Biso   1.000  H
  H181     1.0000 0.26360  0.75250  0.10230  Biso   1.000  H
  H182     1.0000 0.73640  0.24750  0.60230  Biso   1.000  H
  H183     1.0000 0.23640  0.25250  0.10230  Biso   1.000  H
  H184     1.0000 0.76360  0.74750  0.60230  Biso   1.000  H
  C101     1.0000 0.17832  0.45517  0.52476  Biso   1.000  C
  C102     1.0000 0.82168  0.54483  0.02476  Biso   1.000  C
  C103     1.0000 0.32168  0.95517  0.52476  Biso   1.000  C
  C104     1.0000 0.67832  0.04483  0.02476  Biso   1.000  C
  H185     1.0000 0.14710  0.44840  0.55920  Biso   1.000  H
  H186     1.0000 0.85290  0.55160  0.05920  Biso   1.000  H
  H187     1.0000 0.35290  0.94840  0.55920  Biso   1.000  H
  H188     1.0000 0.64710  0.05160  0.05920  Biso   1.000  H
  C105     1.0000 0.13451  0.41736  0.47402  Biso   1.000  C
  C106     1.0000 0.86549  0.58264  0.97402  Biso   1.000  C
  C107     1.0000 0.36549  0.91736  0.47402  Biso   1.000  C
  C108     1.0000 0.63451  0.08264  0.97402  Biso   1.000  C
  H189     1.0000 0.13210  0.36820  0.48150  Biso   1.000  H
  H190     1.0000 0.86790  0.63180  0.98150  Biso   1.000  H
  H191     1.0000 0.36790  0.86820  0.48150  Biso   1.000  H
  H192     1.0000 0.63210  0.13180  0.98150  Biso   1.000  H
  H193     1.0000 0.16200  0.42430  0.43840  Biso   1.000  H
  H194     1.0000 0.83800  0.57570  0.93840  Biso   1.000  H
  H195     1.0000 0.33800  0.92430  0.43840  Biso   1.000  H
  H196     1.0000 0.66200  0.07570  0.93840  Biso   1.000  H
  C109     1.0000 0.04787  0.44851  0.46861  Biso   1.000  C
  C110     1.0000 0.95213  0.55149  0.96861  Biso   1.000  C
  C111     1.0000 0.45213  0.94851  0.46861  Biso   1.000  C
  C112     1.0000 0.54787  0.05149  0.96861  Biso   1.000  C
  H197     1.0000 0.02310  0.42950  0.43490  Biso   1.000  H
  H198     1.0000 0.97690  0.57050  0.93490  Biso   1.000  H
  H199     1.0000 0.47690  0.92950  0.43490  Biso   1.000  H
  H200     1.0000 0.52310  0.07050  0.93490  Biso   1.000  H
  H201     1.0000 0.01810  0.43510  0.50190  Biso   1.000  H
  H202     1.0000 0.98190  0.56490  0.00190  Biso   1.000  H
  H203     1.0000 0.48190  0.93510  0.50190  Biso   1.000  H
  H204     1.0000 0.51810  0.06490  0.00190  Biso   1.000  H
  C113     1.0000 0.05003  0.52930  0.46403  Biso   1.000  C
  C114     1.0000 0.94997  0.47070  0.96403  Biso   1.000  C
  C115     1.0000 0.44997  0.02930  0.46403  Biso   1.000  C
  C116     1.0000 0.55003  0.97070  0.96403  Biso   1.000  C
  H205     1.0000 0.07300  0.54250  0.42780  Biso   1.000  H
  H206     1.0000 0.92700  0.45750  0.92780  Biso   1.000  H
  H207     1.0000 0.42700  0.04250  0.42780  Biso   1.000  H
  H208     1.0000 0.57300  0.95750  0.92780  Biso   1.000  H
  H209     1.0000 0.99800  0.54710  0.46490  Biso   1.000  H
  H210     1.0000 0.00200  0.45290  0.96490  Biso   1.000  H
  H211     1.0000 0.50200  0.04710  0.46490  Biso   1.000  H
  H212     1.0000 0.49800  0.95290  0.96490  Biso   1.000  H
  C117     1.0000 0.09651  0.56143  0.51348  Biso   1.000  C
  C118     1.0000 0.90349  0.43857  0.01348  Biso   1.000  C
  C119     1.0000 0.40349  0.06143  0.51348  Biso   1.000  C
  C120     1.0000 0.59651  0.93857  0.01348  Biso   1.000  C
  H213     1.0000 0.07210  0.55060  0.54970  Biso   1.000  H
  H214     1.0000 0.92790  0.44940  0.04970  Biso   1.000  H
  H215     1.0000 0.42790  0.05060  0.54970  Biso   1.000  H
  H216     1.0000 0.57210  0.94940  0.04970  Biso   1.000  H
  H217     1.0000 0.09750  0.61120  0.50930  Biso   1.000  H
  H218     1.0000 0.90250  0.38880  0.00930  Biso   1.000  H
  H219     1.0000 0.40250  0.11120  0.50930  Biso   1.000  H
  H220     1.0000 0.59750  0.88880  0.00930  Biso   1.000  H
  C121     1.0000 0.18000  0.53300  0.51336  Biso   1.000  C
  C122     1.0000 0.82000  0.46700  0.01336  Biso   1.000  C
  C123     1.0000 0.32000  0.03300  0.51336  Biso   1.000  C
  C124     1.0000 0.68000  0.96700  0.01336  Biso   1.000  C
  H221     1.0000 0.20390  0.54200  0.47660  Biso   1.000  H
  H222     1.0000 0.79610  0.45800  0.97660  Biso   1.000  H
  H223     1.0000 0.29610  0.04200  0.47660  Biso   1.000  H
  H224     1.0000 0.70390  0.95800  0.97660  Biso   1.000  H
  H225     1.0000 0.20990  0.55600  0.54270  Biso   1.000  H
  H226     1.0000 0.79010  0.44400  0.04270  Biso   1.000  H
  H227     1.0000 0.29010  0.05600  0.54270  Biso   1.000  H
  H228     1.0000 0.70990  0.94400  0.04270  Biso   1.000  H
  C125     1.0000 0.33993  0.44849  0.48365  Biso   1.000  C
  C126     1.0000 0.66007  0.55151  0.98365  Biso   1.000  C
  C127     1.0000 0.16007  0.94849  0.48365  Biso   1.000  C
  C128     1.0000 0.83993  0.05151  0.98365  Biso   1.000  C
  H229     1.0000 0.33820  0.49890  0.48590  Biso   1.000  H
  H230     1.0000 0.66180  0.50110  0.98590  Biso   1.000  H
  H231     1.0000 0.16180  0.99890  0.48590  Biso   1.000  H
  H232     1.0000 0.83820  0.00110  0.98590  Biso   1.000  H
  C129     1.0000 0.32047  0.42880  0.42656  Biso   1.000  C
  C130     1.0000 0.67953  0.57120  0.92656  Biso   1.000  C
  C131     1.0000 0.17953  0.92880  0.42656  Biso   1.000  C
  C132     1.0000 0.82047  0.07120  0.92656  Biso   1.000  C
  H233     1.0000 0.27120  0.44880  0.41650  Biso   1.000  H
  H234     1.0000 0.72880  0.55120  0.91650  Biso   1.000  H
  H235     1.0000 0.22880  0.94880  0.41650  Biso   1.000  H
  H236     1.0000 0.77120  0.05120  0.91650  Biso   1.000  H
  H237     1.0000 0.31540  0.37900  0.42480  Biso   1.000  H
  H238     1.0000 0.68460  0.62100  0.92480  Biso   1.000  H
  H239     1.0000 0.18460  0.87900  0.42480  Biso   1.000  H
  H240     1.0000 0.81540  0.12100  0.92480  Biso   1.000  H
  C133     1.0000 0.37835  0.45120  0.38480  Biso   1.000  C
  C134     1.0000 0.62165  0.54880  0.88480  Biso   1.000  C
  C135     1.0000 0.12165  0.95120  0.38480  Biso   1.000  C
  C136     1.0000 0.87835  0.04880  0.88480  Biso   1.000  C
  H241     1.0000 0.38280  0.50100  0.38560  Biso   1.000  H
  H242     1.0000 0.61720  0.49900  0.88560  Biso   1.000  H
  H243     1.0000 0.11720  0.00100  0.38560  Biso   1.000  H
  H244     1.0000 0.88280  0.99900  0.88560  Biso   1.000  H
  H245     1.0000 0.36270  0.43750  0.34660  Biso   1.000  H
  H246     1.0000 0.63730  0.56250  0.84660  Biso   1.000  H
  H247     1.0000 0.13730  0.93750  0.34660  Biso   1.000  H
  H248     1.0000 0.86270  0.06250  0.84660  Biso   1.000  H
  C137     1.0000 0.46286  0.41580  0.40033  Biso   1.000  C
  C138     1.0000 0.53714  0.58420  0.90033  Biso   1.000  C
  C139     1.0000 0.03714  0.91580  0.40033  Biso   1.000  C
  C140     1.0000 0.96286  0.08420  0.90033  Biso   1.000  C
  H249     1.0000 0.45980  0.36580  0.39890  Biso   1.000  H
  H250     1.0000 0.54020  0.63420  0.89890  Biso   1.000  H
  H251     1.0000 0.04020  0.86580  0.39890  Biso   1.000  H
  H252     1.0000 0.95980  0.13420  0.89890  Biso   1.000  H
  H253     1.0000 0.50200  0.43110  0.37370  Biso   1.000  H
  H254     1.0000 0.49800  0.56890  0.87370  Biso   1.000  H
  H255     1.0000 0.99800  0.93110  0.37370  Biso   1.000  H
  H256     1.0000 0.00200  0.06890  0.87370  Biso   1.000  H
  C141     1.0000 0.48002  0.43900  0.45767  Biso   1.000  C
  C142     1.0000 0.51998  0.56100  0.95767  Biso   1.000  C
  C143     1.0000 0.01998  0.93900  0.45767  Biso   1.000  C
  C144     1.0000 0.98002  0.06100  0.95767  Biso   1.000  C
  H257     1.0000 0.48740  0.48860  0.45640  Biso   1.000  H
  H258     1.0000 0.51260  0.51140  0.95640  Biso   1.000  H
  H259     1.0000 0.01260  0.98860  0.45640  Biso   1.000  H
  H260     1.0000 0.98740  0.01140  0.95640  Biso   1.000  H
  H261     1.0000 0.52850  0.41860  0.46910  Biso   1.000  H
  H262     1.0000 0.47150  0.58140  0.96910  Biso   1.000  H
  H263     1.0000 0.97150  0.91860  0.46910  Biso   1.000  H
  H264     1.0000 0.02850  0.08140  0.96910  Biso   1.000  H
  C145     1.0000 0.42353  0.42398  0.50217  Biso   1.000  C
  C146     1.0000 0.57647  0.57602  0.00217  Biso   1.000  C
  C147     1.0000 0.07647  0.92398  0.50217  Biso   1.000  C
  C148     1.0000 0.92353  0.07602  0.00217  Biso   1.000  C
  H265     1.0000 0.43820  0.44720  0.53730  Biso   1.000  H
  H266     1.0000 0.56180  0.55280  0.03730  Biso   1.000  H
  H267     1.0000 0.06180  0.94720  0.53730  Biso   1.000  H
  H268     1.0000 0.93820  0.05280  0.03730  Biso   1.000  H
  H269     1.0000 0.42290  0.37480  0.50960  Biso   1.000  H
  H270     1.0000 0.57710  0.62520  0.00960  Biso   1.000  H
  H271     1.0000 0.07710  0.87480  0.50960  Biso   1.000  H
  H272     1.0000 0.92290  0.12520  0.00960  Biso   1.000  H
  C149     1.0000 0.34274  0.44914  0.72208  Biso   1.000  C
  C150     1.0000 0.65726  0.55086  0.22208  Biso   1.000  C
  C151     1.0000 0.15726  0.94914  0.72208  Biso   1.000  C
  C152     1.0000 0.84274  0.05086  0.22208  Biso   1.000  C
  H273     1.0000 0.34730  0.49920  0.71700  Biso   1.000  H
  H274     1.0000 0.65270  0.50080  0.21700  Biso   1.000  H
  H275     1.0000 0.15270  0.99920  0.71700  Biso   1.000  H
  H276     1.0000 0.84730  0.00080  0.21700  Biso   1.000  H
  C153     1.0000 0.42035  0.41300  0.71191  Biso   1.000  C
  C154     1.0000 0.57965  0.58700  0.21191  Biso   1.000  C
  C155     1.0000 0.07965  0.91300  0.71191  Biso   1.000  C
  C156     1.0000 0.92035  0.08700  0.21191  Biso   1.000  C
  H277     1.0000 0.43760  0.42310  0.67330  Biso   1.000  H
  H278     1.0000 0.56240  0.57690  0.17330  Biso   1.000  H
  H279     1.0000 0.06240  0.92310  0.67330  Biso   1.000  H
  H280     1.0000 0.93760  0.07690  0.17330  Biso   1.000  H
  H281     1.0000 0.41300  0.36350  0.71480  Biso   1.000  H
  H282     1.0000 0.58700  0.63650  0.21480  Biso   1.000  H
  H283     1.0000 0.08700  0.86350  0.71480  Biso   1.000  H
  H284     1.0000 0.91300  0.13650  0.21480  Biso   1.000  H
  C157     1.0000 0.48580  0.43600  0.75614  Biso   1.000  C
  C158     1.0000 0.51420  0.56400  0.25614  Biso   1.000  C
  C159     1.0000 0.01420  0.93600  0.75614  Biso   1.000  C
  C160     1.0000 0.98580  0.06400  0.25614  Biso   1.000  C
  H285     1.0000 0.53350  0.41200  0.74820  Biso   1.000  H
  H286     1.0000 0.46650  0.58800  0.24820  Biso   1.000  H
  H287     1.0000 0.96650  0.91200  0.74820  Biso   1.000  H
  H288     1.0000 0.03350  0.08800  0.24820  Biso   1.000  H
  H289     1.0000 0.49490  0.48530  0.75380  Biso   1.000  H
  H290     1.0000 0.50510  0.51470  0.25380  Biso   1.000  H
  H291     1.0000 0.00510  0.98530  0.75380  Biso   1.000  H
  H292     1.0000 0.99490  0.01470  0.25380  Biso   1.000  H
  C161     1.0000 0.45447  0.41606  0.81635  Biso   1.000  C
  C162     1.0000 0.54553  0.58394  0.31635  Biso   1.000  C
  C163     1.0000 0.04553  0.91606  0.81635  Biso   1.000  C
  C164     1.0000 0.95447  0.08394  0.31635  Biso   1.000  C
  H293     1.0000 0.44760  0.36640  0.81770  Biso   1.000  H
  H294     1.0000 0.55240  0.63360  0.31770  Biso   1.000  H
  H295     1.0000 0.05240  0.86640  0.81770  Biso   1.000  H
  H296     1.0000 0.94760  0.13360  0.31770  Biso   1.000  H
  H297     1.0000 0.49270  0.42820  0.84480  Biso   1.000  H
  H298     1.0000 0.50730  0.57180  0.34480  Biso   1.000  H
  H299     1.0000 0.00730  0.92820  0.84480  Biso   1.000  H
  H300     1.0000 0.99270  0.07180  0.34480  Biso   1.000  H
  C165     1.0000 0.38581  0.44722  0.83095  Biso   1.000  C
  C166     1.0000 0.61419  0.55278  0.33095  Biso   1.000  C
  C167     1.0000 0.11419  0.94722  0.83095  Biso   1.000  C
  C168     1.0000 0.88581  0.05278  0.33095  Biso   1.000  C
  H301     1.0000 0.39330  0.49680  0.83280  Biso   1.000  H
  H302     1.0000 0.60670  0.50320  0.33280  Biso   1.000  H
  H303     1.0000 0.10670  0.99680  0.83280  Biso   1.000  H
  H304     1.0000 0.89330  0.00320  0.33280  Biso   1.000  H
  H305     1.0000 0.37030  0.43150  0.86860  Biso   1.000  H
  H306     1.0000 0.62970  0.56850  0.36860  Biso   1.000  H
  H307     1.0000 0.12970  0.93150  0.86860  Biso   1.000  H
  H308     1.0000 0.87030  0.06850  0.36860  Biso   1.000  H
  C169     1.0000 0.31804  0.43040  0.78562  Biso   1.000  C
  C170     1.0000 0.68196  0.56960  0.28562  Biso   1.000  C
  C171     1.0000 0.18196  0.93040  0.78562  Biso   1.000  C
  C172     1.0000 0.81804  0.06960  0.28562  Biso   1.000  C
  H309     1.0000 0.30530  0.38170  0.78770  Biso   1.000  H
  H310     1.0000 0.69470  0.61830  0.28770  Biso   1.000  H
  H311     1.0000 0.19470  0.88170  0.78770  Biso   1.000  H
  H312     1.0000 0.80530  0.11830  0.28770  Biso   1.000  H
  H313     1.0000 0.27250  0.45640  0.79580  Biso   1.000  H
  H314     1.0000 0.72750  0.54360  0.29580  Biso   1.000  H
  H315     1.0000 0.22750  0.95640  0.79580  Biso   1.000  H
  H316     1.0000 0.77250  0.04360  0.29580  Biso   1.000  H
  C173     1.0000 0.17776  0.45308  0.68744  Biso   1.000  C
  C174     1.0000 0.82224  0.54692  0.18744  Biso   1.000  C
  C175     1.0000 0.32224  0.95308  0.68744  Biso   1.000  C
  C176     1.0000 0.67776  0.04692  0.18744  Biso   1.000  C
  H317     1.0000 0.14850  0.44670  0.65200  Biso   1.000  H
  H318     1.0000 0.85150  0.55330  0.15200  Biso   1.000  H
  H319     1.0000 0.35150  0.94670  0.65200  Biso   1.000  H
  H320     1.0000 0.64850  0.05330  0.15200  Biso   1.000  H
  C177     1.0000 0.13034  0.41930  0.73083  Biso   1.000  C
  C178     1.0000 0.86966  0.58070  0.23083  Biso   1.000  C
  C179     1.0000 0.36966  0.91930  0.73083  Biso   1.000  C
  C180     1.0000 0.63034  0.08070  0.23083  Biso   1.000  C
  H321     1.0000 0.12670  0.37070  0.72130  Biso   1.000  H
  H322     1.0000 0.87330  0.62930  0.22130  Biso   1.000  H
  H323     1.0000 0.37330  0.87070  0.72130  Biso   1.000  H
  H324     1.0000 0.62670  0.12930  0.22130  Biso   1.000  H
  H325     1.0000 0.15660  0.42270  0.76730  Biso   1.000  H
  H326     1.0000 0.84340  0.57730  0.26730  Biso   1.000  H
  H327     1.0000 0.34340  0.92270  0.76730  Biso   1.000  H
  H328     1.0000 0.65660  0.07730  0.26730  Biso   1.000  H
  C181     1.0000 0.05613  0.44501  0.73765  Biso   1.000  C
  C182     1.0000 0.94387  0.55499  0.23765  Biso   1.000  C
  C183     1.0000 0.44387  0.94501  0.73765  Biso   1.000  C
  C184     1.0000 0.55613  0.05499  0.23765  Biso   1.000  C
  H329     1.0000 0.03030  0.41910  0.76750  Biso   1.000  H
  H330     1.0000 0.96970  0.58090  0.26750  Biso   1.000  H
  H331     1.0000 0.46970  0.91910  0.76750  Biso   1.000  H
  H332     1.0000 0.53030  0.08090  0.26750  Biso   1.000  H
  H333     1.0000 0.02780  0.43830  0.70240  Biso   1.000  H
  H334     1.0000 0.97220  0.56170  0.20240  Biso   1.000  H
  H335     1.0000 0.47220  0.93830  0.70240  Biso   1.000  H
  H336     1.0000 0.52780  0.06170  0.20240  Biso   1.000  H
  C185     1.0000 0.05520  0.51981  0.75283  Biso   1.000  C
  C186     1.0000 0.94480  0.48019  0.25283  Biso   1.000  C
  C187     1.0000 0.44480  0.01981  0.75283  Biso   1.000  C
  C188     1.0000 0.55520  0.98019  0.25283  Biso   1.000  C
  H337     1.0000 0.00270  0.53620  0.75560  Biso   1.000  H
  H338     1.0000 0.99730  0.46380  0.25560  Biso   1.000  H
  H339     1.0000 0.49730  0.03620  0.75560  Biso   1.000  H
  H340     1.0000 0.50270  0.96380  0.25560  Biso   1.000  H
  H341     1.0000 0.08010  0.52700  0.78950  Biso   1.000  H
  H342     1.0000 0.91990  0.47300  0.28950  Biso   1.000  H
  H343     1.0000 0.41990  0.02700  0.78950  Biso   1.000  H
  H344     1.0000 0.58010  0.97300  0.28950  Biso   1.000  H
  C189     1.0000 0.09540  0.55680  0.70860  Biso   1.000  C
  C190     1.0000 0.90460  0.44320  0.20860  Biso   1.000  C
  C191     1.0000 0.40460  0.05680  0.70860  Biso   1.000  C
  C192     1.0000 0.59540  0.94320  0.20860  Biso   1.000  C
  H345     1.0000 0.09820  0.60500  0.71950  Biso   1.000  H
  H346     1.0000 0.90180  0.39500  0.21950  Biso   1.000  H
  H347     1.0000 0.40180  0.10500  0.71950  Biso   1.000  H
  H348     1.0000 0.59820  0.89500  0.21950  Biso   1.000  H
  H349     1.0000 0.06550  0.55410  0.67360  Biso   1.000  H
  H350     1.0000 0.93450  0.44590  0.17360  Biso   1.000  H
  H351     1.0000 0.43450  0.05410  0.67360  Biso   1.000  H
  H352     1.0000 0.56550  0.94590  0.17360  Biso   1.000  H
  C193     1.0000 0.17799  0.53075  0.69593  Biso   1.000  C
  C194     1.0000 0.82201  0.46925  0.19593  Biso   1.000  C
  C195     1.0000 0.32201  0.03075  0.69593  Biso   1.000  C
  C196     1.0000 0.67799  0.96925  0.19593  Biso   1.000  C
  H353     1.0000 0.19750  0.55310  0.66170  Biso   1.000  H
  H354     1.0000 0.80250  0.44690  0.16170  Biso   1.000  H
  H355     1.0000 0.30250  0.05310  0.66170  Biso   1.000  H
  H356     1.0000 0.69750  0.94690  0.16170  Biso   1.000  H
  H357     1.0000 0.21160  0.54260  0.72760  Biso   1.000  H
  H358     1.0000 0.78840  0.45740  0.22760  Biso   1.000  H
  H359     1.0000 0.28840  0.04260  0.72760  Biso   1.000  H
  H360     1.0000 0.71160  0.95740  0.22760  Biso   1.000  H
  C197     1.0000 0.30200  0.45318  0.60570  Biso   1.000  C
  C198     1.0000 0.69800  0.54682  0.10570  Biso   1.000  C
  C199     1.0000 0.19800  0.95318  0.60570  Biso   1.000  C
  C200     1.0000 0.80200  0.04682  0.10570  Biso   1.000  C
  H361     1.0000 0.35770  0.45490  0.60560  Biso   1.000  H
  H362     1.0000 0.64230  0.54510  0.10560  Biso   1.000  H
  H363     1.0000 0.14230  0.95490  0.60560  Biso   1.000  H
  H364     1.0000 0.85770  0.04510  0.10560  Biso   1.000  H
  H365     1.0000 0.28370  0.50040  0.60600  Biso   1.000  H
  H366     1.0000 0.71630  0.49960  0.10600  Biso   1.000  H
  H367     1.0000 0.21630  0.00040  0.60600  Biso   1.000  H
  H368     1.0000 0.78370  0.99960  0.10600  Biso   1.000  H
  C201     1.0000 0.19605  0.05538  0.24818  Biso   1.000  C
  C202     1.0000 0.80395  0.94462  0.74818  Biso   1.000  C
  C203     1.0000 0.30395  0.55538  0.24818  Biso   1.000  C
  C204     1.0000 0.69605  0.44462  0.74818  Biso   1.000  C
  H369     1.0000 0.15240  0.05300  0.22540  Biso   1.000  H
  H370     1.0000 0.84760  0.94700  0.72540  Biso   1.000  H
  H371     1.0000 0.34760  0.55300  0.22540  Biso   1.000  H
  H372     1.0000 0.65240  0.44700  0.72540  Biso   1.000  H
  C205     1.0000 0.19404  0.09305  0.29784  Biso   1.000  C
  C206     1.0000 0.80596  0.90695  0.79784  Biso   1.000  C
  C207     1.0000 0.30596  0.59305  0.29784  Biso   1.000  C
  C208     1.0000 0.69404  0.40695  0.79784  Biso   1.000  C
  H373     1.0000 0.14780  0.11000  0.31200  Biso   1.000  H
  H374     1.0000 0.85220  0.89000  0.81200  Biso   1.000  H
  H375     1.0000 0.35220  0.61000  0.31200  Biso   1.000  H
  H376     1.0000 0.64780  0.39000  0.81200  Biso   1.000  H
  C209     1.0000 0.26366  0.10560  0.32711  Biso   1.000  C
  C210     1.0000 0.73634  0.89440  0.82711  Biso   1.000  C
  C211     1.0000 0.23634  0.60560  0.32711  Biso   1.000  C
  C212     1.0000 0.76366  0.39440  0.82711  Biso   1.000  C
  C213     1.0000 0.32973  0.07893  0.30740  Biso   1.000  C
  C214     1.0000 0.67027  0.92107  0.80740  Biso   1.000  C
  C215     1.0000 0.17027  0.57893  0.30740  Biso   1.000  C
  C216     1.0000 0.82973  0.42107  0.80740  Biso   1.000  C
  H377     1.0000 0.37610  0.08960  0.32510  Biso   1.000  H
  H378     1.0000 0.62390  0.91040  0.82510  Biso   1.000  H
  H379     1.0000 0.12390  0.58960  0.32510  Biso   1.000  H
  H380     1.0000 0.87610  0.41040  0.82510  Biso   1.000  H
  C217     1.0000 0.32815  0.03588  0.26097  Biso   1.000  C
  C218     1.0000 0.67185  0.96412  0.76097  Biso   1.000  C
  C219     1.0000 0.17185  0.53588  0.26097  Biso   1.000  C
  C220     1.0000 0.82815  0.46412  0.76097  Biso   1.000  C
  H381     1.0000 0.37380  0.01580  0.24880  Biso   1.000  H
  H382     1.0000 0.62620  0.98420  0.74880  Biso   1.000  H
  H383     1.0000 0.12620  0.51580  0.24880  Biso   1.000  H
  H384     1.0000 0.87380  0.48420  0.74880  Biso   1.000  H
  C221     1.0000 0.26317  0.14795  0.37846  Biso   1.000  C
  C222     1.0000 0.73683  0.85205  0.87846  Biso   1.000  C
  C223     1.0000 0.23683  0.64795  0.37846  Biso   1.000  C
  C224     1.0000 0.76317  0.35205  0.87846  Biso   1.000  C
  C225     1.0000 0.19902  0.15265  0.41519  Biso   1.000  C
  C226     1.0000 0.80098  0.84735  0.91519  Biso   1.000  C
  C227     1.0000 0.30098  0.65265  0.41519  Biso   1.000  C
  C228     1.0000 0.69902  0.34735  0.91519  Biso   1.000  C
  H385     1.0000 0.15510  0.12710  0.40740  Biso   1.000  H
  H386     1.0000 0.84490  0.87290  0.90740  Biso   1.000  H
  H387     1.0000 0.34490  0.62710  0.40740  Biso   1.000  H
  H388     1.0000 0.65510  0.37290  0.90740  Biso   1.000  H
  C229     1.0000 0.20118  0.19491  0.46258  Biso   1.000  C
  C230     1.0000 0.79882  0.80509  0.96258  Biso   1.000  C
  C231     1.0000 0.29882  0.69491  0.46258  Biso   1.000  C
  C232     1.0000 0.70118  0.30509  0.96258  Biso   1.000  C
  H389     1.0000 0.15700  0.19730  0.48480  Biso   1.000  H
  H390     1.0000 0.84300  0.80270  0.98480  Biso   1.000  H
  H391     1.0000 0.34300  0.69730  0.48480  Biso   1.000  H
  H392     1.0000 0.65700  0.30270  0.98480  Biso   1.000  H
  C233     1.0000 0.31941  0.22595  0.44472  Biso   1.000  C
  C234     1.0000 0.68059  0.77405  0.94472  Biso   1.000  C
  C235     1.0000 0.18059  0.72595  0.44472  Biso   1.000  C
  C236     1.0000 0.81941  0.27405  0.94472  Biso   1.000  C
  H393     1.0000 0.36360  0.24980  0.45520  Biso   1.000  H
  H394     1.0000 0.63640  0.75020  0.95520  Biso   1.000  H
  H395     1.0000 0.13640  0.74980  0.45520  Biso   1.000  H
  H396     1.0000 0.86360  0.25020  0.95520  Biso   1.000  H
  C237     1.0000 0.32463  0.18859  0.39501  Biso   1.000  C
  C238     1.0000 0.67537  0.81141  0.89501  Biso   1.000  C
  C239     1.0000 0.17537  0.68859  0.39501  Biso   1.000  C
  C240     1.0000 0.82463  0.31141  0.89501  Biso   1.000  C
  H397     1.0000 0.36880  0.19050  0.37280  Biso   1.000  H
  H398     1.0000 0.63120  0.80950  0.87280  Biso   1.000  H
  H399     1.0000 0.13120  0.69050  0.37280  Biso   1.000  H
  H400     1.0000 0.86880  0.30950  0.87280  Biso   1.000  H
  C241     1.0000 0.32470  0.03427  0.95234  Biso   1.000  C
  C242     1.0000 0.67530  0.96573  0.45234  Biso   1.000  C
  C243     1.0000 0.17530  0.53427  0.95234  Biso   1.000  C
  C244     1.0000 0.82470  0.46573  0.45234  Biso   1.000  C
  H401     1.0000 0.37030  0.01570  0.96620  Biso   1.000  H
  H402     1.0000 0.62970  0.98430  0.46620  Biso   1.000  H
  H403     1.0000 0.12970  0.51570  0.96620  Biso   1.000  H
  H404     1.0000 0.87030  0.48430  0.46620  Biso   1.000  H
  C245     1.0000 0.32940  0.07198  0.90280  Biso   1.000  C
  C246     1.0000 0.67060  0.92802  0.40280  Biso   1.000  C
  C247     1.0000 0.17060  0.57198  0.90280  Biso   1.000  C
  C248     1.0000 0.82940  0.42802  0.40280  Biso   1.000  C
  H405     1.0000 0.37650  0.07730  0.88450  Biso   1.000  H
  H406     1.0000 0.62350  0.92270  0.38450  Biso   1.000  H
  H407     1.0000 0.12350  0.57730  0.88450  Biso   1.000  H
  H408     1.0000 0.87650  0.42270  0.38450  Biso   1.000  H
  C249     1.0000 0.26119  0.10351  0.87890  Biso   1.000  C
  C250     1.0000 0.73881  0.89649  0.37890  Biso   1.000  C
  C251     1.0000 0.23881  0.60351  0.87890  Biso   1.000  C
  C252     1.0000 0.76119  0.39649  0.37890  Biso   1.000  C
  C253     1.0000 0.26145  0.14923  0.82804  Biso   1.000  C
  C254     1.0000 0.73855  0.85077  0.32804  Biso   1.000  C
  C255     1.0000 0.23855  0.64923  0.82804  Biso   1.000  C
  C256     1.0000 0.76145  0.35077  0.32804  Biso   1.000  C
  C257     1.0000 0.32398  0.18740  0.81333  Biso   1.000  C
  C258     1.0000 0.67602  0.81260  0.31333  Biso   1.000  C
  C259     1.0000 0.17602  0.68740  0.81333  Biso   1.000  C
  C260     1.0000 0.82398  0.31260  0.31333  Biso   1.000  C
  H409     1.0000 0.36850  0.18400  0.83510  Biso   1.000  H
  H410     1.0000 0.63150  0.81600  0.33510  Biso   1.000  H
  H411     1.0000 0.13150  0.68400  0.83510  Biso   1.000  H
  H412     1.0000 0.86850  0.31600  0.33510  Biso   1.000  H
  C261     1.0000 0.32265  0.23058  0.76711  Biso   1.000  C
  C262     1.0000 0.67735  0.76942  0.26711  Biso   1.000  C
  C263     1.0000 0.17735  0.73058  0.76711  Biso   1.000  C
  C264     1.0000 0.82265  0.26942  0.26711  Biso   1.000  C
  H413     1.0000 0.36500  0.25810  0.75900  Biso   1.000  H
  H414     1.0000 0.63500  0.74190  0.25900  Biso   1.000  H
  H415     1.0000 0.13500  0.75810  0.75900  Biso   1.000  H
  H416     1.0000 0.86500  0.24190  0.25900  Biso   1.000  H
  C265     1.0000 0.19942  0.19205  0.74316  Biso   1.000  C
  C266     1.0000 0.80058  0.80795  0.24316  Biso   1.000  C
  C267     1.0000 0.30058  0.69205  0.74316  Biso   1.000  C
  C268     1.0000 0.69942  0.30795  0.24316  Biso   1.000  C
  H417     1.0000 0.15830  0.19040  0.71780  Biso   1.000  H
  H418     1.0000 0.84170  0.80960  0.21780  Biso   1.000  H
  H419     1.0000 0.34170  0.69040  0.71780  Biso   1.000  H
  H420     1.0000 0.65830  0.30960  0.21780  Biso   1.000  H
  C269     1.0000 0.19958  0.15191  0.79196  Biso   1.000  C
  C270     1.0000 0.80042  0.84809  0.29196  Biso   1.000  C
  C271     1.0000 0.30042  0.65191  0.79196  Biso   1.000  C
  C272     1.0000 0.69958  0.34809  0.29196  Biso   1.000  C
  H421     1.0000 0.15630  0.12580  0.80060  Biso   1.000  H
  H422     1.0000 0.84370  0.87420  0.30060  Biso   1.000  H
  H423     1.0000 0.34370  0.62580  0.80060  Biso   1.000  H
  H424     1.0000 0.65630  0.37420  0.30060  Biso   1.000  H
  C273     1.0000 0.19904  0.09223  0.91201  Biso   1.000  C
  C274     1.0000 0.80096  0.90777  0.41201  Biso   1.000  C
  C275     1.0000 0.30096  0.59223  0.91201  Biso   1.000  C
  C276     1.0000 0.69904  0.40777  0.41201  Biso   1.000  C
  H425     1.0000 0.15320  0.11440  0.90330  Biso   1.000  H
  H426     1.0000 0.84680  0.88560  0.40330  Biso   1.000  H
  H427     1.0000 0.34680  0.61440  0.90330  Biso   1.000  H
  H428     1.0000 0.65320  0.38560  0.40330  Biso   1.000  H
  C277     1.0000 0.20184  0.04869  0.95839  Biso   1.000  C
  C278     1.0000 0.79816  0.95131  0.45839  Biso   1.000  C
  C279     1.0000 0.29816  0.54869  0.95839  Biso   1.000  C
  C280     1.0000 0.70184  0.45131  0.45839  Biso   1.000  C
  H429     1.0000 0.15490  0.03710  0.97480  Biso   1.000  H
  H430     1.0000 0.84510  0.96290  0.47480  Biso   1.000  H
  H431     1.0000 0.34510  0.53710  0.97480  Biso   1.000  H
  H432     1.0000 0.65490  0.46290  0.47480  Biso   1.000  H
