data_image0
_cell_length_a       13.74
_cell_length_b       31.382
_cell_length_c       21.01
_cell_angle_alpha    90
_cell_angle_beta     99.681
_cell_angle_gamma    90

_symmetry_space_group_name_H-M    "P 1"
_symmetry_int_tables_number       1

loop_
  _symmetry_equiv_pos_as_xyz
  'x, y, z'

loop_
  _atom_site_label
  _atom_site_occupancy
  _atom_site_fract_x
  _atom_site_fract_y
  _atom_site_fract_z
  _atom_site_thermal_displace_type
  _atom_site_B_iso_or_equiv
  _atom_site_type_symbol
  Cu1      1.0000 0.30641  0.62818  0.78932  Biso   1.000  Cu
  Cu2      1.0000 0.19359  0.12818  0.71068  Biso   1.000  Cu
  Cu3      1.0000 0.69359  0.37182  0.21068  Biso   1.000  Cu
  Cu4      1.0000 0.80641  0.87182  0.28932  Biso   1.000  Cu
  N1       1.0000 0.22170  0.56940  0.67830  Biso   1.000  N
  N2       1.0000 0.27830  0.06940  0.82170  Biso   1.000  N
  N3       1.0000 0.77830  0.43060  0.32170  Biso   1.000  N
  N4       1.0000 0.72170  0.93060  0.17830  Biso   1.000  N
  N5       1.0000 0.68340  0.86041  0.39780  Biso   1.000  N
  N6       1.0000 0.81660  0.36041  0.10220  Biso   1.000  N
  N7       1.0000 0.31660  0.13959  0.60220  Biso   1.000  N
  N8       1.0000 0.18340  0.63959  0.89780  Biso   1.000  N
  N9       1.0000 0.38520  0.70350  0.72110  Biso   1.000  N
  N10      1.0000 0.11480  0.20350  0.77890  Biso   1.000  N
  N11      1.0000 0.61480  0.29650  0.27890  Biso   1.000  N
  N12      1.0000 0.88520  0.79650  0.22110  Biso   1.000  N
  O1       1.0000 0.43700  0.60010  0.84010  Biso   1.000  O
  O2       1.0000 0.06300  0.10010  0.65990  Biso   1.000  O
  O3       1.0000 0.56300  0.39990  0.15990  Biso   1.000  O
  O4       1.0000 0.93700  0.89990  0.34010  Biso   1.000  O
  C1       1.0000 0.69210  0.80640  0.47820  Biso   1.000  C
  C2       1.0000 0.80790  0.30640  0.02180  Biso   1.000  C
  C3       1.0000 0.30790  0.19360  0.52180  Biso   1.000  C
  C4       1.0000 0.19210  0.69360  0.97820  Biso   1.000  C
  C5       1.0000 0.64260  0.84180  0.44760  Biso   1.000  C
  C6       1.0000 0.85740  0.34180  0.05240  Biso   1.000  C
  C7       1.0000 0.35740  0.15820  0.55240  Biso   1.000  C
  C8       1.0000 0.14260  0.65820  0.94760  Biso   1.000  C
  C9       1.0000 0.26220  0.58900  0.72120  Biso   1.000  C
  C10      1.0000 0.23780  0.08900  0.77880  Biso   1.000  C
  C11      1.0000 0.73780  0.41100  0.27880  Biso   1.000  C
  C12      1.0000 0.76220  0.91100  0.22120  Biso   1.000  C
  C13      1.0000 0.15870  0.54880  0.62740  Biso   1.000  C
  C14      1.0000 0.34130  0.04880  0.87260  Biso   1.000  C
  C15      1.0000 0.84130  0.45120  0.37260  Biso   1.000  C
  C16      1.0000 0.65870  0.95120  0.12740  Biso   1.000  C
  C17      1.0000 0.00550  0.54680  0.55800  Biso   1.000  C
  C18      1.0000 0.49450  0.04680  0.94200  Biso   1.000  C
  C19      1.0000 0.99450  0.45320  0.44200  Biso   1.000  C
  C20      1.0000 0.50550  0.95320  0.05800  Biso   1.000  C
  H1       1.0000 0.94210  0.55860  0.54300  Biso   1.000  H
  H2       1.0000 0.55790  0.05860  0.95700  Biso   1.000  H
  H3       1.0000 0.05790  0.44140  0.45700  Biso   1.000  H
  H4       1.0000 0.44210  0.94140  0.04300  Biso   1.000  H
  C21      1.0000 0.55680  0.85790  0.46460  Biso   1.000  C
  C22      1.0000 0.94320  0.35790  0.03540  Biso   1.000  C
  C23      1.0000 0.44320  0.14210  0.53540  Biso   1.000  C
  C24      1.0000 0.05680  0.64210  0.96460  Biso   1.000  C
  C25      1.0000 0.06460  0.56640  0.60780  Biso   1.000  C
  C26      1.0000 0.43540  0.06640  0.89220  Biso   1.000  C
  C27      1.0000 0.93540  0.43360  0.39220  Biso   1.000  C
  C28      1.0000 0.56460  0.93360  0.10780  Biso   1.000  C
  C29      1.0000 0.03350  0.51020  0.52770  Biso   1.000  C
  C30      1.0000 0.46650  0.01020  0.97230  Biso   1.000  C
  C31      1.0000 0.96650  0.48980  0.47230  Biso   1.000  C
  C32      1.0000 0.53350  0.98980  0.02770  Biso   1.000  C
  C33      1.0000 0.50630  0.89730  0.43450  Biso   1.000  C
  C34      1.0000 0.99370  0.39730  0.06550  Biso   1.000  C
  C35      1.0000 0.49370  0.10270  0.56550  Biso   1.000  C
  C36      1.0000 0.00630  0.60270  0.93450  Biso   1.000  C
  C37      1.0000 0.12510  0.49360  0.55090  Biso   1.000  C
  C38      1.0000 0.37490  0.99360  0.94910  Biso   1.000  C
  C39      1.0000 0.87490  0.50640  0.44910  Biso   1.000  C
  C40      1.0000 0.62510  0.00640  0.05090  Biso   1.000  C
  H5       1.0000 0.14480  0.46850  0.53140  Biso   1.000  H
  H6       1.0000 0.35520  0.96850  0.96860  Biso   1.000  H
  H7       1.0000 0.85520  0.53150  0.46860  Biso   1.000  H
  H8       1.0000 0.64480  0.03150  0.03140  Biso   1.000  H
  C41      1.0000 0.72880  0.86720  0.35620  Biso   1.000  C
  C42      1.0000 0.77120  0.36720  0.14380  Biso   1.000  C
  C43      1.0000 0.27120  0.13280  0.64380  Biso   1.000  C
  C44      1.0000 0.22880  0.63280  0.85620  Biso   1.000  C
  C45      1.0000 0.19100  0.51180  0.60180  Biso   1.000  C
  C46      1.0000 0.30900  0.01180  0.89820  Biso   1.000  C
  C47      1.0000 0.80900  0.48820  0.39820  Biso   1.000  C
  C48      1.0000 0.69100  0.98820  0.10180  Biso   1.000  C
  C49      1.0000 0.50260  0.70960  0.64920  Biso   1.000  C
  C50      1.0000 0.99740  0.20960  0.85080  Biso   1.000  C
  C51      1.0000 0.49740  0.29040  0.35080  Biso   1.000  C
  C52      1.0000 0.00260  0.79040  0.14920  Biso   1.000  C
  C53      1.0000 0.55220  0.93700  0.44470  Biso   1.000  C
  C54      1.0000 0.94780  0.43700  0.05530  Biso   1.000  C
  C55      1.0000 0.44780  0.06300  0.55530  Biso   1.000  C
  C56      1.0000 0.05220  0.56300  0.94470  Biso   1.000  C
  C57      1.0000 0.40700  0.97080  0.37920  Biso   1.000  C
  C58      1.0000 0.09300  0.47080  0.12080  Biso   1.000  C
  C59      1.0000 0.59300  0.02920  0.62080  Biso   1.000  C
  C60      1.0000 0.90700  0.52920  0.87920  Biso   1.000  C
  C61      1.0000 0.39370  0.76980  0.66160  Biso   1.000  C
  C62      1.0000 0.10630  0.26980  0.83840  Biso   1.000  C
  C63      1.0000 0.60630  0.23020  0.33840  Biso   1.000  C
  C64      1.0000 0.89370  0.73020  0.16160  Biso   1.000  C
  C65      1.0000 0.03190  0.60580  0.63950  Biso   1.000  C
  C66      1.0000 0.46810  0.10580  0.86050  Biso   1.000  C
  C67      1.0000 0.96810  0.39420  0.36050  Biso   1.000  C
  C68      1.0000 0.53190  0.89420  0.13950  Biso   1.000  C
  C69      1.0000 0.65100  0.78700  0.52540  Biso   1.000  C
  C70      1.0000 0.84900  0.28700  0.97460  Biso   1.000  C
  C71      1.0000 0.34900  0.21300  0.47460  Biso   1.000  C
  C72      1.0000 0.15100  0.71300  0.02540  Biso   1.000  C
  H9       1.0000 0.68500  0.76370  0.54800  Biso   1.000  H
  H10      1.0000 0.81500  0.26370  0.95200  Biso   1.000  H
  H11      1.0000 0.31500  0.23630  0.45200  Biso   1.000  H
  H12      1.0000 0.18500  0.73630  0.04800  Biso   1.000  H
  C73      1.0000 0.50010  0.97310  0.41730  Biso   1.000  C
  C74      1.0000 0.99990  0.47310  0.08270  Biso   1.000  C
  C75      1.0000 0.49990  0.02690  0.58270  Biso   1.000  C
  C76      1.0000 0.00010  0.52690  0.91730  Biso   1.000  C
  H13      1.0000 0.52990  0.00030  0.42530  Biso   1.000  H
  H14      1.0000 0.97010  0.50030  0.07470  Biso   1.000  H
  H15      1.0000 0.47010  0.99970  0.57470  Biso   1.000  H
  H16      1.0000 0.02990  0.49970  0.92530  Biso   1.000  H
  C77      1.0000 0.51600  0.83650  0.51140  Biso   1.000  C
  C78      1.0000 0.98400  0.33650  0.98860  Biso   1.000  C
  C79      1.0000 0.48400  0.16350  0.48860  Biso   1.000  C
  C80      1.0000 0.01600  0.66350  0.01140  Biso   1.000  C
  H17      1.0000 0.45640  0.84670  0.52310  Biso   1.000  H
  H18      1.0000 0.04360  0.34670  0.97690  Biso   1.000  H
  H19      1.0000 0.54360  0.15330  0.47690  Biso   1.000  H
  H20      1.0000 0.95640  0.65330  0.02310  Biso   1.000  H
  C81      1.0000 0.54370  0.73340  0.60490  Biso   1.000  C
  C82      1.0000 0.95630  0.23340  0.89510  Biso   1.000  C
  C83      1.0000 0.45630  0.26660  0.39510  Biso   1.000  C
  C84      1.0000 0.04370  0.76660  0.10490  Biso   1.000  C
  H21      1.0000 0.59270  0.72070  0.58400  Biso   1.000  H
  H22      1.0000 0.90730  0.22070  0.91600  Biso   1.000  H
  H23      1.0000 0.40730  0.27930  0.41600  Biso   1.000  H
  H24      1.0000 0.09270  0.77930  0.08400  Biso   1.000  H
  C85      1.0000 0.41060  0.89380  0.39640  Biso   1.000  C
  C86      1.0000 0.08940  0.39380  0.10360  Biso   1.000  C
  C87      1.0000 0.58940  0.10620  0.60360  Biso   1.000  C
  C88      1.0000 0.91060  0.60620  0.89640  Biso   1.000  C
  C89      1.0000 0.56120  0.79970  0.54200  Biso   1.000  C
  C90      1.0000 0.93880  0.29970  0.95800  Biso   1.000  C
  C91      1.0000 0.43880  0.20030  0.45800  Biso   1.000  C
  C92      1.0000 0.06120  0.70030  0.04200  Biso   1.000  C
  C93      1.0000 0.54100  0.66510  0.66420  Biso   1.000  C
  C94      1.0000 0.95900  0.16510  0.83580  Biso   1.000  C
  C95      1.0000 0.45900  0.33490  0.33580  Biso   1.000  C
  C96      1.0000 0.04100  0.83490  0.16420  Biso   1.000  C
  C97      1.0000 0.35540  0.67860  0.75270  Biso   1.000  C
  C98      1.0000 0.14460  0.17860  0.74730  Biso   1.000  C
  C99      1.0000 0.64460  0.32140  0.24730  Biso   1.000  C
  C100     1.0000 0.85540  0.82140  0.25270  Biso   1.000  C
  C101     1.0000 0.78680  0.79020  0.45810  Biso   1.000  C
  C102     1.0000 0.71320  0.29020  0.04190  Biso   1.000  C
  C103     1.0000 0.21320  0.20980  0.54190  Biso   1.000  C
  C104     1.0000 0.28680  0.70980  0.95810  Biso   1.000  C
  C105     1.0000 0.28910  0.49190  0.62540  Biso   1.000  C
  C106     1.0000 0.21090  0.99190  0.87460  Biso   1.000  C
  C107     1.0000 0.71090  0.50810  0.37460  Biso   1.000  C
  C108     1.0000 0.78910  0.00810  0.12540  Biso   1.000  C
  C109     1.0000 0.51460  0.77600  0.59000  Biso   1.000  C
  C110     1.0000 0.98540  0.27600  0.91000  Biso   1.000  C
  C111     1.0000 0.48540  0.22400  0.41000  Biso   1.000  C
  C112     1.0000 0.01460  0.72400  0.09000  Biso   1.000  C
  C113     1.0000 0.42770  0.72860  0.67720  Biso   1.000  C
  C114     1.0000 0.07230  0.22860  0.82280  Biso   1.000  C
  C115     1.0000 0.57230  0.27140  0.32280  Biso   1.000  C
  C116     1.0000 0.92770  0.77140  0.17720  Biso   1.000  C
  C117     1.0000 0.44010  0.79310  0.61940  Biso   1.000  C
  C118     1.0000 0.05990  0.29310  0.88060  Biso   1.000  C
  C119     1.0000 0.55990  0.20690  0.38060  Biso   1.000  C
  C120     1.0000 0.94010  0.70690  0.11940  Biso   1.000  C
  H25      1.0000 0.42030  0.82180  0.61020  Biso   1.000  H
  H26      1.0000 0.07970  0.32180  0.88980  Biso   1.000  H
  H27      1.0000 0.57970  0.17820  0.38980  Biso   1.000  H
  H28      1.0000 0.92030  0.67820  0.11020  Biso   1.000  H
  C121     1.0000 0.31140  0.47400  0.68680  Biso   1.000  C
  C122     1.0000 0.18860  0.97400  0.81320  Biso   1.000  C
  C123     1.0000 0.68860  0.52600  0.31320  Biso   1.000  C
  C124     1.0000 0.81140  0.02600  0.18680  Biso   1.000  C
  C125     1.0000 0.01990  0.64390  0.60600  Biso   1.000  C
  C126     1.0000 0.48010  0.14390  0.89400  Biso   1.000  C
  C127     1.0000 0.98010  0.35610  0.39400  Biso   1.000  C
  C128     1.0000 0.51990  0.85610  0.10600  Biso   1.000  C
  C129     1.0000 0.30720  0.78760  0.68670  Biso   1.000  C
  C130     1.0000 0.19280  0.28760  0.81330  Biso   1.000  C
  C131     1.0000 0.69280  0.21240  0.31330  Biso   1.000  C
  C132     1.0000 0.80720  0.71240  0.18670  Biso   1.000  C
  C133     1.0000 0.03930  0.64790  0.53710  Biso   1.000  C
  C134     1.0000 0.46070  0.14790  0.96290  Biso   1.000  C
  C135     1.0000 0.96070  0.35210  0.46290  Biso   1.000  C
  C136     1.0000 0.53930  0.85210  0.03710  Biso   1.000  C
  H29      1.0000 0.10390  0.63550  0.53410  Biso   1.000  H
  H30      1.0000 0.39610  0.13550  0.96590  Biso   1.000  H
  H31      1.0000 0.89610  0.36450  0.46590  Biso   1.000  H
  H32      1.0000 0.60390  0.86450  0.03410  Biso   1.000  H
  H33      1.0000 0.03880  0.67800  0.52480  Biso   1.000  H
  H34      1.0000 0.46120  0.17800  0.97520  Biso   1.000  H
  H35      1.0000 0.96120  0.32200  0.47520  Biso   1.000  H
  H36      1.0000 0.53880  0.82200  0.02480  Biso   1.000  H
  H37      1.0000 0.98790  0.63260  0.50780  Biso   1.000  H
  H38      1.0000 0.51210  0.13260  0.99220  Biso   1.000  H
  H39      1.0000 0.01210  0.36740  0.49220  Biso   1.000  H
  H40      1.0000 0.48790  0.86740  0.00780  Biso   1.000  H
  C137     1.0000 0.65180  0.94240  0.48480  Biso   1.000  C
  C138     1.0000 0.84820  0.44240  0.01520  Biso   1.000  C
  C139     1.0000 0.34820  0.05760  0.51520  Biso   1.000  C
  C140     1.0000 0.15180  0.55760  0.98480  Biso   1.000  C
  H41      1.0000 0.66070  0.92130  0.51970  Biso   1.000  H
  H42      1.0000 0.83930  0.42130  0.98030  Biso   1.000  H
  H43      1.0000 0.33930  0.07870  0.48030  Biso   1.000  H
  H44      1.0000 0.16070  0.57870  0.01970  Biso   1.000  H
  H45      1.0000 0.65760  0.97110  0.50320  Biso   1.000  H
  H46      1.0000 0.84240  0.47110  0.99680  Biso   1.000  H
  H47      1.0000 0.34240  0.02890  0.49680  Biso   1.000  H
  H48      1.0000 0.15760  0.52890  0.00320  Biso   1.000  H
  H49      1.0000 0.70260  0.93830  0.45770  Biso   1.000  H
  H50      1.0000 0.79740  0.43830  0.04230  Biso   1.000  H
  H51      1.0000 0.29740  0.06170  0.54230  Biso   1.000  H
  H52      1.0000 0.20260  0.56170  0.95770  Biso   1.000  H
  C141     1.0000 0.98680  0.64030  0.73220  Biso   1.000  C
  C142     1.0000 0.51320  0.14030  0.76780  Biso   1.000  C
  C143     1.0000 0.01320  0.35970  0.26780  Biso   1.000  C
  C144     1.0000 0.48680  0.85970  0.23220  Biso   1.000  C
  H53      1.0000 0.97670  0.63910  0.77580  Biso   1.000  H
  H54      1.0000 0.52330  0.13910  0.72420  Biso   1.000  H
  H55      1.0000 0.02330  0.36090  0.22420  Biso   1.000  H
  H56      1.0000 0.47670  0.86090  0.27580  Biso   1.000  H
  C145     1.0000 0.36450  0.93030  0.36990  Biso   1.000  C
  C146     1.0000 0.13550  0.43030  0.13010  Biso   1.000  C
  C147     1.0000 0.63550  0.06970  0.63010  Biso   1.000  C
  C148     1.0000 0.86450  0.56970  0.86990  Biso   1.000  C
  H57      1.0000 0.30090  0.92780  0.34420  Biso   1.000  H
  H58      1.0000 0.19910  0.42780  0.15580  Biso   1.000  H
  H59      1.0000 0.69910  0.07220  0.65580  Biso   1.000  H
  H60      1.0000 0.80090  0.57220  0.84420  Biso   1.000  H
  C149     1.0000 0.01390  0.60350  0.70390  Biso   1.000  C
  C150     1.0000 0.48610  0.10350  0.79610  Biso   1.000  C
  C151     1.0000 0.98610  0.39650  0.29610  Biso   1.000  C
  C152     1.0000 0.51390  0.89650  0.20390  Biso   1.000  C
  C153     1.0000 0.78450  0.76660  0.40220  Biso   1.000  C
  C154     1.0000 0.71550  0.26660  0.09780  Biso   1.000  C
  C155     1.0000 0.21550  0.23340  0.59780  Biso   1.000  C
  C156     1.0000 0.28450  0.73340  0.90220  Biso   1.000  C
  C157     1.0000 0.36030  0.48980  0.58440  Biso   1.000  C
  C158     1.0000 0.13970  0.98980  0.91560  Biso   1.000  C
  C159     1.0000 0.63970  0.51020  0.41560  Biso   1.000  C
  C160     1.0000 0.86030  0.01020  0.08440  Biso   1.000  C
  C161     1.0000 0.35750  0.85180  0.38710  Biso   1.000  C
  C162     1.0000 0.14250  0.35180  0.11290  Biso   1.000  C
  C163     1.0000 0.64250  0.14820  0.61290  Biso   1.000  C
  C164     1.0000 0.85750  0.64820  0.88710  Biso   1.000  C
  H61      1.0000 0.40380  0.82950  0.37890  Biso   1.000  H
  H62      1.0000 0.09620  0.32950  0.12110  Biso   1.000  H
  H63      1.0000 0.59620  0.17050  0.62110  Biso   1.000  H
  H64      1.0000 0.90380  0.67050  0.87890  Biso   1.000  H
  H65      1.0000 0.30350  0.85380  0.35030  Biso   1.000  H
  H66      1.0000 0.19650  0.35380  0.14970  Biso   1.000  H
  H67      1.0000 0.69650  0.14620  0.64970  Biso   1.000  H
  H68      1.0000 0.80350  0.64620  0.85030  Biso   1.000  H
  H69      1.0000 0.33060  0.84470  0.42620  Biso   1.000  H
  H70      1.0000 0.16940  0.34470  0.07380  Biso   1.000  H
  H71      1.0000 0.66940  0.15530  0.57380  Biso   1.000  H
  H72      1.0000 0.83060  0.65530  0.92620  Biso   1.000  H
  C165     1.0000 0.99060  0.67950  0.63660  Biso   1.000  C
  C166     1.0000 0.50940  0.17950  0.86340  Biso   1.000  C
  C167     1.0000 0.00940  0.32050  0.36340  Biso   1.000  C
  C168     1.0000 0.49060  0.82050  0.13660  Biso   1.000  C
  H73      1.0000 0.98150  0.70560  0.61350  Biso   1.000  H
  H74      1.0000 0.51850  0.20560  0.88650  Biso   1.000  H
  H75      1.0000 0.01850  0.29440  0.38650  Biso   1.000  H
  H76      1.0000 0.48150  0.79440  0.11350  Biso   1.000  H
  C169     1.0000 0.02120  0.56210  0.74140  Biso   1.000  C
  C170     1.0000 0.47880  0.06210  0.75860  Biso   1.000  C
  C171     1.0000 0.97880  0.43790  0.25860  Biso   1.000  C
  C172     1.0000 0.52120  0.93790  0.24140  Biso   1.000  C
  H77      1.0000 0.00810  0.53810  0.71130  Biso   1.000  H
  H78      1.0000 0.49190  0.03810  0.78870  Biso   1.000  H
  H79      1.0000 0.99190  0.46190  0.28870  Biso   1.000  H
  H80      1.0000 0.50810  0.96190  0.21130  Biso   1.000  H
  H81      1.0000 0.97260  0.56210  0.77060  Biso   1.000  H
  H82      1.0000 0.52740  0.06210  0.72940  Biso   1.000  H
  H83      1.0000 0.02740  0.43790  0.22940  Biso   1.000  H
  H84      1.0000 0.47260  0.93790  0.27060  Biso   1.000  H
  H85      1.0000 0.08770  0.55920  0.76660  Biso   1.000  H
  H86      1.0000 0.41230  0.05920  0.73340  Biso   1.000  H
  H87      1.0000 0.91230  0.44080  0.23340  Biso   1.000  H
  H88      1.0000 0.58770  0.94080  0.26660  Biso   1.000  H
  C173     1.0000 0.97380  0.67830  0.70090  Biso   1.000  C
  C174     1.0000 0.52620  0.17830  0.79910  Biso   1.000  C
  C175     1.0000 0.02620  0.32170  0.29910  Biso   1.000  C
  C176     1.0000 0.47380  0.82170  0.20090  Biso   1.000  C
  C177     1.0000 0.40400  0.45550  0.70700  Biso   1.000  C
  C178     1.0000 0.09600  0.95550  0.79300  Biso   1.000  C
  C179     1.0000 0.59600  0.54450  0.29300  Biso   1.000  C
  C180     1.0000 0.90400  0.04450  0.20700  Biso   1.000  C
  H89      1.0000 0.41790  0.44390  0.74940  Biso   1.000  H
  H90      1.0000 0.08210  0.94390  0.75060  Biso   1.000  H
  H91      1.0000 0.58210  0.55610  0.25060  Biso   1.000  H
  H92      1.0000 0.91790  0.05610  0.24940  Biso   1.000  H
  C181     1.0000 0.21230  0.77320  0.65930  Biso   1.000  C
  C182     1.0000 0.28770  0.27320  0.84070  Biso   1.000  C
  C183     1.0000 0.78770  0.22680  0.34070  Biso   1.000  C
  C184     1.0000 0.71230  0.72680  0.15930  Biso   1.000  C
  C185     1.0000 0.94960  0.71920  0.73400  Biso   1.000  C
  C186     1.0000 0.55040  0.21920  0.76600  Biso   1.000  C
  C187     1.0000 0.05040  0.28080  0.26600  Biso   1.000  C
  C188     1.0000 0.44960  0.78080  0.23400  Biso   1.000  C
  H93      1.0000 0.92280  0.71210  0.77310  Biso   1.000  H
  H94      1.0000 0.57720  0.21210  0.72690  Biso   1.000  H
  H95      1.0000 0.07720  0.28790  0.22690  Biso   1.000  H
  H96      1.0000 0.42280  0.78790  0.27310  Biso   1.000  H
  H97      1.0000 0.90080  0.73560  0.70460  Biso   1.000  H
  H98      1.0000 0.59920  0.23560  0.79540  Biso   1.000  H
  H99      1.0000 0.09920  0.26440  0.29540  Biso   1.000  H
  H100     1.0000 0.40080  0.76440  0.20460  Biso   1.000  H
  H101     1.0000 0.00990  0.73610  0.74580  Biso   1.000  H
  H102     1.0000 0.49010  0.23610  0.75420  Biso   1.000  H
  H103     1.0000 0.99010  0.26390  0.25420  Biso   1.000  H
  H104     1.0000 0.50990  0.76390  0.24580  Biso   1.000  H
  C189     1.0000 0.48520  0.62950  0.63680  Biso   1.000  C
  C190     1.0000 0.01480  0.12950  0.86320  Biso   1.000  C
  C191     1.0000 0.51480  0.37050  0.36320  Biso   1.000  C
  C192     1.0000 0.98520  0.87050  0.13680  Biso   1.000  C
  C193     1.0000 0.63300  0.66040  0.69980  Biso   1.000  C
  C194     1.0000 0.86700  0.16040  0.80020  Biso   1.000  C
  C195     1.0000 0.36700  0.33960  0.30020  Biso   1.000  C
  C196     1.0000 0.13300  0.83960  0.19980  Biso   1.000  C
  C197     1.0000 0.31880  0.81900  0.73320  Biso   1.000  C
  C198     1.0000 0.18120  0.31900  0.76680  Biso   1.000  C
  C199     1.0000 0.68120  0.18100  0.26680  Biso   1.000  C
  C200     1.0000 0.81880  0.68100  0.23320  Biso   1.000  C
  C201     1.0000 0.35800  0.01050  0.34990  Biso   1.000  C
  C202     1.0000 0.14200  0.51050  0.15010  Biso   1.000  C
  C203     1.0000 0.64200  0.98950  0.65010  Biso   1.000  C
  C204     1.0000 0.85800  0.48950  0.84990  Biso   1.000  C
  H105     1.0000 0.39120  0.03550  0.37140  Biso   1.000  H
  H106     1.0000 0.10880  0.53550  0.12860  Biso   1.000  H
  H107     1.0000 0.60880  0.96450  0.62860  Biso   1.000  H
  H108     1.0000 0.89120  0.46450  0.87140  Biso   1.000  H
  H109     1.0000 0.28850  0.01050  0.35520  Biso   1.000  H
  H110     1.0000 0.21150  0.51050  0.14480  Biso   1.000  H
  H111     1.0000 0.71150  0.98950  0.64480  Biso   1.000  H
  H112     1.0000 0.78850  0.48950  0.85520  Biso   1.000  H
  H113     1.0000 0.36210  0.01130  0.30380  Biso   1.000  H
  H114     1.0000 0.13790  0.51130  0.19620  Biso   1.000  H
  H115     1.0000 0.63790  0.98870  0.69620  Biso   1.000  H
  H116     1.0000 0.86210  0.48870  0.80380  Biso   1.000  H
  C205     1.0000 0.23840  0.47310  0.73190  Biso   1.000  C
  C206     1.0000 0.26160  0.97310  0.76810  Biso   1.000  C
  C207     1.0000 0.76160  0.52690  0.26810  Biso   1.000  C
  C208     1.0000 0.73840  0.02690  0.23190  Biso   1.000  C
  H117     1.0000 0.26000  0.49250  0.76810  Biso   1.000  H
  H118     1.0000 0.24000  0.99250  0.73190  Biso   1.000  H
  H119     1.0000 0.74000  0.50750  0.23190  Biso   1.000  H
  H120     1.0000 0.76000  0.00750  0.26810  Biso   1.000  H
  H121     1.0000 0.23340  0.44410  0.74820  Biso   1.000  H
  H122     1.0000 0.26660  0.94410  0.75180  Biso   1.000  H
  H123     1.0000 0.76660  0.55590  0.25180  Biso   1.000  H
  H124     1.0000 0.73340  0.05590  0.24820  Biso   1.000  H
  H125     1.0000 0.17370  0.48220  0.70890  Biso   1.000  H
  H126     1.0000 0.32630  0.98220  0.79110  Biso   1.000  H
  H127     1.0000 0.82630  0.51780  0.29110  Biso   1.000  H
  H128     1.0000 0.67370  0.01780  0.20890  Biso   1.000  H
  C209     1.0000 0.87580  0.79790  0.49940  Biso   1.000  C
  C210     1.0000 0.62420  0.29790  0.00060  Biso   1.000  C
  C211     1.0000 0.12420  0.20210  0.50060  Biso   1.000  C
  C212     1.0000 0.37580  0.70210  0.99940  Biso   1.000  C
  C213     1.0000 0.19860  0.73930  0.60720  Biso   1.000  C
  C214     1.0000 0.30140  0.23930  0.89280  Biso   1.000  C
  C215     1.0000 0.80140  0.26070  0.39280  Biso   1.000  C
  C216     1.0000 0.69860  0.76070  0.10720  Biso   1.000  C
  H129     1.0000 0.24980  0.74240  0.58020  Biso   1.000  H
  H130     1.0000 0.25020  0.24240  0.91980  Biso   1.000  H
  H131     1.0000 0.75020  0.25760  0.41980  Biso   1.000  H
  H132     1.0000 0.74980  0.75760  0.08020  Biso   1.000  H
  H133     1.0000 0.13330  0.74250  0.58040  Biso   1.000  H
  H134     1.0000 0.36670  0.24250  0.91960  Biso   1.000  H
  H135     1.0000 0.86670  0.25750  0.41960  Biso   1.000  H
  H136     1.0000 0.63330  0.75750  0.08040  Biso   1.000  H
  H137     1.0000 0.20370  0.71100  0.62730  Biso   1.000  H
  H138     1.0000 0.29630  0.21100  0.87270  Biso   1.000  H
  H139     1.0000 0.79630  0.28900  0.37270  Biso   1.000  H
  H140     1.0000 0.70370  0.78900  0.12730  Biso   1.000  H
  C217     1.0000 0.12940  0.79100  0.67960  Biso   1.000  C
  C218     1.0000 0.37060  0.29100  0.82040  Biso   1.000  C
  C219     1.0000 0.87060  0.20900  0.32040  Biso   1.000  C
  C220     1.0000 0.62940  0.70900  0.17960  Biso   1.000  C
  H141     1.0000 0.06540  0.78170  0.66030  Biso   1.000  H
  H142     1.0000 0.43460  0.28170  0.83970  Biso   1.000  H
  H143     1.0000 0.93460  0.21830  0.33970  Biso   1.000  H
  H144     1.0000 0.56540  0.71830  0.16030  Biso   1.000  H
  C221     1.0000 0.23040  0.83570  0.75250  Biso   1.000  C
  C222     1.0000 0.26960  0.33570  0.74750  Biso   1.000  C
  C223     1.0000 0.76960  0.16430  0.24750  Biso   1.000  C
  C224     1.0000 0.73040  0.66430  0.25250  Biso   1.000  C
  H145     1.0000 0.23650  0.85740  0.78440  Biso   1.000  H
  H146     1.0000 0.26350  0.35740  0.71560  Biso   1.000  H
  H147     1.0000 0.76350  0.14260  0.21560  Biso   1.000  H
  H148     1.0000 0.73650  0.64260  0.28440  Biso   1.000  H
  C225     1.0000 0.47460  0.45330  0.66960  Biso   1.000  C
  C226     1.0000 0.02540  0.95330  0.83040  Biso   1.000  C
  C227     1.0000 0.52540  0.54670  0.33040  Biso   1.000  C
  C228     1.0000 0.97460  0.04670  0.16960  Biso   1.000  C
  C229     1.0000 0.45020  0.47000  0.60620  Biso   1.000  C
  C230     1.0000 0.04980  0.97000  0.89380  Biso   1.000  C
  C231     1.0000 0.54980  0.53000  0.39380  Biso   1.000  C
  C232     1.0000 0.95020  0.03000  0.10620  Biso   1.000  C
  H149     1.0000 0.49680  0.46770  0.57780  Biso   1.000  H
  H150     1.0000 0.00320  0.96770  0.92220  Biso   1.000  H
  H151     1.0000 0.50320  0.53230  0.42220  Biso   1.000  H
  H152     1.0000 0.99680  0.03230  0.07780  Biso   1.000  H
  C233     1.0000 0.87260  0.75220  0.38610  Biso   1.000  C
  C234     1.0000 0.62740  0.25220  0.11390  Biso   1.000  C
  C235     1.0000 0.12740  0.24780  0.61390  Biso   1.000  C
  C236     1.0000 0.37260  0.74780  0.88610  Biso   1.000  C
  H153     1.0000 0.87120  0.73680  0.34710  Biso   1.000  H
  H154     1.0000 0.62880  0.23680  0.15290  Biso   1.000  H
  H155     1.0000 0.12880  0.26320  0.65290  Biso   1.000  H
  H156     1.0000 0.37120  0.76320  0.84710  Biso   1.000  H
  C237     1.0000 0.38600  0.63470  0.59520  Biso   1.000  C
  C238     1.0000 0.11400  0.13470  0.90480  Biso   1.000  C
  C239     1.0000 0.61400  0.36530  0.40480  Biso   1.000  C
  C240     1.0000 0.88600  0.86530  0.09520  Biso   1.000  C
  H157     1.0000 0.33810  0.64450  0.62160  Biso   1.000  H
  H158     1.0000 0.16190  0.14450  0.87840  Biso   1.000  H
  H159     1.0000 0.66190  0.35550  0.37840  Biso   1.000  H
  H160     1.0000 0.83810  0.85550  0.12160  Biso   1.000  H
  H161     1.0000 0.36450  0.60720  0.57540  Biso   1.000  H
  H162     1.0000 0.13550  0.10720  0.92460  Biso   1.000  H
  H163     1.0000 0.63550  0.39280  0.42460  Biso   1.000  H
  H164     1.0000 0.86450  0.89280  0.07540  Biso   1.000  H
  H165     1.0000 0.39060  0.65560  0.56120  Biso   1.000  H
  H166     1.0000 0.10940  0.15560  0.93880  Biso   1.000  H
  H167     1.0000 0.60940  0.34440  0.43880  Biso   1.000  H
  H168     1.0000 0.89060  0.84440  0.06120  Biso   1.000  H
  C241     1.0000 0.67420  0.62010  0.70790  Biso   1.000  C
  C242     1.0000 0.82580  0.12010  0.79210  Biso   1.000  C
  C243     1.0000 0.32580  0.37990  0.29210  Biso   1.000  C
  C244     1.0000 0.17420  0.87990  0.20790  Biso   1.000  C
  H169     1.0000 0.73880  0.61650  0.73190  Biso   1.000  H
  H170     1.0000 0.76120  0.11650  0.76810  Biso   1.000  H
  H171     1.0000 0.26120  0.38350  0.26810  Biso   1.000  H
  H172     1.0000 0.23880  0.88350  0.23190  Biso   1.000  H
  C245     1.0000 0.52970  0.59010  0.64550  Biso   1.000  C
  C246     1.0000 0.97030  0.09010  0.85450  Biso   1.000  C
  C247     1.0000 0.47030  0.40990  0.35450  Biso   1.000  C
  C248     1.0000 0.02970  0.90990  0.14550  Biso   1.000  C
  H173     1.0000 0.49530  0.56590  0.62590  Biso   1.000  H
  H174     1.0000 0.00470  0.06590  0.87410  Biso   1.000  H
  H175     1.0000 0.50470  0.43410  0.37410  Biso   1.000  H
  H176     1.0000 0.99530  0.93410  0.12590  Biso   1.000  H
  C249     1.0000 0.13840  0.82150  0.72670  Biso   1.000  C
  C250     1.0000 0.36160  0.32150  0.77330  Biso   1.000  C
  C251     1.0000 0.86160  0.17850  0.27330  Biso   1.000  C
  C252     1.0000 0.63840  0.67850  0.22670  Biso   1.000  C
  C253     1.0000 0.96160  0.75960  0.42470  Biso   1.000  C
  C254     1.0000 0.53840  0.25960  0.07530  Biso   1.000  C
  C255     1.0000 0.03840  0.24040  0.57530  Biso   1.000  C
  C256     1.0000 0.46160  0.74040  0.92470  Biso   1.000  C
  C257     1.0000 0.34160  0.50820  0.51790  Biso   1.000  C
  C258     1.0000 0.15840  0.00820  0.98210  Biso   1.000  C
  C259     1.0000 0.65840  0.49180  0.48210  Biso   1.000  C
  C260     1.0000 0.84160  0.99180  0.01790  Biso   1.000  C
  H177     1.0000 0.29990  0.48870  0.48870  Biso   1.000  H
  H178     1.0000 0.20010  0.98870  0.01130  Biso   1.000  H
  H179     1.0000 0.70010  0.51130  0.51130  Biso   1.000  H
  H180     1.0000 0.79990  0.01130  0.98870  Biso   1.000  H
  H181     1.0000 0.40460  0.51230  0.50270  Biso   1.000  H
  H182     1.0000 0.09540  0.01230  0.99730  Biso   1.000  H
  H183     1.0000 0.59540  0.48770  0.49730  Biso   1.000  H
  H184     1.0000 0.90460  0.98770  0.00270  Biso   1.000  H
  H185     1.0000 0.30800  0.53570  0.51860  Biso   1.000  H
  H186     1.0000 0.19200  0.03570  0.98140  Biso   1.000  H
  H187     1.0000 0.69200  0.46430  0.48140  Biso   1.000  H
  H188     1.0000 0.80800  0.96430  0.01860  Biso   1.000  H
  C261     1.0000 0.62070  0.58450  0.68090  Biso   1.000  C
  C262     1.0000 0.87930  0.08450  0.81910  Biso   1.000  C
  C263     1.0000 0.37930  0.41550  0.31910  Biso   1.000  C
  C264     1.0000 0.12070  0.91550  0.18090  Biso   1.000  C
  C265     1.0000 0.68980  0.75770  0.35750  Biso   1.000  C
  C266     1.0000 0.81020  0.25770  0.14250  Biso   1.000  C
  C267     1.0000 0.31020  0.24230  0.64250  Biso   1.000  C
  C268     1.0000 0.18980  0.74230  0.85750  Biso   1.000  C
  H189     1.0000 0.64130  0.74620  0.38230  Biso   1.000  H
  H190     1.0000 0.85870  0.24620  0.11770  Biso   1.000  H
  H191     1.0000 0.35870  0.25380  0.61770  Biso   1.000  H
  H192     1.0000 0.14130  0.75380  0.88230  Biso   1.000  H
  H193     1.0000 0.70170  0.73680  0.32490  Biso   1.000  H
  H194     1.0000 0.79830  0.23680  0.17510  Biso   1.000  H
  H195     1.0000 0.29830  0.26320  0.67510  Biso   1.000  H
  H196     1.0000 0.20170  0.76320  0.82490  Biso   1.000  H
  H197     1.0000 0.66440  0.78410  0.33610  Biso   1.000  H
  H198     1.0000 0.83560  0.28410  0.16390  Biso   1.000  H
  H199     1.0000 0.33560  0.21590  0.66390  Biso   1.000  H
  H200     1.0000 0.16440  0.71590  0.83610  Biso   1.000  H
  C269     1.0000 0.96350  0.78230  0.47980  Biso   1.000  C
  C270     1.0000 0.53650  0.28230  0.02020  Biso   1.000  C
  C271     1.0000 0.03650  0.21770  0.52020  Biso   1.000  C
  C272     1.0000 0.46350  0.71770  0.97980  Biso   1.000  C
  H201     1.0000 0.02530  0.78800  0.50610  Biso   1.000  H
  H202     1.0000 0.47470  0.28800  0.99390  Biso   1.000  H
  H203     1.0000 0.97470  0.21200  0.49390  Biso   1.000  H
  H204     1.0000 0.52530  0.71200  0.00610  Biso   1.000  H
  C273     1.0000 0.68880  0.69870  0.73050  Biso   1.000  C
  C274     1.0000 0.81120  0.19870  0.76950  Biso   1.000  C
  C275     1.0000 0.31120  0.30130  0.26950  Biso   1.000  C
  C276     1.0000 0.18880  0.80130  0.23050  Biso   1.000  C
  H205     1.0000 0.70170  0.71840  0.69670  Biso   1.000  H
  H206     1.0000 0.79830  0.21840  0.80330  Biso   1.000  H
  H207     1.0000 0.29830  0.28160  0.30330  Biso   1.000  H
  H208     1.0000 0.20170  0.78160  0.19670  Biso   1.000  H
  H209     1.0000 0.75160  0.68940  0.75600  Biso   1.000  H
  H210     1.0000 0.74840  0.18940  0.74400  Biso   1.000  H
  H211     1.0000 0.24840  0.31060  0.24400  Biso   1.000  H
  H212     1.0000 0.25160  0.81060  0.25600  Biso   1.000  H
  H213     1.0000 0.64930  0.71320  0.75870  Biso   1.000  H
  H214     1.0000 0.85070  0.21320  0.74130  Biso   1.000  H
  H215     1.0000 0.35070  0.28680  0.24130  Biso   1.000  H
  H216     1.0000 0.14930  0.78680  0.25870  Biso   1.000  H
  C277     1.0000 0.57230  0.43330  0.69060  Biso   1.000  C
  C278     1.0000 0.92770  0.93330  0.80940  Biso   1.000  C
  C279     1.0000 0.42770  0.56670  0.30940  Biso   1.000  C
  C280     1.0000 0.07230  0.06670  0.19060  Biso   1.000  C
  H217     1.0000 0.59020  0.43530  0.73770  Biso   1.000  H
  H218     1.0000 0.90980  0.93530  0.76230  Biso   1.000  H
  H219     1.0000 0.40980  0.56470  0.26230  Biso   1.000  H
  H220     1.0000 0.09020  0.06470  0.23770  Biso   1.000  H
  H221     1.0000 0.62210  0.44810  0.67040  Biso   1.000  H
  H222     1.0000 0.87790  0.94810  0.82960  Biso   1.000  H
  H223     1.0000 0.37790  0.55190  0.32960  Biso   1.000  H
  H224     1.0000 0.12210  0.05190  0.17040  Biso   1.000  H
  H225     1.0000 0.56950  0.40320  0.67770  Biso   1.000  H
  H226     1.0000 0.93050  0.90320  0.82230  Biso   1.000  H
  H227     1.0000 0.43050  0.59680  0.32230  Biso   1.000  H
  H228     1.0000 0.06950  0.09680  0.17770  Biso   1.000  H
  C281     1.0000 0.41990  0.83560  0.76230  Biso   1.000  C
  C282     1.0000 0.08010  0.33560  0.73770  Biso   1.000  C
  C283     1.0000 0.58010  0.16440  0.23770  Biso   1.000  C
  C284     1.0000 0.91990  0.66440  0.26230  Biso   1.000  C
  H229     1.0000 0.46640  0.81180  0.77020  Biso   1.000  H
  H230     1.0000 0.03360  0.31180  0.72980  Biso   1.000  H
  H231     1.0000 0.53360  0.18820  0.22980  Biso   1.000  H
  H232     1.0000 0.96640  0.68820  0.27020  Biso   1.000  H
  H233     1.0000 0.41610  0.85010  0.80310  Biso   1.000  H
  H234     1.0000 0.08390  0.35010  0.69690  Biso   1.000  H
  H235     1.0000 0.58390  0.14990  0.19690  Biso   1.000  H
  H236     1.0000 0.91610  0.64990  0.30310  Biso   1.000  H
  H237     1.0000 0.44260  0.85580  0.73230  Biso   1.000  H
  H238     1.0000 0.05740  0.35580  0.76770  Biso   1.000  H
  H239     1.0000 0.55740  0.14420  0.26770  Biso   1.000  H
  H240     1.0000 0.94260  0.64420  0.23230  Biso   1.000  H
  C285     1.0000 0.04800  0.83990  0.74990  Biso   1.000  C
  C286     1.0000 0.45200  0.33990  0.75010  Biso   1.000  C
  C287     1.0000 0.95200  0.16010  0.25010  Biso   1.000  C
  C288     1.0000 0.54800  0.66010  0.24990  Biso   1.000  C
  H241     1.0000 0.01730  0.86140  0.71920  Biso   1.000  H
  H242     1.0000 0.48270  0.36140  0.78080  Biso   1.000  H
  H243     1.0000 0.98270  0.13860  0.28080  Biso   1.000  H
  H244     1.0000 0.51730  0.63860  0.21920  Biso   1.000  H
  H245     1.0000 0.06790  0.85300  0.79240  Biso   1.000  H
  H246     1.0000 0.43210  0.35300  0.70760  Biso   1.000  H
  H247     1.0000 0.93210  0.14700  0.20760  Biso   1.000  H
  H248     1.0000 0.56790  0.64700  0.29240  Biso   1.000  H
  H249     1.0000 0.00050  0.81700  0.75310  Biso   1.000  H
  H250     1.0000 0.49950  0.31700  0.74690  Biso   1.000  H
  H251     1.0000 0.99950  0.18300  0.24690  Biso   1.000  H
  H252     1.0000 0.50050  0.68300  0.25310  Biso   1.000  H
  C289     1.0000 0.66920  0.54000  0.69000  Biso   1.000  C
  C290     1.0000 0.83080  0.04000  0.81000  Biso   1.000  C
  C291     1.0000 0.33080  0.46000  0.31000  Biso   1.000  C
  C292     1.0000 0.16920  0.96000  0.19000  Biso   1.000  C
  H253     1.0000 0.62840  0.52120  0.71190  Biso   1.000  H
  H254     1.0000 0.87160  0.02120  0.78810  Biso   1.000  H
  H255     1.0000 0.37160  0.47880  0.28810  Biso   1.000  H
  H256     1.0000 0.12840  0.97880  0.21190  Biso   1.000  H
  H257     1.0000 0.73500  0.54250  0.71620  Biso   1.000  H
  H258     1.0000 0.76500  0.04250  0.78380  Biso   1.000  H
  H259     1.0000 0.26500  0.45750  0.28380  Biso   1.000  H
  H260     1.0000 0.23500  0.95750  0.21620  Biso   1.000  H
  H261     1.0000 0.67490  0.52800  0.64770  Biso   1.000  H
  H262     1.0000 0.82510  0.02800  0.85230  Biso   1.000  H
  H263     1.0000 0.32510  0.47200  0.35230  Biso   1.000  H
  H264     1.0000 0.17490  0.97200  0.14770  Biso   1.000  H
  C293     1.0000 0.88080  0.82300  0.56220  Biso   1.000  C
  C294     1.0000 0.61920  0.32300  0.93780  Biso   1.000  C
  C295     1.0000 0.11920  0.17700  0.43780  Biso   1.000  C
  C296     1.0000 0.38080  0.67700  0.06220  Biso   1.000  C
  H265     1.0000 0.83800  0.84810  0.55460  Biso   1.000  H
  H266     1.0000 0.66200  0.34810  0.94540  Biso   1.000  H
  H267     1.0000 0.16200  0.15190  0.44540  Biso   1.000  H
  H268     1.0000 0.33800  0.65190  0.05460  Biso   1.000  H
  H269     1.0000 0.94890  0.83210  0.57740  Biso   1.000  H
  H270     1.0000 0.55110  0.33210  0.92260  Biso   1.000  H
  H271     1.0000 0.05110  0.16790  0.42260  Biso   1.000  H
  H272     1.0000 0.44890  0.66790  0.07740  Biso   1.000  H
  H273     1.0000 0.85860  0.80490  0.59500  Biso   1.000  H
  H274     1.0000 0.64140  0.30490  0.90500  Biso   1.000  H
  H275     1.0000 0.14140  0.19510  0.40500  Biso   1.000  H
  H276     1.0000 0.35860  0.69510  0.09500  Biso   1.000  H
  C297     1.0000 0.05620  0.74260  0.40590  Biso   1.000  C
  C298     1.0000 0.44380  0.24260  0.09410  Biso   1.000  C
  C299     1.0000 0.94380  0.25740  0.59410  Biso   1.000  C
  C300     1.0000 0.55620  0.75740  0.90590  Biso   1.000  C
  H277     1.0000 0.04510  0.71360  0.38910  Biso   1.000  H
  H278     1.0000 0.45490  0.21360  0.11090  Biso   1.000  H
  H279     1.0000 0.95490  0.28640  0.61090  Biso   1.000  H
  H280     1.0000 0.54510  0.78640  0.88910  Biso   1.000  H
  H281     1.0000 0.10840  0.74230  0.44390  Biso   1.000  H
  H282     1.0000 0.39160  0.24230  0.05610  Biso   1.000  H
  H283     1.0000 0.89160  0.25770  0.55610  Biso   1.000  H
  H284     1.0000 0.60840  0.75770  0.94390  Biso   1.000  H
  H285     1.0000 0.07610  0.76100  0.37260  Biso   1.000  H
  H286     1.0000 0.42390  0.26100  0.12740  Biso   1.000  H
  H287     1.0000 0.92390  0.23900  0.62740  Biso   1.000  H
  H288     1.0000 0.57610  0.73900  0.87260  Biso   1.000  H
  C301     1.0000 0.51280  0.62250  0.88090  Biso   1.000  C
  C302     1.0000 0.98720  0.12250  0.61910  Biso   1.000  C
  C303     1.0000 0.48720  0.37750  0.11910  Biso   1.000  C
  C304     1.0000 0.01280  0.87750  0.38090  Biso   1.000  C
  H289     1.0000 0.49180  0.63090  0.92190  Biso   1.000  H
  H290     1.0000 0.00820  0.13090  0.57810  Biso   1.000  H
  H291     1.0000 0.50820  0.36910  0.07810  Biso   1.000  H
  H292     1.0000 0.99180  0.86910  0.42190  Biso   1.000  H
  H293     1.0000 0.53350  0.64820  0.85930  Biso   1.000  H
  H294     1.0000 0.96650  0.14820  0.64070  Biso   1.000  H
  H295     1.0000 0.46650  0.35180  0.14070  Biso   1.000  H
  H296     1.0000 0.03350  0.85180  0.35930  Biso   1.000  H
  C305     1.0000 0.59380  0.58970  0.89180  Biso   1.000  C
  C306     1.0000 0.90620  0.08970  0.60820  Biso   1.000  C
  C307     1.0000 0.40620  0.41030  0.10820  Biso   1.000  C
  C308     1.0000 0.09380  0.91030  0.39180  Biso   1.000  C
  H297     1.0000 0.65830  0.60390  0.89250  Biso   1.000  H
  H298     1.0000 0.84170  0.10390  0.60750  Biso   1.000  H
  H299     1.0000 0.34170  0.39610  0.10750  Biso   1.000  H
  H300     1.0000 0.15830  0.89610  0.39250  Biso   1.000  H
  H301     1.0000 0.59470  0.57610  0.93440  Biso   1.000  H
  H302     1.0000 0.90530  0.07610  0.56560  Biso   1.000  H
  H303     1.0000 0.40530  0.42390  0.06560  Biso   1.000  H
  H304     1.0000 0.09470  0.92390  0.43440  Biso   1.000  H
  C309     1.0000 0.48180  0.56370  0.81810  Biso   1.000  C
  C310     1.0000 0.01820  0.06370  0.68190  Biso   1.000  C
  C311     1.0000 0.51820  0.43630  0.18190  Biso   1.000  C
  C312     1.0000 0.98180  0.93630  0.31810  Biso   1.000  C
  H305     1.0000 0.44550  0.53810  0.82870  Biso   1.000  H
  H306     1.0000 0.05450  0.03810  0.67130  Biso   1.000  H
  H307     1.0000 0.55450  0.46190  0.17130  Biso   1.000  H
  H308     1.0000 0.94550  0.96190  0.32870  Biso   1.000  H
  H309     1.0000 0.47520  0.56530  0.77050  Biso   1.000  H
  H310     1.0000 0.02480  0.06530  0.72950  Biso   1.000  H
  H311     1.0000 0.52480  0.43470  0.22950  Biso   1.000  H
  H312     1.0000 0.97520  0.93470  0.27050  Biso   1.000  H
  C313     1.0000 0.58080  0.55880  0.84400  Biso   1.000  C
  C314     1.0000 0.91920  0.05880  0.65600  Biso   1.000  C
  C315     1.0000 0.41920  0.44120  0.15600  Biso   1.000  C
  C316     1.0000 0.08080  0.94120  0.34400  Biso   1.000  C
  H313     1.0000 0.62340  0.56420  0.81130  Biso   1.000  H
  H314     1.0000 0.87660  0.06420  0.68870  Biso   1.000  H
  H315     1.0000 0.37660  0.43580  0.18870  Biso   1.000  H
  H316     1.0000 0.12340  0.93580  0.31130  Biso   1.000  H
  H317     1.0000 0.59450  0.52990  0.86240  Biso   1.000  H
  H318     1.0000 0.90550  0.02990  0.63760  Biso   1.000  H
  H319     1.0000 0.40550  0.47010  0.13760  Biso   1.000  H
  H320     1.0000 0.09450  0.97010  0.36240  Biso   1.000  H
  O5       1.0000 0.79820  0.59880  0.49840  Biso   1.000  O
  O6       1.0000 0.70180  0.09880  0.00160  Biso   1.000  O
  O7       1.0000 0.20180  0.40120  0.50160  Biso   1.000  O
  O8       1.0000 0.29820  0.90120  0.99840  Biso   1.000  O
  C317     1.0000 0.75130  0.61080  0.54980  Biso   1.000  C
  C318     1.0000 0.74870  0.11080  0.95020  Biso   1.000  C
  C319     1.0000 0.24870  0.38920  0.45020  Biso   1.000  C
  C320     1.0000 0.25130  0.88920  0.04980  Biso   1.000  C
  H321     1.0000 0.69930  0.58970  0.55420  Biso   1.000  H
  H322     1.0000 0.80070  0.08970  0.94580  Biso   1.000  H
  H323     1.0000 0.30070  0.41030  0.44580  Biso   1.000  H
  H324     1.0000 0.19930  0.91030  0.05420  Biso   1.000  H
  H325     1.0000 0.80010  0.61030  0.59030  Biso   1.000  H
  H326     1.0000 0.69990  0.11030  0.90970  Biso   1.000  H
  H327     1.0000 0.19990  0.38970  0.40970  Biso   1.000  H
  H328     1.0000 0.30010  0.88970  0.09030  Biso   1.000  H
  C321     1.0000 0.76150  0.62390  0.44130  Biso   1.000  C
  C322     1.0000 0.73850  0.12390  0.05870  Biso   1.000  C
  C323     1.0000 0.23850  0.37610  0.55870  Biso   1.000  C
  C324     1.0000 0.26150  0.87610  0.94130  Biso   1.000  C
  H329     1.0000 0.70440  0.61070  0.41330  Biso   1.000  H
  H330     1.0000 0.79560  0.11070  0.08670  Biso   1.000  H
  H331     1.0000 0.29560  0.38930  0.58670  Biso   1.000  H
  H332     1.0000 0.20440  0.88930  0.91330  Biso   1.000  H
  H333     1.0000 0.81360  0.63130  0.41570  Biso   1.000  H
  H334     1.0000 0.68640  0.13130  0.08430  Biso   1.000  H
  H335     1.0000 0.18640  0.36870  0.58430  Biso   1.000  H
  H336     1.0000 0.31360  0.86870  0.91570  Biso   1.000  H
  C325     1.0000 0.70950  0.65050  0.54220  Biso   1.000  C
  C326     1.0000 0.79050  0.15050  0.95780  Biso   1.000  C
  C327     1.0000 0.29050  0.34950  0.45780  Biso   1.000  C
  C328     1.0000 0.20950  0.84950  0.04220  Biso   1.000  C
  H337     1.0000 0.73880  0.66960  0.57780  Biso   1.000  H
  H338     1.0000 0.76120  0.16960  0.92220  Biso   1.000  H
  H339     1.0000 0.26120  0.33040  0.42220  Biso   1.000  H
  H340     1.0000 0.23880  0.83040  0.07780  Biso   1.000  H
  H341     1.0000 0.63740  0.64890  0.54140  Biso   1.000  H
  H342     1.0000 0.86260  0.14890  0.95860  Biso   1.000  H
  H343     1.0000 0.36260  0.35110  0.45860  Biso   1.000  H
  H344     1.0000 0.13740  0.85110  0.04140  Biso   1.000  H
  C329     1.0000 0.73000  0.66470  0.48430  Biso   1.000  C
  C330     1.0000 0.77000  0.16470  0.01570  Biso   1.000  C
  C331     1.0000 0.27000  0.33530  0.51570  Biso   1.000  C
  C332     1.0000 0.23000  0.83530  0.98430  Biso   1.000  C
  H345     1.0000 0.78470  0.68560  0.49190  Biso   1.000  H
  H346     1.0000 0.71530  0.18560  0.00810  Biso   1.000  H
  H347     1.0000 0.21530  0.31440  0.50810  Biso   1.000  H
  H348     1.0000 0.28470  0.81440  0.99190  Biso   1.000  H
  H349     1.0000 0.67120  0.67920  0.46000  Biso   1.000  H
  H350     1.0000 0.82880  0.17920  0.04000  Biso   1.000  H
  H351     1.0000 0.32880  0.32080  0.54000  Biso   1.000  H
  H352     1.0000 0.17120  0.82080  0.96000  Biso   1.000  H
  O9       1.0000 0.30040  0.88070  0.53510  Biso   1.000  O
  O10      1.0000 0.19960  0.38070  0.96490  Biso   1.000  O
  O11      1.0000 0.69960  0.11930  0.46490  Biso   1.000  O
  O12      1.0000 0.80040  0.61930  0.03510  Biso   1.000  O
  C333     1.0000 0.21920  0.87480  0.56360  Biso   1.000  C
  C334     1.0000 0.28080  0.37480  0.93640  Biso   1.000  C
  C335     1.0000 0.78080  0.12520  0.43640  Biso   1.000  C
  C336     1.0000 0.71920  0.62520  0.06360  Biso   1.000  C
  H353     1.0000 0.22000  0.84600  0.58300  Biso   1.000  H
  H354     1.0000 0.28000  0.34600  0.91700  Biso   1.000  H
  H355     1.0000 0.78000  0.15400  0.41700  Biso   1.000  H
  H356     1.0000 0.72000  0.65400  0.08300  Biso   1.000  H
  H357     1.0000 0.15810  0.87790  0.53140  Biso   1.000  H
  H358     1.0000 0.34190  0.37790  0.96860  Biso   1.000  H
  H359     1.0000 0.84190  0.12210  0.46860  Biso   1.000  H
  H360     1.0000 0.65810  0.62210  0.03140  Biso   1.000  H
  C337     1.0000 0.32940  0.92450  0.54550  Biso   1.000  C
  C338     1.0000 0.17060  0.42450  0.95450  Biso   1.000  C
  C339     1.0000 0.67060  0.07550  0.45450  Biso   1.000  C
  C340     1.0000 0.82940  0.57550  0.04550  Biso   1.000  C
  H361     1.0000 0.40100  0.92610  0.56240  Biso   1.000  H
  H362     1.0000 0.09900  0.42610  0.93760  Biso   1.000  H
  H363     1.0000 0.59900  0.07390  0.43760  Biso   1.000  H
  H364     1.0000 0.90100  0.57390  0.06240  Biso   1.000  H
  H365     1.0000 0.31640  0.94010  0.50400  Biso   1.000  H
  H366     1.0000 0.18360  0.44010  0.99600  Biso   1.000  H
  H367     1.0000 0.68360  0.05990  0.49600  Biso   1.000  H
  H368     1.0000 0.81640  0.55990  0.00400  Biso   1.000  H
  C341     1.0000 0.22360  0.90710  0.61280  Biso   1.000  C
  C342     1.0000 0.27640  0.40710  0.88720  Biso   1.000  C
  C343     1.0000 0.77640  0.09290  0.38720  Biso   1.000  C
  C344     1.0000 0.72360  0.59290  0.11280  Biso   1.000  C
  H369     1.0000 0.25950  0.89650  0.65470  Biso   1.000  H
  H370     1.0000 0.24050  0.39650  0.84530  Biso   1.000  H
  H371     1.0000 0.74050  0.10350  0.34530  Biso   1.000  H
  H372     1.0000 0.75950  0.60350  0.15470  Biso   1.000  H
  H373     1.0000 0.15650  0.91610  0.61830  Biso   1.000  H
  H374     1.0000 0.34350  0.41610  0.88170  Biso   1.000  H
  H375     1.0000 0.84350  0.08390  0.38170  Biso   1.000  H
  H376     1.0000 0.65650  0.58390  0.11830  Biso   1.000  H
  C345     1.0000 0.27780  0.94270  0.58830  Biso   1.000  C
  C346     1.0000 0.22220  0.44270  0.91170  Biso   1.000  C
  C347     1.0000 0.72220  0.05730  0.41170  Biso   1.000  C
  C348     1.0000 0.77780  0.55730  0.08830  Biso   1.000  C
  H377     1.0000 0.23120  0.96440  0.56670  Biso   1.000  H
  H378     1.0000 0.26880  0.46440  0.93330  Biso   1.000  H
  H379     1.0000 0.76880  0.03560  0.43330  Biso   1.000  H
  H380     1.0000 0.73120  0.53560  0.06670  Biso   1.000  H
  H381     1.0000 0.32300  0.95650  0.62400  Biso   1.000  H
  H382     1.0000 0.17700  0.45650  0.87600  Biso   1.000  H
  H383     1.0000 0.67700  0.04350  0.37600  Biso   1.000  H
  H384     1.0000 0.82300  0.54350  0.12400  Biso   1.000  H
  P1       1.0000 0.57170  0.44950  0.90410  Biso   1.000  P
  P2       1.0000 0.92830  0.94950  0.59590  Biso   1.000  P
  P3       1.0000 0.42830  0.55050  0.09590  Biso   1.000  P
  P4       1.0000 0.07170  0.05050  0.40410  Biso   1.000  P
  F1       1.0000 0.57280  0.42690  0.96920  Biso   1.000  F
  F2       1.0000 0.92720  0.92690  0.53080  Biso   1.000  F
  F3       1.0000 0.42720  0.57310  0.03080  Biso   1.000  F
  F4       1.0000 0.07280  0.07310  0.46920  Biso   1.000  F
  F5       1.0000 0.47140  0.47070  0.89150  Biso   1.000  F
  F6       1.0000 0.02860  0.97070  0.60850  Biso   1.000  F
  F7       1.0000 0.52860  0.52930  0.10850  Biso   1.000  F
  F8       1.0000 0.97140  0.02930  0.39150  Biso   1.000  F
  F9       1.0000 0.51430  0.41470  0.86120  Biso   1.000  F
  F10      1.0000 0.98570  0.91470  0.63880  Biso   1.000  F
  F11      1.0000 0.48570  0.58530  0.13880  Biso   1.000  F
  F12      1.0000 0.01430  0.08530  0.36120  Biso   1.000  F
  F13      1.0000 0.63170  0.48440  0.94680  Biso   1.000  F
  F14      1.0000 0.86830  0.98440  0.55320  Biso   1.000  F
  F15      1.0000 0.36830  0.51560  0.05320  Biso   1.000  F
  F16      1.0000 0.13170  0.01560  0.44680  Biso   1.000  F
  F17      1.0000 0.66670  0.42880  0.89750  Biso   1.000  F
  F18      1.0000 0.83330  0.92880  0.60250  Biso   1.000  F
  F19      1.0000 0.33330  0.57120  0.10250  Biso   1.000  F
  F20      1.0000 0.16670  0.07120  0.39750  Biso   1.000  F
  F21      1.0000 0.58380  0.47420  0.84440  Biso   1.000  F
  F22      1.0000 0.91620  0.97420  0.65560  Biso   1.000  F
  F23      1.0000 0.41620  0.52580  0.15560  Biso   1.000  F
  F24      1.0000 0.08380  0.02580  0.34440  Biso   1.000  F
  P5       1.0000 0.72040  0.83760  0.72090  Biso   1.000  P
  P6       1.0000 0.77960  0.33760  0.77910  Biso   1.000  P
  P7       1.0000 0.27960  0.16240  0.27910  Biso   1.000  P
  P8       1.0000 0.22040  0.66240  0.22090  Biso   1.000  P
  F25      1.0000 0.66220  0.81210  0.75860  Biso   1.000  F
  F26      1.0000 0.83780  0.31210  0.74140  Biso   1.000  F
  F27      1.0000 0.33780  0.18790  0.24140  Biso   1.000  F
  F28      1.0000 0.16220  0.68790  0.25860  Biso   1.000  F
  F29      1.0000 0.73380  0.80600  0.68150  Biso   1.000  F
  F30      1.0000 0.76620  0.30600  0.81850  Biso   1.000  F
  F31      1.0000 0.26620  0.19400  0.31850  Biso   1.000  F
  F32      1.0000 0.23380  0.69400  0.18150  Biso   1.000  F
  F33      1.0000 0.64280  0.86280  0.68480  Biso   1.000  F
  F34      1.0000 0.85720  0.36280  0.81520  Biso   1.000  F
  F35      1.0000 0.35720  0.13720  0.31520  Biso   1.000  F
  F36      1.0000 0.14280  0.63720  0.18480  Biso   1.000  F
  F37      1.0000 0.71110  0.86390  0.77430  Biso   1.000  F
  F38      1.0000 0.78890  0.36390  0.72570  Biso   1.000  F
  F39      1.0000 0.28890  0.13610  0.22570  Biso   1.000  F
  F40      1.0000 0.21110  0.63610  0.27430  Biso   1.000  F
  F41      1.0000 0.75790  0.86750  0.67790  Biso   1.000  F
  F42      1.0000 0.74210  0.36750  0.82210  Biso   1.000  F
  F43      1.0000 0.24210  0.13250  0.32210  Biso   1.000  F
  F44      1.0000 0.25790  0.63250  0.17790  Biso   1.000  F
  F45      1.0000 0.79820  0.81550  0.76360  Biso   1.000  F
  F46      1.0000 0.70180  0.31550  0.73640  Biso   1.000  F
  F47      1.0000 0.20180  0.18450  0.23640  Biso   1.000  F
  F48      1.0000 0.29820  0.68450  0.26360  Biso   1.000  F
  C349     1.0000 0.29870  0.68940  0.43790  Biso   1.000  C
  C350     1.0000 0.20130  0.18940  0.06210  Biso   1.000  C
  C351     1.0000 0.70130  0.31060  0.56210  Biso   1.000  C
  C352     1.0000 0.79870  0.81060  0.93790  Biso   1.000  C
  H385     1.0000 0.28770  0.68500  0.48280  Biso   1.000  H
  H386     1.0000 0.21230  0.18500  0.01720  Biso   1.000  H
  H387     1.0000 0.71230  0.31500  0.51720  Biso   1.000  H
  H388     1.0000 0.78770  0.81500  0.98280  Biso   1.000  H
  H389     1.0000 0.23610  0.68520  0.40760  Biso   1.000  H
  H390     1.0000 0.26390  0.18520  0.09240  Biso   1.000  H
  H391     1.0000 0.76390  0.31480  0.59240  Biso   1.000  H
  H392     1.0000 0.73610  0.81480  0.90760  Biso   1.000  H
  C353     1.0000 0.34300  0.73070  0.42930  Biso   1.000  C
  C354     1.0000 0.15700  0.23070  0.07070  Biso   1.000  C
  C355     1.0000 0.65700  0.26930  0.57070  Biso   1.000  C
  C356     1.0000 0.84300  0.76930  0.92930  Biso   1.000  C
  H393     1.0000 0.29600  0.74840  0.39960  Biso   1.000  H
  H394     1.0000 0.20400  0.24840  0.10040  Biso   1.000  H
  H395     1.0000 0.70400  0.25160  0.60040  Biso   1.000  H
  H396     1.0000 0.79600  0.75160  0.89960  Biso   1.000  H
  H397     1.0000 0.35780  0.74560  0.47130  Biso   1.000  H
  H398     1.0000 0.14220  0.24560  0.02870  Biso   1.000  H
  H399     1.0000 0.64220  0.25440  0.52870  Biso   1.000  H
  H400     1.0000 0.85780  0.75440  0.97130  Biso   1.000  H
  C357     1.0000 0.42840  0.72560  0.40440  Biso   1.000  C
  C358     1.0000 0.07160  0.22560  0.09560  Biso   1.000  C
  C359     1.0000 0.57160  0.27440  0.59560  Biso   1.000  C
  C360     1.0000 0.92840  0.77440  0.90440  Biso   1.000  C
  H401     1.0000 0.47430  0.74970  0.41610  Biso   1.000  H
  H402     1.0000 0.02570  0.24970  0.08390  Biso   1.000  H
  H403     1.0000 0.52570  0.25030  0.58390  Biso   1.000  H
  H404     1.0000 0.97430  0.75030  0.91610  Biso   1.000  H
  H405     1.0000 0.41470  0.72240  0.35690  Biso   1.000  H
  H406     1.0000 0.08530  0.22240  0.14310  Biso   1.000  H
  H407     1.0000 0.58530  0.27760  0.64310  Biso   1.000  H
  H408     1.0000 0.91470  0.77760  0.85690  Biso   1.000  H
  C361     1.0000 0.37670  0.66320  0.42230  Biso   1.000  C
  C362     1.0000 0.12330  0.16320  0.07770  Biso   1.000  C
  C363     1.0000 0.62330  0.33680  0.57770  Biso   1.000  C
  C364     1.0000 0.87670  0.83680  0.92230  Biso   1.000  C
  H409     1.0000 0.37980  0.63630  0.44740  Biso   1.000  H
  H410     1.0000 0.12020  0.13630  0.05260  Biso   1.000  H
  H411     1.0000 0.62020  0.36370  0.55260  Biso   1.000  H
  H412     1.0000 0.87980  0.86370  0.94740  Biso   1.000  H
  H413     1.0000 0.36310  0.65580  0.37590  Biso   1.000  H
  H414     1.0000 0.13690  0.15580  0.12410  Biso   1.000  H
  H415     1.0000 0.63690  0.34420  0.62410  Biso   1.000  H
  H416     1.0000 0.86310  0.84420  0.87590  Biso   1.000  H
  O13      1.0000 0.46890  0.68490  0.43690  Biso   1.000  O
  O14      1.0000 0.03110  0.18490  0.06310  Biso   1.000  O
  O15      1.0000 0.53110  0.31510  0.56310  Biso   1.000  O
  O16      1.0000 0.96890  0.81510  0.93690  Biso   1.000  O
  O17      1.0000 0.15950  0.58360  0.41940  Biso   1.000  O
  O18      1.0000 0.34050  0.08360  0.08060  Biso   1.000  O
  O19      1.0000 0.84050  0.41640  0.58060  Biso   1.000  O
  O20      1.0000 0.65950  0.91640  0.91940  Biso   1.000  O
  C365     1.0000 0.04710  0.59080  0.38230  Biso   1.000  C
  C366     1.0000 0.45290  0.09080  0.11770  Biso   1.000  C
  C367     1.0000 0.95290  0.40920  0.61770  Biso   1.000  C
  C368     1.0000 0.54710  0.90920  0.88230  Biso   1.000  C
  H417     1.0000 0.99780  0.58640  0.41110  Biso   1.000  H
  H418     1.0000 0.50220  0.08640  0.08890  Biso   1.000  H
  H419     1.0000 0.00220  0.41360  0.58890  Biso   1.000  H
  H420     1.0000 0.49780  0.91360  0.91110  Biso   1.000  H
  H421     1.0000 0.03760  0.61920  0.36170  Biso   1.000  H
  H422     1.0000 0.46240  0.11920  0.13830  Biso   1.000  H
  H423     1.0000 0.96240  0.38080  0.63830  Biso   1.000  H
  H424     1.0000 0.53760  0.88080  0.86170  Biso   1.000  H
  C369     1.0000 0.04580  0.55500  0.33310  Biso   1.000  C
  C370     1.0000 0.45420  0.05500  0.16690  Biso   1.000  C
  C371     1.0000 0.95420  0.44500  0.66690  Biso   1.000  C
  C372     1.0000 0.54580  0.94500  0.83310  Biso   1.000  C
  H425     1.0000 0.99220  0.53430  0.33590  Biso   1.000  H
  H426     1.0000 0.50780  0.03430  0.16410  Biso   1.000  H
  H427     1.0000 0.00780  0.46570  0.66410  Biso   1.000  H
  H428     1.0000 0.49220  0.96570  0.83590  Biso   1.000  H
  H429     1.0000 0.03850  0.56630  0.28850  Biso   1.000  H
  H430     1.0000 0.46150  0.06630  0.21150  Biso   1.000  H
  H431     1.0000 0.96150  0.43370  0.71150  Biso   1.000  H
  H432     1.0000 0.53850  0.93370  0.78850  Biso   1.000  H
  C373     1.0000 0.14590  0.53550  0.35420  Biso   1.000  C
  C374     1.0000 0.35410  0.03550  0.14580  Biso   1.000  C
  C375     1.0000 0.85410  0.46450  0.64580  Biso   1.000  C
  C376     1.0000 0.64590  0.96450  0.85420  Biso   1.000  C
  H433     1.0000 0.13870  0.51080  0.38250  Biso   1.000  H
  H434     1.0000 0.36130  0.01080  0.11750  Biso   1.000  H
  H435     1.0000 0.86130  0.48920  0.61750  Biso   1.000  H
  H436     1.0000 0.63870  0.98920  0.88250  Biso   1.000  H
  H437     1.0000 0.17020  0.52450  0.31560  Biso   1.000  H
  H438     1.0000 0.32980  0.02450  0.18440  Biso   1.000  H
  H439     1.0000 0.82980  0.47550  0.68440  Biso   1.000  H
  H440     1.0000 0.67020  0.97550  0.81560  Biso   1.000  H
  C377     1.0000 0.21820  0.56350  0.38780  Biso   1.000  C
  C378     1.0000 0.28180  0.06350  0.11220  Biso   1.000  C
  C379     1.0000 0.78180  0.43650  0.61220  Biso   1.000  C
  C380     1.0000 0.71820  0.93650  0.88780  Biso   1.000  C
  H441     1.0000 0.27110  0.54810  0.41660  Biso   1.000  H
  H442     1.0000 0.22890  0.04810  0.08340  Biso   1.000  H
  H443     1.0000 0.72890  0.45190  0.58340  Biso   1.000  H
  H444     1.0000 0.77110  0.95190  0.91660  Biso   1.000  H
  H445     1.0000 0.24740  0.58240  0.35830  Biso   1.000  H
  H446     1.0000 0.25260  0.08240  0.14170  Biso   1.000  H
  H447     1.0000 0.75260  0.41760  0.64170  Biso   1.000  H
  H448     1.0000 0.74740  0.91760  0.85830  Biso   1.000  H
