data_image0
_cell_length_a       38.4955
_cell_length_b       17.5041
_cell_length_c       27.6236
_cell_angle_alpha    90
_cell_angle_beta     113.737
_cell_angle_gamma    90

_symmetry_space_group_name_H-M    "P 1"
_symmetry_int_tables_number       1

loop_
  _symmetry_equiv_pos_as_xyz
  'x, y, z'

loop_
  _atom_site_label
  _atom_site_occupancy
  _atom_site_fract_x
  _atom_site_fract_y
  _atom_site_fract_z
  _atom_site_thermal_displace_type
  _atom_site_B_iso_or_equiv
  _atom_site_type_symbol
  Cu1      1.0000 0.34449  0.69572  0.83760  Biso   1.000  Cu
  Cu2      1.0000 0.65551  0.69572  0.66240  Biso   1.000  Cu
  Cu3      1.0000 0.84449  0.19572  0.83760  Biso   1.000  Cu
  Cu4      1.0000 0.15551  0.19572  0.66240  Biso   1.000  Cu
  Cu5      1.0000 0.65551  0.30428  0.16240  Biso   1.000  Cu
  Cu6      1.0000 0.34449  0.30428  0.33760  Biso   1.000  Cu
  Cu7      1.0000 0.15551  0.80428  0.16240  Biso   1.000  Cu
  Cu8      1.0000 0.84449  0.80428  0.33760  Biso   1.000  Cu
  O1       1.0000 0.29120  0.75380  0.81270  Biso   1.000  O
  O2       1.0000 0.70880  0.75380  0.68730  Biso   1.000  O
  O3       1.0000 0.79120  0.25380  0.81270  Biso   1.000  O
  O4       1.0000 0.20880  0.25380  0.68730  Biso   1.000  O
  O5       1.0000 0.70880  0.24620  0.18730  Biso   1.000  O
  O6       1.0000 0.29120  0.24620  0.31270  Biso   1.000  O
  O7       1.0000 0.20880  0.74620  0.18730  Biso   1.000  O
  O8       1.0000 0.79120  0.74620  0.31270  Biso   1.000  O
  N1       1.0000 0.35302  0.31740  0.23200  Biso   1.000  N
  N2       1.0000 0.64698  0.31740  0.26800  Biso   1.000  N
  N3       1.0000 0.85302  0.81740  0.23200  Biso   1.000  N
  N4       1.0000 0.14698  0.81740  0.26800  Biso   1.000  N
  N5       1.0000 0.64698  0.68260  0.76800  Biso   1.000  N
  N6       1.0000 0.35302  0.68260  0.73200  Biso   1.000  N
  N7       1.0000 0.14698  0.18260  0.76800  Biso   1.000  N
  N8       1.0000 0.85302  0.18260  0.73200  Biso   1.000  N
  N9       1.0000 0.40050  0.80920  0.91450  Biso   1.000  N
  N10      1.0000 0.59950  0.80920  0.58550  Biso   1.000  N
  N11      1.0000 0.90050  0.30920  0.91450  Biso   1.000  N
  N12      1.0000 0.09950  0.30920  0.58550  Biso   1.000  N
  N13      1.0000 0.59950  0.19080  0.08550  Biso   1.000  N
  N14      1.0000 0.40050  0.19080  0.41450  Biso   1.000  N
  N15      1.0000 0.09950  0.69080  0.08550  Biso   1.000  N
  N16      1.0000 0.90050  0.69080  0.41450  Biso   1.000  N
  N17      1.0000 0.33520  0.56550  0.90420  Biso   1.000  N
  N18      1.0000 0.66480  0.56550  0.59580  Biso   1.000  N
  N19      1.0000 0.83520  0.06550  0.90420  Biso   1.000  N
  N20      1.0000 0.16480  0.06550  0.59580  Biso   1.000  N
  N21      1.0000 0.66480  0.43450  0.09580  Biso   1.000  N
  N22      1.0000 0.33520  0.43450  0.40420  Biso   1.000  N
  N23      1.0000 0.16480  0.93450  0.09580  Biso   1.000  N
  N24      1.0000 0.83520  0.93450  0.40420  Biso   1.000  N
  C1       1.0000 0.34910  0.34770  0.18330  Biso   1.000  C
  C2       1.0000 0.65090  0.34770  0.31670  Biso   1.000  C
  C3       1.0000 0.84910  0.84770  0.18330  Biso   1.000  C
  C4       1.0000 0.15090  0.84770  0.31670  Biso   1.000  C
  C5       1.0000 0.65090  0.65230  0.81670  Biso   1.000  C
  C6       1.0000 0.34910  0.65230  0.68330  Biso   1.000  C
  C7       1.0000 0.15090  0.15230  0.81670  Biso   1.000  C
  C8       1.0000 0.84910  0.15230  0.68330  Biso   1.000  C
  C9       1.0000 0.36530  0.30920  0.15370  Biso   1.000  C
  C10      1.0000 0.63470  0.30920  0.34630  Biso   1.000  C
  C11      1.0000 0.86530  0.80920  0.15370  Biso   1.000  C
  C12      1.0000 0.13470  0.80920  0.34630  Biso   1.000  C
  C13      1.0000 0.63470  0.69080  0.84630  Biso   1.000  C
  C14      1.0000 0.36530  0.69080  0.65370  Biso   1.000  C
  C15      1.0000 0.13470  0.19080  0.84630  Biso   1.000  C
  C16      1.0000 0.86530  0.19080  0.65370  Biso   1.000  C
  C17      1.0000 0.32900  0.41650  0.16790  Biso   1.000  C
  C18      1.0000 0.67100  0.41650  0.33210  Biso   1.000  C
  C19      1.0000 0.82900  0.91650  0.16790  Biso   1.000  C
  C20      1.0000 0.17100  0.91650  0.33210  Biso   1.000  C
  C21      1.0000 0.67100  0.58350  0.83210  Biso   1.000  C
  C22      1.0000 0.32900  0.58350  0.66790  Biso   1.000  C
  C23      1.0000 0.17100  0.08350  0.83210  Biso   1.000  C
  C24      1.0000 0.82900  0.08350  0.66790  Biso   1.000  C
  C25      1.0000 0.33590  0.52380  0.94870  Biso   1.000  C
  C26      1.0000 0.66410  0.52380  0.55130  Biso   1.000  C
  C27      1.0000 0.83590  0.02380  0.94870  Biso   1.000  C
  C28      1.0000 0.16410  0.02380  0.55130  Biso   1.000  C
  C29      1.0000 0.66410  0.47620  0.05130  Biso   1.000  C
  C30      1.0000 0.33590  0.47620  0.44870  Biso   1.000  C
  C31      1.0000 0.16410  0.97620  0.05130  Biso   1.000  C
  C32      1.0000 0.83590  0.97620  0.44870  Biso   1.000  C
  C33      1.0000 0.31180  0.54710  0.97220  Biso   1.000  C
  C34      1.0000 0.68820  0.54710  0.52780  Biso   1.000  C
  C35      1.0000 0.81180  0.04710  0.97220  Biso   1.000  C
  C36      1.0000 0.18820  0.04710  0.52780  Biso   1.000  C
  C37      1.0000 0.68820  0.45290  0.02780  Biso   1.000  C
  C38      1.0000 0.31180  0.45290  0.47220  Biso   1.000  C
  C39      1.0000 0.18820  0.95290  0.02780  Biso   1.000  C
  C40      1.0000 0.81180  0.95290  0.47220  Biso   1.000  C
  C41      1.0000 0.28400  0.61100  0.95080  Biso   1.000  C
  C42      1.0000 0.71600  0.61100  0.54920  Biso   1.000  C
  C43      1.0000 0.78400  0.11100  0.95080  Biso   1.000  C
  C44      1.0000 0.21600  0.11100  0.54920  Biso   1.000  C
  C45      1.0000 0.71600  0.38900  0.04920  Biso   1.000  C
  C46      1.0000 0.28400  0.38900  0.45080  Biso   1.000  C
  C47      1.0000 0.21600  0.88900  0.04920  Biso   1.000  C
  C48      1.0000 0.78400  0.88900  0.45080  Biso   1.000  C
  C49      1.0000 0.32780  0.45030  0.12190  Biso   1.000  C
  C50      1.0000 0.67220  0.45030  0.37810  Biso   1.000  C
  C51      1.0000 0.82780  0.95030  0.12190  Biso   1.000  C
  C52      1.0000 0.17220  0.95030  0.37810  Biso   1.000  C
  C53      1.0000 0.67220  0.54970  0.87810  Biso   1.000  C
  C54      1.0000 0.32780  0.54970  0.62190  Biso   1.000  C
  C55      1.0000 0.17220  0.04970  0.87810  Biso   1.000  C
  C56      1.0000 0.82780  0.04970  0.62190  Biso   1.000  C
  H1       1.0000 0.31590  0.49860  0.11150  Biso   1.000  H
  H2       1.0000 0.68410  0.49860  0.38850  Biso   1.000  H
  H3       1.0000 0.81590  0.99860  0.11150  Biso   1.000  H
  H4       1.0000 0.18410  0.99860  0.38850  Biso   1.000  H
  H5       1.0000 0.68410  0.50140  0.88850  Biso   1.000  H
  H6       1.0000 0.31590  0.50140  0.61150  Biso   1.000  H
  H7       1.0000 0.18410  0.00140  0.88850  Biso   1.000  H
  H8       1.0000 0.81590  0.00140  0.61150  Biso   1.000  H
  C57      1.0000 0.48530  0.97110  0.98710  Biso   1.000  C
  C58      1.0000 0.51470  0.97110  0.51290  Biso   1.000  C
  C59      1.0000 0.98530  0.47110  0.98710  Biso   1.000  C
  C60      1.0000 0.01470  0.47110  0.51290  Biso   1.000  C
  C61      1.0000 0.51470  0.02890  0.01290  Biso   1.000  C
  C62      1.0000 0.48530  0.02890  0.48710  Biso   1.000  C
  C63      1.0000 0.01470  0.52890  0.01290  Biso   1.000  C
  C64      1.0000 0.98530  0.52890  0.48710  Biso   1.000  C
  C65      1.0000 0.31060  0.45070  0.20040  Biso   1.000  C
  C66      1.0000 0.68940  0.45070  0.29960  Biso   1.000  C
  C67      1.0000 0.81060  0.95070  0.20040  Biso   1.000  C
  C68      1.0000 0.18940  0.95070  0.29960  Biso   1.000  C
  C69      1.0000 0.68940  0.54930  0.79960  Biso   1.000  C
  C70      1.0000 0.31060  0.54930  0.70040  Biso   1.000  C
  C71      1.0000 0.18940  0.04930  0.79960  Biso   1.000  C
  C72      1.0000 0.81060  0.04930  0.70040  Biso   1.000  C
  C73      1.0000 0.42920  0.86230  0.94020  Biso   1.000  C
  C74      1.0000 0.57080  0.86230  0.55980  Biso   1.000  C
  C75      1.0000 0.92920  0.36230  0.94020  Biso   1.000  C
  C76      1.0000 0.07080  0.36230  0.55980  Biso   1.000  C
  C77      1.0000 0.57080  0.13770  0.05980  Biso   1.000  C
  C78      1.0000 0.42920  0.13770  0.44020  Biso   1.000  C
  C79      1.0000 0.07080  0.63770  0.05980  Biso   1.000  C
  C80      1.0000 0.92920  0.63770  0.44020  Biso   1.000  C
  C81      1.0000 0.34380  0.41500  0.09050  Biso   1.000  C
  C82      1.0000 0.65620  0.41500  0.40950  Biso   1.000  C
  C83      1.0000 0.84380  0.91500  0.09050  Biso   1.000  C
  C84      1.0000 0.15620  0.91500  0.40950  Biso   1.000  C
  C85      1.0000 0.65620  0.58500  0.90950  Biso   1.000  C
  C86      1.0000 0.34380  0.58500  0.59050  Biso   1.000  C
  C87      1.0000 0.15620  0.08500  0.90950  Biso   1.000  C
  C88      1.0000 0.84380  0.08500  0.59050  Biso   1.000  C
  C89      1.0000 0.46420  0.85260  0.93720  Biso   1.000  C
  C90      1.0000 0.53580  0.85260  0.56280  Biso   1.000  C
  C91      1.0000 0.96420  0.35260  0.93720  Biso   1.000  C
  C92      1.0000 0.03580  0.35260  0.56280  Biso   1.000  C
  C93      1.0000 0.53580  0.14740  0.06280  Biso   1.000  C
  C94      1.0000 0.46420  0.14740  0.43720  Biso   1.000  C
  C95      1.0000 0.03580  0.64740  0.06280  Biso   1.000  C
  C96      1.0000 0.96420  0.64740  0.43720  Biso   1.000  C
  C97      1.0000 0.34110  0.45090  0.04010  Biso   1.000  C
  C98      1.0000 0.65890  0.45090  0.45990  Biso   1.000  C
  C99      1.0000 0.84110  0.95090  0.04010  Biso   1.000  C
  C100     1.0000 0.15890  0.95090  0.45990  Biso   1.000  C
  C101     1.0000 0.65890  0.54910  0.95990  Biso   1.000  C
  C102     1.0000 0.34110  0.54910  0.54010  Biso   1.000  C
  C103     1.0000 0.15890  0.04910  0.95990  Biso   1.000  C
  C104     1.0000 0.84110  0.04910  0.54010  Biso   1.000  C
  C105     1.0000 0.31510  0.50800  0.01700  Biso   1.000  C
  C106     1.0000 0.68490  0.50800  0.48300  Biso   1.000  C
  C107     1.0000 0.81510  0.00800  0.01700  Biso   1.000  C
  C108     1.0000 0.18490  0.00800  0.48300  Biso   1.000  C
  C109     1.0000 0.68490  0.49200  0.98300  Biso   1.000  C
  C110     1.0000 0.31510  0.49200  0.51700  Biso   1.000  C
  C111     1.0000 0.18490  0.99200  0.98300  Biso   1.000  C
  C112     1.0000 0.81510  0.99200  0.51700  Biso   1.000  C
  H9       1.0000 0.29820  0.52130  0.03300  Biso   1.000  H
  H10      1.0000 0.70180  0.52130  0.46700  Biso   1.000  H
  H11      1.0000 0.79820  0.02130  0.03300  Biso   1.000  H
  H12      1.0000 0.20180  0.02130  0.46700  Biso   1.000  H
  H13      1.0000 0.70180  0.47870  0.96700  Biso   1.000  H
  H14      1.0000 0.29820  0.47870  0.53300  Biso   1.000  H
  H15      1.0000 0.20180  0.97870  0.96700  Biso   1.000  H
  H16      1.0000 0.79820  0.97870  0.53300  Biso   1.000  H
  C113     1.0000 0.44870  0.97800  0.98690  Biso   1.000  C
  C114     1.0000 0.55130  0.97800  0.51310  Biso   1.000  C
  C115     1.0000 0.94870  0.47800  0.98690  Biso   1.000  C
  C116     1.0000 0.05130  0.47800  0.51310  Biso   1.000  C
  C117     1.0000 0.55130  0.02200  0.01310  Biso   1.000  C
  C118     1.0000 0.44870  0.02200  0.48690  Biso   1.000  C
  C119     1.0000 0.05130  0.52200  0.01310  Biso   1.000  C
  C120     1.0000 0.94870  0.52200  0.48690  Biso   1.000  C
  H17      1.0000 0.44340  0.02100  0.00380  Biso   1.000  H
  H18      1.0000 0.55660  0.02100  0.49620  Biso   1.000  H
  H19      1.0000 0.94340  0.52100  0.00380  Biso   1.000  H
  H20      1.0000 0.05660  0.52100  0.49620  Biso   1.000  H
  H21      1.0000 0.55660  0.97900  0.99620  Biso   1.000  H
  H22      1.0000 0.44340  0.97900  0.50380  Biso   1.000  H
  H23      1.0000 0.05660  0.47900  0.99620  Biso   1.000  H
  H24      1.0000 0.94340  0.47900  0.50380  Biso   1.000  H
  C121     1.0000 0.36470  0.43000  0.01490  Biso   1.000  C
  C122     1.0000 0.63530  0.43000  0.48510  Biso   1.000  C
  C123     1.0000 0.86470  0.93000  0.01490  Biso   1.000  C
  C124     1.0000 0.13530  0.93000  0.48510  Biso   1.000  C
  C125     1.0000 0.63530  0.57000  0.98510  Biso   1.000  C
  C126     1.0000 0.36470  0.57000  0.51490  Biso   1.000  C
  C127     1.0000 0.13530  0.07000  0.98510  Biso   1.000  C
  C128     1.0000 0.86470  0.07000  0.51490  Biso   1.000  C
  H25      1.0000 0.38300  0.39080  0.02970  Biso   1.000  H
  H26      1.0000 0.61700  0.39080  0.47030  Biso   1.000  H
  H27      1.0000 0.88300  0.89080  0.02970  Biso   1.000  H
  H28      1.0000 0.11700  0.89080  0.47030  Biso   1.000  H
  H29      1.0000 0.61700  0.60920  0.97030  Biso   1.000  H
  H30      1.0000 0.38300  0.60920  0.52970  Biso   1.000  H
  H31      1.0000 0.11700  0.10920  0.97030  Biso   1.000  H
  H32      1.0000 0.88300  0.10920  0.52970  Biso   1.000  H
  C129     1.0000 0.37830  0.76510  0.88770  Biso   1.000  C
  C130     1.0000 0.62170  0.76510  0.61230  Biso   1.000  C
  C131     1.0000 0.87830  0.26510  0.88770  Biso   1.000  C
  C132     1.0000 0.12170  0.26510  0.61230  Biso   1.000  C
  C133     1.0000 0.62170  0.23490  0.11230  Biso   1.000  C
  C134     1.0000 0.37830  0.23490  0.38770  Biso   1.000  C
  C135     1.0000 0.12170  0.73490  0.11230  Biso   1.000  C
  C136     1.0000 0.87830  0.73490  0.38770  Biso   1.000  C
  C137     1.0000 0.36080  0.34490  0.10600  Biso   1.000  C
  C138     1.0000 0.63920  0.34490  0.39400  Biso   1.000  C
  C139     1.0000 0.86080  0.84490  0.10600  Biso   1.000  C
  C140     1.0000 0.13920  0.84490  0.39400  Biso   1.000  C
  C141     1.0000 0.63920  0.65510  0.89400  Biso   1.000  C
  C142     1.0000 0.36080  0.65510  0.60600  Biso   1.000  C
  C143     1.0000 0.13920  0.15510  0.89400  Biso   1.000  C
  C144     1.0000 0.86080  0.15510  0.60600  Biso   1.000  C
  H33      1.0000 0.37010  0.31930  0.08330  Biso   1.000  H
  H34      1.0000 0.62990  0.31930  0.41670  Biso   1.000  H
  H35      1.0000 0.87010  0.81930  0.08330  Biso   1.000  H
  H36      1.0000 0.12990  0.81930  0.41670  Biso   1.000  H
  H37      1.0000 0.62990  0.68070  0.91670  Biso   1.000  H
  H38      1.0000 0.37010  0.68070  0.58330  Biso   1.000  H
  H39      1.0000 0.12990  0.18070  0.91670  Biso   1.000  H
  H40      1.0000 0.87010  0.18070  0.58330  Biso   1.000  H
  C145     1.0000 0.36200  0.46580  0.96850  Biso   1.000  C
  C146     1.0000 0.63800  0.46580  0.53150  Biso   1.000  C
  C147     1.0000 0.86200  0.96580  0.96850  Biso   1.000  C
  C148     1.0000 0.13800  0.96580  0.53150  Biso   1.000  C
  C149     1.0000 0.63800  0.53420  0.03150  Biso   1.000  C
  C150     1.0000 0.36200  0.53420  0.46850  Biso   1.000  C
  C151     1.0000 0.13800  0.03420  0.03150  Biso   1.000  C
  C152     1.0000 0.86200  0.03420  0.46850  Biso   1.000  C
  C153     1.0000 0.38150  0.93830  0.96160  Biso   1.000  C
  C154     1.0000 0.61850  0.93830  0.53840  Biso   1.000  C
  C155     1.0000 0.88150  0.43830  0.96160  Biso   1.000  C
  C156     1.0000 0.11850  0.43830  0.53840  Biso   1.000  C
  C157     1.0000 0.61850  0.06170  0.03840  Biso   1.000  C
  C158     1.0000 0.38150  0.06170  0.46160  Biso   1.000  C
  C159     1.0000 0.11850  0.56170  0.03840  Biso   1.000  C
  C160     1.0000 0.88150  0.56170  0.46160  Biso   1.000  C
  C161     1.0000 0.33620  0.60790  0.87250  Biso   1.000  C
  C162     1.0000 0.66380  0.60790  0.62750  Biso   1.000  C
  C163     1.0000 0.83620  0.10790  0.87250  Biso   1.000  C
  C164     1.0000 0.16380  0.10790  0.62750  Biso   1.000  C
  C165     1.0000 0.66380  0.39210  0.12750  Biso   1.000  C
  C166     1.0000 0.33620  0.39210  0.37250  Biso   1.000  C
  C167     1.0000 0.16380  0.89210  0.12750  Biso   1.000  C
  C168     1.0000 0.83620  0.89210  0.37250  Biso   1.000  C
  C169     1.0000 0.35120  0.30960  0.27290  Biso   1.000  C
  C170     1.0000 0.64880  0.30960  0.22710  Biso   1.000  C
  C171     1.0000 0.85120  0.80960  0.27290  Biso   1.000  C
  C172     1.0000 0.14880  0.80960  0.22710  Biso   1.000  C
  C173     1.0000 0.64880  0.69040  0.72710  Biso   1.000  C
  C174     1.0000 0.35120  0.69040  0.77290  Biso   1.000  C
  C175     1.0000 0.14880  0.19040  0.72710  Biso   1.000  C
  C176     1.0000 0.85120  0.19040  0.77290  Biso   1.000  C
  C177     1.0000 0.42080  0.92640  0.96360  Biso   1.000  C
  C178     1.0000 0.57920  0.92640  0.53640  Biso   1.000  C
  C179     1.0000 0.92080  0.42640  0.96360  Biso   1.000  C
  C180     1.0000 0.07920  0.42640  0.53640  Biso   1.000  C
  C181     1.0000 0.57920  0.07360  0.03640  Biso   1.000  C
  C182     1.0000 0.42080  0.07360  0.46360  Biso   1.000  C
  C183     1.0000 0.07920  0.57360  0.03640  Biso   1.000  C
  C184     1.0000 0.92080  0.57360  0.46360  Biso   1.000  C
  C185     1.0000 0.27400  0.42170  0.19320  Biso   1.000  C
  C186     1.0000 0.72600  0.42170  0.30680  Biso   1.000  C
  C187     1.0000 0.77400  0.92170  0.19320  Biso   1.000  C
  C188     1.0000 0.22600  0.92170  0.30680  Biso   1.000  C
  C189     1.0000 0.72600  0.57830  0.80680  Biso   1.000  C
  C190     1.0000 0.27400  0.57830  0.69320  Biso   1.000  C
  C191     1.0000 0.22600  0.07830  0.80680  Biso   1.000  C
  C192     1.0000 0.77400  0.07830  0.69320  Biso   1.000  C
  C193     1.0000 0.38360  0.23230  0.16860  Biso   1.000  C
  C194     1.0000 0.61640  0.23230  0.33140  Biso   1.000  C
  C195     1.0000 0.88360  0.73230  0.16860  Biso   1.000  C
  C196     1.0000 0.11640  0.73230  0.33140  Biso   1.000  C
  C197     1.0000 0.61640  0.76770  0.83140  Biso   1.000  C
  C198     1.0000 0.38360  0.76770  0.66860  Biso   1.000  C
  C199     1.0000 0.11640  0.26770  0.83140  Biso   1.000  C
  C200     1.0000 0.88360  0.26770  0.66860  Biso   1.000  C
  C201     1.0000 0.49160  0.90700  0.96220  Biso   1.000  C
  C202     1.0000 0.50840  0.90700  0.53780  Biso   1.000  C
  C203     1.0000 0.99160  0.40700  0.96220  Biso   1.000  C
  C204     1.0000 0.00840  0.40700  0.53780  Biso   1.000  C
  C205     1.0000 0.50840  0.09300  0.03780  Biso   1.000  C
  C206     1.0000 0.49160  0.09300  0.46220  Biso   1.000  C
  C207     1.0000 0.00840  0.59300  0.03780  Biso   1.000  C
  C208     1.0000 0.99160  0.59300  0.46220  Biso   1.000  C
  H41      1.0000 0.51610  0.90010  0.96240  Biso   1.000  H
  H42      1.0000 0.48390  0.90010  0.53760  Biso   1.000  H
  H43      1.0000 0.01610  0.40010  0.96240  Biso   1.000  H
  H44      1.0000 0.98390  0.40010  0.53760  Biso   1.000  H
  H45      1.0000 0.48390  0.09990  0.03760  Biso   1.000  H
  H46      1.0000 0.51610  0.09990  0.46240  Biso   1.000  H
  H47      1.0000 0.98390  0.59990  0.03760  Biso   1.000  H
  H48      1.0000 0.01610  0.59990  0.46240  Biso   1.000  H
  C209     1.0000 0.24500  0.59400  0.92300  Biso   1.000  C
  C210     1.0000 0.75500  0.59400  0.57700  Biso   1.000  C
  C211     1.0000 0.74500  0.09400  0.92300  Biso   1.000  C
  C212     1.0000 0.25500  0.09400  0.57700  Biso   1.000  C
  C213     1.0000 0.75500  0.40600  0.07700  Biso   1.000  C
  C214     1.0000 0.24500  0.40600  0.42300  Biso   1.000  C
  C215     1.0000 0.25500  0.90600  0.07700  Biso   1.000  C
  C216     1.0000 0.74500  0.90600  0.42300  Biso   1.000  C
  C217     1.0000 0.29540  0.68490  0.96280  Biso   1.000  C
  C218     1.0000 0.70460  0.68490  0.53720  Biso   1.000  C
  C219     1.0000 0.79540  0.18490  0.96280  Biso   1.000  C
  C220     1.0000 0.20460  0.18490  0.53720  Biso   1.000  C
  C221     1.0000 0.70460  0.31510  0.03720  Biso   1.000  C
  C222     1.0000 0.29540  0.31510  0.46280  Biso   1.000  C
  C223     1.0000 0.20460  0.81510  0.03720  Biso   1.000  C
  C224     1.0000 0.79540  0.81510  0.46280  Biso   1.000  C
  C225     1.0000 0.37340  0.91670  0.00410  Biso   1.000  C
  C226     1.0000 0.62660  0.91670  0.49590  Biso   1.000  C
  C227     1.0000 0.87340  0.41670  0.00410  Biso   1.000  C
  C228     1.0000 0.12660  0.41670  0.49590  Biso   1.000  C
  C229     1.0000 0.62660  0.08330  0.99590  Biso   1.000  C
  C230     1.0000 0.37340  0.08330  0.50410  Biso   1.000  C
  C231     1.0000 0.12660  0.58330  0.99590  Biso   1.000  C
  C232     1.0000 0.87340  0.58330  0.50410  Biso   1.000  C
  C233     1.0000 0.25670  0.45060  0.22520  Biso   1.000  C
  C234     1.0000 0.74330  0.45060  0.27480  Biso   1.000  C
  C235     1.0000 0.75670  0.95060  0.22520  Biso   1.000  C
  C236     1.0000 0.24330  0.95060  0.27480  Biso   1.000  C
  C237     1.0000 0.74330  0.54940  0.77480  Biso   1.000  C
  C238     1.0000 0.25670  0.54940  0.72520  Biso   1.000  C
  C239     1.0000 0.24330  0.04940  0.77480  Biso   1.000  C
  C240     1.0000 0.75670  0.04940  0.72520  Biso   1.000  C
  H49      1.0000 0.23230  0.43260  0.22060  Biso   1.000  H
  H50      1.0000 0.76770  0.43260  0.27940  Biso   1.000  H
  H51      1.0000 0.73230  0.93260  0.22060  Biso   1.000  H
  H52      1.0000 0.26770  0.93260  0.27940  Biso   1.000  H
  H53      1.0000 0.76770  0.56740  0.77940  Biso   1.000  H
  H54      1.0000 0.23230  0.56740  0.72060  Biso   1.000  H
  H55      1.0000 0.26770  0.06740  0.77940  Biso   1.000  H
  H56      1.0000 0.73230  0.06740  0.72060  Biso   1.000  H
  C241     1.0000 0.30860  0.96240  0.95510  Biso   1.000  C
  C242     1.0000 0.69140  0.96240  0.54490  Biso   1.000  C
  C243     1.0000 0.80860  0.46240  0.95510  Biso   1.000  C
  C244     1.0000 0.19140  0.46240  0.54490  Biso   1.000  C
  C245     1.0000 0.69140  0.03760  0.04490  Biso   1.000  C
  C246     1.0000 0.30860  0.03760  0.45510  Biso   1.000  C
  C247     1.0000 0.19140  0.53760  0.04490  Biso   1.000  C
  C248     1.0000 0.80860  0.53760  0.45510  Biso   1.000  C
  C249     1.0000 0.35370  0.96920  0.91720  Biso   1.000  C
  C250     1.0000 0.64630  0.96920  0.58280  Biso   1.000  C
  C251     1.0000 0.85370  0.46920  0.91720  Biso   1.000  C
  C252     1.0000 0.14630  0.46920  0.58280  Biso   1.000  C
  C253     1.0000 0.64630  0.03080  0.08280  Biso   1.000  C
  C254     1.0000 0.35370  0.03080  0.41720  Biso   1.000  C
  C255     1.0000 0.14630  0.53080  0.08280  Biso   1.000  C
  C256     1.0000 0.85370  0.53080  0.41720  Biso   1.000  C
  C257     1.0000 0.32760  0.50480  0.23740  Biso   1.000  C
  C258     1.0000 0.67240  0.50480  0.26260  Biso   1.000  C
  C259     1.0000 0.82760  0.00480  0.23740  Biso   1.000  C
  C260     1.0000 0.17240  0.00480  0.26260  Biso   1.000  C
  C261     1.0000 0.67240  0.49520  0.76260  Biso   1.000  C
  C262     1.0000 0.32760  0.49520  0.73740  Biso   1.000  C
  C263     1.0000 0.17240  0.99520  0.76260  Biso   1.000  C
  C264     1.0000 0.82760  0.99520  0.73740  Biso   1.000  C
  C265     1.0000 0.21950  0.65540  0.90860  Biso   1.000  C
  C266     1.0000 0.78050  0.65540  0.59140  Biso   1.000  C
  C267     1.0000 0.71950  0.15540  0.90860  Biso   1.000  C
  C268     1.0000 0.28050  0.15540  0.59140  Biso   1.000  C
  C269     1.0000 0.78050  0.34460  0.09140  Biso   1.000  C
  C270     1.0000 0.21950  0.34460  0.40860  Biso   1.000  C
  C271     1.0000 0.28050  0.84460  0.09140  Biso   1.000  C
  C272     1.0000 0.71950  0.84460  0.40860  Biso   1.000  C
  H57      1.0000 0.19340  0.64440  0.88840  Biso   1.000  H
  H58      1.0000 0.80660  0.64440  0.61160  Biso   1.000  H
  H59      1.0000 0.69340  0.14440  0.88840  Biso   1.000  H
  H60      1.0000 0.30660  0.14440  0.61160  Biso   1.000  H
  H61      1.0000 0.80660  0.35560  0.11160  Biso   1.000  H
  H62      1.0000 0.19340  0.35560  0.38840  Biso   1.000  H
  H63      1.0000 0.30660  0.85560  0.11160  Biso   1.000  H
  H64      1.0000 0.69340  0.85560  0.38840  Biso   1.000  H
  C273     1.0000 0.31760  0.98070  0.91470  Biso   1.000  C
  C274     1.0000 0.68240  0.98070  0.58530  Biso   1.000  C
  C275     1.0000 0.81760  0.48070  0.91470  Biso   1.000  C
  C276     1.0000 0.18240  0.48070  0.58530  Biso   1.000  C
  C277     1.0000 0.68240  0.01930  0.08530  Biso   1.000  C
  C278     1.0000 0.31760  0.01930  0.41470  Biso   1.000  C
  C279     1.0000 0.18240  0.51930  0.08530  Biso   1.000  C
  C280     1.0000 0.81760  0.51930  0.41470  Biso   1.000  C
  H65      1.0000 0.29870  0.00200  0.88360  Biso   1.000  H
  H66      1.0000 0.70130  0.00200  0.61640  Biso   1.000  H
  H67      1.0000 0.79870  0.50200  0.88360  Biso   1.000  H
  H68      1.0000 0.20130  0.50200  0.61640  Biso   1.000  H
  H69      1.0000 0.70130  0.99800  0.11640  Biso   1.000  H
  H70      1.0000 0.29870  0.99800  0.38360  Biso   1.000  H
  H71      1.0000 0.20130  0.49800  0.11640  Biso   1.000  H
  H72      1.0000 0.79870  0.49800  0.38360  Biso   1.000  H
  C281     1.0000 0.25490  0.35820  0.15540  Biso   1.000  C
  C282     1.0000 0.74510  0.35820  0.34460  Biso   1.000  C
  C283     1.0000 0.75490  0.85820  0.15540  Biso   1.000  C
  C284     1.0000 0.24510  0.85820  0.34460  Biso   1.000  C
  C285     1.0000 0.74510  0.64180  0.84460  Biso   1.000  C
  C286     1.0000 0.25490  0.64180  0.65540  Biso   1.000  C
  C287     1.0000 0.24510  0.14180  0.84460  Biso   1.000  C
  C288     1.0000 0.75490  0.14180  0.65540  Biso   1.000  C
  H73      1.0000 0.25350  0.37120  0.12020  Biso   1.000  H
  H74      1.0000 0.74650  0.37120  0.37980  Biso   1.000  H
  H75      1.0000 0.75350  0.87120  0.12020  Biso   1.000  H
  H76      1.0000 0.24650  0.87120  0.37980  Biso   1.000  H
  H77      1.0000 0.74650  0.62880  0.87980  Biso   1.000  H
  H78      1.0000 0.25350  0.62880  0.62020  Biso   1.000  H
  H79      1.0000 0.24650  0.12880  0.87980  Biso   1.000  H
  H80      1.0000 0.75350  0.12880  0.62020  Biso   1.000  H
  H81      1.0000 0.22910  0.35100  0.15370  Biso   1.000  H
  H82      1.0000 0.77090  0.35100  0.34630  Biso   1.000  H
  H83      1.0000 0.72910  0.85100  0.15370  Biso   1.000  H
  H84      1.0000 0.27090  0.85100  0.34630  Biso   1.000  H
  H85      1.0000 0.77090  0.64900  0.84630  Biso   1.000  H
  H86      1.0000 0.22910  0.64900  0.65370  Biso   1.000  H
  H87      1.0000 0.27090  0.14900  0.84630  Biso   1.000  H
  H88      1.0000 0.72910  0.14900  0.65370  Biso   1.000  H
  H89      1.0000 0.26940  0.31090  0.16770  Biso   1.000  H
  H90      1.0000 0.73060  0.31090  0.33230  Biso   1.000  H
  H91      1.0000 0.76940  0.81090  0.16770  Biso   1.000  H
  H92      1.0000 0.23060  0.81090  0.33230  Biso   1.000  H
  H93      1.0000 0.73060  0.68910  0.83230  Biso   1.000  H
  H94      1.0000 0.26940  0.68910  0.66770  Biso   1.000  H
  H95      1.0000 0.23060  0.18910  0.83230  Biso   1.000  H
  H96      1.0000 0.76940  0.18910  0.66770  Biso   1.000  H
  C289     1.0000 0.33660  0.92990  0.00050  Biso   1.000  C
  C290     1.0000 0.66340  0.92990  0.49950  Biso   1.000  C
  C291     1.0000 0.83660  0.42990  0.00050  Biso   1.000  C
  C292     1.0000 0.16340  0.42990  0.49950  Biso   1.000  C
  C293     1.0000 0.66340  0.07010  0.99950  Biso   1.000  C
  C294     1.0000 0.33660  0.07010  0.50050  Biso   1.000  C
  C295     1.0000 0.16340  0.57010  0.99950  Biso   1.000  C
  C296     1.0000 0.83660  0.57010  0.50050  Biso   1.000  C
  H97      1.0000 0.33050  0.91670  0.02940  Biso   1.000  H
  H98      1.0000 0.66950  0.91670  0.47060  Biso   1.000  H
  H99      1.0000 0.83050  0.41670  0.02940  Biso   1.000  H
  H100     1.0000 0.16950  0.41670  0.47060  Biso   1.000  H
  H101     1.0000 0.66950  0.08330  0.97060  Biso   1.000  H
  H102     1.0000 0.33050  0.08330  0.52940  Biso   1.000  H
  H103     1.0000 0.16950  0.58330  0.97060  Biso   1.000  H
  H104     1.0000 0.83050  0.58330  0.52940  Biso   1.000  H
  C297     1.0000 0.22950  0.51460  0.90860  Biso   1.000  C
  C298     1.0000 0.77050  0.51460  0.59140  Biso   1.000  C
  C299     1.0000 0.72950  0.01460  0.90860  Biso   1.000  C
  C300     1.0000 0.27050  0.01460  0.59140  Biso   1.000  C
  C301     1.0000 0.77050  0.48540  0.09140  Biso   1.000  C
  C302     1.0000 0.22950  0.48540  0.40860  Biso   1.000  C
  C303     1.0000 0.27050  0.98540  0.09140  Biso   1.000  C
  C304     1.0000 0.72950  0.98540  0.40860  Biso   1.000  C
  H105     1.0000 0.24340  0.48810  0.89060  Biso   1.000  H
  H106     1.0000 0.75660  0.48810  0.60940  Biso   1.000  H
  H107     1.0000 0.74340  0.98810  0.89060  Biso   1.000  H
  H108     1.0000 0.25660  0.98810  0.60940  Biso   1.000  H
  H109     1.0000 0.75660  0.51190  0.10940  Biso   1.000  H
  H110     1.0000 0.24340  0.51190  0.39060  Biso   1.000  H
  H111     1.0000 0.25660  0.01190  0.10940  Biso   1.000  H
  H112     1.0000 0.74340  0.01190  0.39060  Biso   1.000  H
  H113     1.0000 0.20250  0.51720  0.88500  Biso   1.000  H
  H114     1.0000 0.79750  0.51720  0.61500  Biso   1.000  H
  H115     1.0000 0.70250  0.01720  0.88500  Biso   1.000  H
  H116     1.0000 0.29750  0.01720  0.61500  Biso   1.000  H
  H117     1.0000 0.79750  0.48280  0.11500  Biso   1.000  H
  H118     1.0000 0.20250  0.48280  0.38500  Biso   1.000  H
  H119     1.0000 0.29750  0.98280  0.11500  Biso   1.000  H
  H120     1.0000 0.70250  0.98280  0.38500  Biso   1.000  H
  H121     1.0000 0.23250  0.48660  0.94080  Biso   1.000  H
  H122     1.0000 0.76750  0.48660  0.55920  Biso   1.000  H
  H123     1.0000 0.73250  0.98660  0.94080  Biso   1.000  H
  H124     1.0000 0.26750  0.98660  0.55920  Biso   1.000  H
  H125     1.0000 0.76750  0.51340  0.05920  Biso   1.000  H
  H126     1.0000 0.23250  0.51340  0.44080  Biso   1.000  H
  H127     1.0000 0.26750  0.01340  0.05920  Biso   1.000  H
  H128     1.0000 0.73250  0.01340  0.44080  Biso   1.000  H
  C305     1.0000 0.22940  0.72980  0.92140  Biso   1.000  C
  C306     1.0000 0.77060  0.72980  0.57860  Biso   1.000  C
  C307     1.0000 0.72940  0.22980  0.92140  Biso   1.000  C
  C308     1.0000 0.27060  0.22980  0.57860  Biso   1.000  C
  C309     1.0000 0.77060  0.27020  0.07860  Biso   1.000  C
  C310     1.0000 0.22940  0.27020  0.42140  Biso   1.000  C
  C311     1.0000 0.27060  0.77020  0.07860  Biso   1.000  C
  C312     1.0000 0.72940  0.77020  0.42140  Biso   1.000  C
  C313     1.0000 0.36220  0.16790  0.16890  Biso   1.000  C
  C314     1.0000 0.63780  0.16790  0.33110  Biso   1.000  C
  C315     1.0000 0.86220  0.66790  0.16890  Biso   1.000  C
  C316     1.0000 0.13780  0.66790  0.33110  Biso   1.000  C
  C317     1.0000 0.63780  0.83210  0.83110  Biso   1.000  C
  C318     1.0000 0.36220  0.83210  0.66890  Biso   1.000  C
  C319     1.0000 0.13780  0.33210  0.83110  Biso   1.000  C
  C320     1.0000 0.86220  0.33210  0.66890  Biso   1.000  C
  C321     1.0000 0.42010  0.22700  0.17820  Biso   1.000  C
  C322     1.0000 0.57990  0.22700  0.32180  Biso   1.000  C
  C323     1.0000 0.92010  0.72700  0.17820  Biso   1.000  C
  C324     1.0000 0.07990  0.72700  0.32180  Biso   1.000  C
  C325     1.0000 0.57990  0.77300  0.82180  Biso   1.000  C
  C326     1.0000 0.42010  0.77300  0.67820  Biso   1.000  C
  C327     1.0000 0.07990  0.27300  0.82180  Biso   1.000  C
  C328     1.0000 0.92010  0.27300  0.67820  Biso   1.000  C
  C329     1.0000 0.26870  0.74370  0.94810  Biso   1.000  C
  C330     1.0000 0.73130  0.74370  0.55190  Biso   1.000  C
  C331     1.0000 0.76870  0.24370  0.94810  Biso   1.000  C
  C332     1.0000 0.23130  0.24370  0.55190  Biso   1.000  C
  C333     1.0000 0.73130  0.25630  0.05190  Biso   1.000  C
  C334     1.0000 0.26870  0.25630  0.44810  Biso   1.000  C
  C335     1.0000 0.23130  0.75630  0.05190  Biso   1.000  C
  C336     1.0000 0.76870  0.75630  0.44810  Biso   1.000  C
  H129     1.0000 0.27730  0.79480  0.95640  Biso   1.000  H
  H130     1.0000 0.72270  0.79480  0.54360  Biso   1.000  H
  H131     1.0000 0.77730  0.29480  0.95640  Biso   1.000  H
  H132     1.0000 0.22270  0.29480  0.54360  Biso   1.000  H
  H133     1.0000 0.72270  0.20520  0.04360  Biso   1.000  H
  H134     1.0000 0.27730  0.20520  0.45640  Biso   1.000  H
  H135     1.0000 0.22270  0.70520  0.04360  Biso   1.000  H
  H136     1.0000 0.77730  0.70520  0.45640  Biso   1.000  H
  C337     1.0000 0.27470  0.50530  0.26370  Biso   1.000  C
  C338     1.0000 0.72530  0.50530  0.23630  Biso   1.000  C
  C339     1.0000 0.77470  0.00530  0.26370  Biso   1.000  C
  C340     1.0000 0.22530  0.00530  0.23630  Biso   1.000  C
  C341     1.0000 0.72530  0.49470  0.73630  Biso   1.000  C
  C342     1.0000 0.27470  0.49470  0.76370  Biso   1.000  C
  C343     1.0000 0.22530  0.99470  0.73630  Biso   1.000  C
  C344     1.0000 0.77470  0.99470  0.76370  Biso   1.000  C
  C345     1.0000 0.30820  0.53010  0.26870  Biso   1.000  C
  C346     1.0000 0.69180  0.53010  0.23130  Biso   1.000  C
  C347     1.0000 0.80820  0.03010  0.26870  Biso   1.000  C
  C348     1.0000 0.19180  0.03010  0.23130  Biso   1.000  C
  C349     1.0000 0.69180  0.46990  0.73130  Biso   1.000  C
  C350     1.0000 0.30820  0.46990  0.76870  Biso   1.000  C
  C351     1.0000 0.19180  0.96990  0.73130  Biso   1.000  C
  C352     1.0000 0.80820  0.96990  0.76870  Biso   1.000  C
  H137     1.0000 0.32020  0.56770  0.29490  Biso   1.000  H
  H138     1.0000 0.67980  0.56770  0.20510  Biso   1.000  H
  H139     1.0000 0.82020  0.06770  0.29490  Biso   1.000  H
  H140     1.0000 0.17980  0.06770  0.20510  Biso   1.000  H
  H141     1.0000 0.67980  0.43230  0.70510  Biso   1.000  H
  H142     1.0000 0.32020  0.43230  0.79490  Biso   1.000  H
  H143     1.0000 0.17980  0.93230  0.70510  Biso   1.000  H
  H144     1.0000 0.82020  0.93230  0.79490  Biso   1.000  H
  C353     1.0000 0.20000  0.79110  0.90650  Biso   1.000  C
  C354     1.0000 0.80000  0.79110  0.59350  Biso   1.000  C
  C355     1.0000 0.70000  0.29110  0.90650  Biso   1.000  C
  C356     1.0000 0.30000  0.29110  0.59350  Biso   1.000  C
  C357     1.0000 0.80000  0.20890  0.09350  Biso   1.000  C
  C358     1.0000 0.20000  0.20890  0.40650  Biso   1.000  C
  C359     1.0000 0.30000  0.70890  0.09350  Biso   1.000  C
  C360     1.0000 0.70000  0.70890  0.40650  Biso   1.000  C
  H145     1.0000 0.20220  0.82310  0.87870  Biso   1.000  H
  H146     1.0000 0.79780  0.82310  0.62130  Biso   1.000  H
  H147     1.0000 0.70220  0.32310  0.87870  Biso   1.000  H
  H148     1.0000 0.29780  0.32310  0.62130  Biso   1.000  H
  H149     1.0000 0.79780  0.17690  0.12130  Biso   1.000  H
  H150     1.0000 0.20220  0.17690  0.37870  Biso   1.000  H
  H151     1.0000 0.29780  0.67690  0.12130  Biso   1.000  H
  H152     1.0000 0.70220  0.67690  0.37870  Biso   1.000  H
  H153     1.0000 0.20380  0.82270  0.93750  Biso   1.000  H
  H154     1.0000 0.79620  0.82270  0.56250  Biso   1.000  H
  H155     1.0000 0.70380  0.32270  0.93750  Biso   1.000  H
  H156     1.0000 0.29620  0.32270  0.56250  Biso   1.000  H
  H157     1.0000 0.79620  0.17730  0.06250  Biso   1.000  H
  H158     1.0000 0.20380  0.17730  0.43750  Biso   1.000  H
  H159     1.0000 0.29620  0.67730  0.06250  Biso   1.000  H
  H160     1.0000 0.70380  0.67730  0.43750  Biso   1.000  H
  H161     1.0000 0.17470  0.76790  0.89340  Biso   1.000  H
  H162     1.0000 0.82530  0.76790  0.60660  Biso   1.000  H
  H163     1.0000 0.67470  0.26790  0.89340  Biso   1.000  H
  H164     1.0000 0.32530  0.26790  0.60660  Biso   1.000  H
  H165     1.0000 0.82530  0.23210  0.10660  Biso   1.000  H
  H166     1.0000 0.17470  0.23210  0.39340  Biso   1.000  H
  H167     1.0000 0.32530  0.73210  0.10660  Biso   1.000  H
  H168     1.0000 0.67470  0.73210  0.39340  Biso   1.000  H
  C361     1.0000 0.33710  0.70450  0.99170  Biso   1.000  C
  C362     1.0000 0.66290  0.70450  0.50830  Biso   1.000  C
  C363     1.0000 0.83710  0.20450  0.99170  Biso   1.000  C
  C364     1.0000 0.16290  0.20450  0.50830  Biso   1.000  C
  C365     1.0000 0.66290  0.29550  0.00830  Biso   1.000  C
  C366     1.0000 0.33710  0.29550  0.49170  Biso   1.000  C
  C367     1.0000 0.16290  0.79550  0.00830  Biso   1.000  C
  C368     1.0000 0.83710  0.79550  0.49170  Biso   1.000  C
  H169     1.0000 0.34800  0.67410  0.02420  Biso   1.000  H
  H170     1.0000 0.65200  0.67410  0.47580  Biso   1.000  H
  H171     1.0000 0.84800  0.17410  0.02420  Biso   1.000  H
  H172     1.0000 0.15200  0.17410  0.47580  Biso   1.000  H
  H173     1.0000 0.65200  0.32590  0.97580  Biso   1.000  H
  H174     1.0000 0.34800  0.32590  0.52420  Biso   1.000  H
  H175     1.0000 0.15200  0.82590  0.97580  Biso   1.000  H
  H176     1.0000 0.84800  0.82590  0.52420  Biso   1.000  H
  H177     1.0000 0.33970  0.75890  0.00070  Biso   1.000  H
  H178     1.0000 0.66030  0.75890  0.49930  Biso   1.000  H
  H179     1.0000 0.83970  0.25890  0.00070  Biso   1.000  H
  H180     1.0000 0.16030  0.25890  0.49930  Biso   1.000  H
  H181     1.0000 0.66030  0.24110  0.99930  Biso   1.000  H
  H182     1.0000 0.33970  0.24110  0.50070  Biso   1.000  H
  H183     1.0000 0.16030  0.74110  0.99930  Biso   1.000  H
  H184     1.0000 0.83970  0.74110  0.50070  Biso   1.000  H
  H185     1.0000 0.35050  0.69300  0.96900  Biso   1.000  H
  H186     1.0000 0.64950  0.69300  0.53100  Biso   1.000  H
  H187     1.0000 0.85050  0.19300  0.96900  Biso   1.000  H
  H188     1.0000 0.14950  0.19300  0.53100  Biso   1.000  H
  H189     1.0000 0.64950  0.30700  0.03100  Biso   1.000  H
  H190     1.0000 0.35050  0.30700  0.46900  Biso   1.000  H
  H191     1.0000 0.14950  0.80700  0.03100  Biso   1.000  H
  H192     1.0000 0.85050  0.80700  0.46900  Biso   1.000  H
  C369     1.0000 0.26950  0.97380  0.95380  Biso   1.000  C
  C370     1.0000 0.73050  0.97380  0.54620  Biso   1.000  C
  C371     1.0000 0.76950  0.47380  0.95380  Biso   1.000  C
  C372     1.0000 0.23050  0.47380  0.54620  Biso   1.000  C
  C373     1.0000 0.73050  0.02620  0.04620  Biso   1.000  C
  C374     1.0000 0.26950  0.02620  0.45380  Biso   1.000  C
  C375     1.0000 0.23050  0.52620  0.04620  Biso   1.000  C
  C376     1.0000 0.76950  0.52620  0.45380  Biso   1.000  C
  H193     1.0000 0.26890  0.02140  0.97200  Biso   1.000  H
  H194     1.0000 0.73110  0.02140  0.52800  Biso   1.000  H
  H195     1.0000 0.76890  0.52140  0.97200  Biso   1.000  H
  H196     1.0000 0.23110  0.52140  0.52800  Biso   1.000  H
  H197     1.0000 0.73110  0.97860  0.02800  Biso   1.000  H
  H198     1.0000 0.26890  0.97860  0.47200  Biso   1.000  H
  H199     1.0000 0.23110  0.47860  0.02800  Biso   1.000  H
  H200     1.0000 0.76890  0.47860  0.47200  Biso   1.000  H
  H201     1.0000 0.26320  0.93080  0.97150  Biso   1.000  H
  H202     1.0000 0.73680  0.93080  0.52850  Biso   1.000  H
  H203     1.0000 0.76320  0.43080  0.97150  Biso   1.000  H
  H204     1.0000 0.23680  0.43080  0.52850  Biso   1.000  H
  H205     1.0000 0.73680  0.06920  0.02850  Biso   1.000  H
  H206     1.0000 0.26320  0.06920  0.47150  Biso   1.000  H
  H207     1.0000 0.23680  0.56920  0.02850  Biso   1.000  H
  H208     1.0000 0.76320  0.56920  0.47150  Biso   1.000  H
  H209     1.0000 0.25100  0.97650  0.91700  Biso   1.000  H
  H210     1.0000 0.74900  0.97650  0.58300  Biso   1.000  H
  H211     1.0000 0.75100  0.47650  0.91700  Biso   1.000  H
  H212     1.0000 0.24900  0.47650  0.58300  Biso   1.000  H
  H213     1.0000 0.74900  0.02350  0.08300  Biso   1.000  H
  H214     1.0000 0.25100  0.02350  0.41700  Biso   1.000  H
  H215     1.0000 0.24900  0.52350  0.08300  Biso   1.000  H
  H216     1.0000 0.75100  0.52350  0.41700  Biso   1.000  H
  C377     1.0000 0.25670  0.72170  0.80250  Biso   1.000  C
  C378     1.0000 0.74330  0.72170  0.69750  Biso   1.000  C
  C379     1.0000 0.75670  0.22170  0.80250  Biso   1.000  C
  C380     1.0000 0.24330  0.22170  0.69750  Biso   1.000  C
  C381     1.0000 0.74330  0.27830  0.19750  Biso   1.000  C
  C382     1.0000 0.25670  0.27830  0.30250  Biso   1.000  C
  C383     1.0000 0.24330  0.77830  0.19750  Biso   1.000  C
  C384     1.0000 0.75670  0.77830  0.30250  Biso   1.000  C
  H217     1.0000 0.25120  0.66890  0.80320  Biso   1.000  H
  H218     1.0000 0.74880  0.66890  0.69680  Biso   1.000  H
  H219     1.0000 0.75120  0.16890  0.80320  Biso   1.000  H
  H220     1.0000 0.24880  0.16890  0.69680  Biso   1.000  H
  H221     1.0000 0.74880  0.33110  0.19680  Biso   1.000  H
  H222     1.0000 0.25120  0.33110  0.30320  Biso   1.000  H
  H223     1.0000 0.24880  0.83110  0.19680  Biso   1.000  H
  H224     1.0000 0.75120  0.83110  0.30320  Biso   1.000  H
  C385     1.0000 0.36580  0.53620  0.24610  Biso   1.000  C
  C386     1.0000 0.63420  0.53620  0.25390  Biso   1.000  C
  C387     1.0000 0.86580  0.03620  0.24610  Biso   1.000  C
  C388     1.0000 0.13420  0.03620  0.25390  Biso   1.000  C
  C389     1.0000 0.63420  0.46380  0.75390  Biso   1.000  C
  C390     1.0000 0.36580  0.46380  0.74610  Biso   1.000  C
  C391     1.0000 0.13420  0.96380  0.75390  Biso   1.000  C
  C392     1.0000 0.86580  0.96380  0.74610  Biso   1.000  C
  H225     1.0000 0.38560  0.50120  0.26870  Biso   1.000  H
  H226     1.0000 0.61440  0.50120  0.23130  Biso   1.000  H
  H227     1.0000 0.88560  0.00120  0.26870  Biso   1.000  H
  H228     1.0000 0.11440  0.00120  0.23130  Biso   1.000  H
  H229     1.0000 0.61440  0.49880  0.73130  Biso   1.000  H
  H230     1.0000 0.38560  0.49880  0.76870  Biso   1.000  H
  H231     1.0000 0.11440  0.99880  0.73130  Biso   1.000  H
  H232     1.0000 0.88560  0.99880  0.76870  Biso   1.000  H
  H233     1.0000 0.36910  0.58620  0.26320  Biso   1.000  H
  H234     1.0000 0.63090  0.58620  0.23680  Biso   1.000  H
  H235     1.0000 0.86910  0.08620  0.26320  Biso   1.000  H
  H236     1.0000 0.13090  0.08620  0.23680  Biso   1.000  H
  H237     1.0000 0.63090  0.41380  0.73680  Biso   1.000  H
  H238     1.0000 0.36910  0.41380  0.76320  Biso   1.000  H
  H239     1.0000 0.13090  0.91380  0.73680  Biso   1.000  H
  H240     1.0000 0.86910  0.91380  0.76320  Biso   1.000  H
  H241     1.0000 0.36780  0.54160  0.21190  Biso   1.000  H
  H242     1.0000 0.63220  0.54160  0.28810  Biso   1.000  H
  H243     1.0000 0.86780  0.04160  0.21190  Biso   1.000  H
  H244     1.0000 0.13220  0.04160  0.28810  Biso   1.000  H
  H245     1.0000 0.63220  0.45840  0.78810  Biso   1.000  H
  H246     1.0000 0.36780  0.45840  0.71190  Biso   1.000  H
  H247     1.0000 0.13220  0.95840  0.78810  Biso   1.000  H
  H248     1.0000 0.86780  0.95840  0.71190  Biso   1.000  H
  C393     1.0000 0.41810  0.09030  0.18910  Biso   1.000  C
  C394     1.0000 0.58190  0.09030  0.31090  Biso   1.000  C
  C395     1.0000 0.91810  0.59030  0.18910  Biso   1.000  C
  C396     1.0000 0.08190  0.59030  0.31090  Biso   1.000  C
  C397     1.0000 0.58190  0.90970  0.81090  Biso   1.000  C
  C398     1.0000 0.41810  0.90970  0.68910  Biso   1.000  C
  C399     1.0000 0.08190  0.40970  0.81090  Biso   1.000  C
  C400     1.0000 0.91810  0.40970  0.68910  Biso   1.000  C
  C401     1.0000 0.32160  0.17050  0.15770  Biso   1.000  C
  C402     1.0000 0.67840  0.17050  0.34230  Biso   1.000  C
  C403     1.0000 0.82160  0.67050  0.15770  Biso   1.000  C
  C404     1.0000 0.17840  0.67050  0.34230  Biso   1.000  C
  C405     1.0000 0.67840  0.82950  0.84230  Biso   1.000  C
  C406     1.0000 0.32160  0.82950  0.65770  Biso   1.000  C
  C407     1.0000 0.17840  0.32950  0.84230  Biso   1.000  C
  C408     1.0000 0.82160  0.32950  0.65770  Biso   1.000  C
  H249     1.0000 0.31830  0.17800  0.19070  Biso   1.000  H
  H250     1.0000 0.68170  0.17800  0.30930  Biso   1.000  H
  H251     1.0000 0.81830  0.67800  0.19070  Biso   1.000  H
  H252     1.0000 0.18170  0.67800  0.30930  Biso   1.000  H
  H253     1.0000 0.68170  0.82200  0.80930  Biso   1.000  H
  H254     1.0000 0.31830  0.82200  0.69070  Biso   1.000  H
  H255     1.0000 0.18170  0.32200  0.80930  Biso   1.000  H
  H256     1.0000 0.81830  0.32200  0.69070  Biso   1.000  H
  H257     1.0000 0.30960  0.12230  0.14130  Biso   1.000  H
  H258     1.0000 0.69040  0.12230  0.35870  Biso   1.000  H
  H259     1.0000 0.80960  0.62230  0.14130  Biso   1.000  H
  H260     1.0000 0.19040  0.62230  0.35870  Biso   1.000  H
  H261     1.0000 0.69040  0.87770  0.85870  Biso   1.000  H
  H262     1.0000 0.30960  0.87770  0.64130  Biso   1.000  H
  H263     1.0000 0.19040  0.37770  0.85870  Biso   1.000  H
  H264     1.0000 0.80960  0.37770  0.64130  Biso   1.000  H
  H265     1.0000 0.30970  0.21290  0.13350  Biso   1.000  H
  H266     1.0000 0.69030  0.21290  0.36650  Biso   1.000  H
  H267     1.0000 0.80970  0.71290  0.13350  Biso   1.000  H
  H268     1.0000 0.19030  0.71290  0.36650  Biso   1.000  H
  H269     1.0000 0.69030  0.78710  0.86650  Biso   1.000  H
  H270     1.0000 0.30970  0.78710  0.63350  Biso   1.000  H
  H271     1.0000 0.19030  0.28710  0.86650  Biso   1.000  H
  H272     1.0000 0.80970  0.28710  0.63350  Biso   1.000  H
  C409     1.0000 0.40390  0.88170  0.05390  Biso   1.000  C
  C410     1.0000 0.59610  0.88170  0.44610  Biso   1.000  C
  C411     1.0000 0.90390  0.38170  0.05390  Biso   1.000  C
  C412     1.0000 0.09610  0.38170  0.44610  Biso   1.000  C
  C413     1.0000 0.59610  0.11830  0.94610  Biso   1.000  C
  C414     1.0000 0.40390  0.11830  0.55390  Biso   1.000  C
  C415     1.0000 0.09610  0.61830  0.94610  Biso   1.000  C
  C416     1.0000 0.90390  0.61830  0.55390  Biso   1.000  C
  H273     1.0000 0.41730  0.84130  0.04380  Biso   1.000  H
  H274     1.0000 0.58270  0.84130  0.45620  Biso   1.000  H
  H275     1.0000 0.91730  0.34130  0.04380  Biso   1.000  H
  H276     1.0000 0.08270  0.34130  0.45620  Biso   1.000  H
  H277     1.0000 0.58270  0.15870  0.95620  Biso   1.000  H
  H278     1.0000 0.41730  0.15870  0.54380  Biso   1.000  H
  H279     1.0000 0.08270  0.65870  0.95620  Biso   1.000  H
  H280     1.0000 0.91730  0.65870  0.54380  Biso   1.000  H
  H281     1.0000 0.39190  0.86010  0.07610  Biso   1.000  H
  H282     1.0000 0.60810  0.86010  0.42390  Biso   1.000  H
  H283     1.0000 0.89190  0.36010  0.07610  Biso   1.000  H
  H284     1.0000 0.10810  0.36010  0.42390  Biso   1.000  H
  H285     1.0000 0.60810  0.13990  0.92390  Biso   1.000  H
  H286     1.0000 0.39190  0.13990  0.57610  Biso   1.000  H
  H287     1.0000 0.10810  0.63990  0.92390  Biso   1.000  H
  H288     1.0000 0.89190  0.63990  0.57610  Biso   1.000  H
  H289     1.0000 0.42200  0.92140  0.07370  Biso   1.000  H
  H290     1.0000 0.57800  0.92140  0.42630  Biso   1.000  H
  H291     1.0000 0.92200  0.42140  0.07370  Biso   1.000  H
  H292     1.0000 0.07800  0.42140  0.42630  Biso   1.000  H
  H293     1.0000 0.57800  0.07860  0.92630  Biso   1.000  H
  H294     1.0000 0.42200  0.07860  0.57370  Biso   1.000  H
  H295     1.0000 0.07800  0.57860  0.92630  Biso   1.000  H
  H296     1.0000 0.92200  0.57860  0.57370  Biso   1.000  H
  C417     1.0000 0.44540  0.29470  0.18030  Biso   1.000  C
  C418     1.0000 0.55460  0.29470  0.31970  Biso   1.000  C
  C419     1.0000 0.94540  0.79470  0.18030  Biso   1.000  C
  C420     1.0000 0.05460  0.79470  0.31970  Biso   1.000  C
  C421     1.0000 0.55460  0.70530  0.81970  Biso   1.000  C
  C422     1.0000 0.44540  0.70530  0.68030  Biso   1.000  C
  C423     1.0000 0.05460  0.20530  0.81970  Biso   1.000  C
  C424     1.0000 0.94540  0.20530  0.68030  Biso   1.000  C
  H297     1.0000 0.43810  0.31570  0.14460  Biso   1.000  H
  H298     1.0000 0.56190  0.31570  0.35540  Biso   1.000  H
  H299     1.0000 0.93810  0.81570  0.14460  Biso   1.000  H
  H300     1.0000 0.06190  0.81570  0.35540  Biso   1.000  H
  H301     1.0000 0.56190  0.68430  0.85540  Biso   1.000  H
  H302     1.0000 0.43810  0.68430  0.64460  Biso   1.000  H
  H303     1.0000 0.06190  0.18430  0.85540  Biso   1.000  H
  H304     1.0000 0.93810  0.18430  0.64460  Biso   1.000  H
  H305     1.0000 0.47190  0.27790  0.19390  Biso   1.000  H
  H306     1.0000 0.52810  0.27790  0.30610  Biso   1.000  H
  H307     1.0000 0.97190  0.77790  0.19390  Biso   1.000  H
  H308     1.0000 0.02810  0.77790  0.30610  Biso   1.000  H
  H309     1.0000 0.52810  0.72210  0.80610  Biso   1.000  H
  H310     1.0000 0.47190  0.72210  0.69390  Biso   1.000  H
  H311     1.0000 0.02810  0.22210  0.80610  Biso   1.000  H
  H312     1.0000 0.97190  0.22210  0.69390  Biso   1.000  H
  H313     1.0000 0.44250  0.33410  0.20360  Biso   1.000  H
  H314     1.0000 0.55750  0.33410  0.29640  Biso   1.000  H
  H315     1.0000 0.94250  0.83410  0.20360  Biso   1.000  H
  H316     1.0000 0.05750  0.83410  0.29640  Biso   1.000  H
  H317     1.0000 0.55750  0.66590  0.79640  Biso   1.000  H
  H318     1.0000 0.44250  0.66590  0.70360  Biso   1.000  H
  H319     1.0000 0.05750  0.16590  0.79640  Biso   1.000  H
  H320     1.0000 0.94250  0.16590  0.70360  Biso   1.000  H
  C425     1.0000 0.36290  0.99340  0.86930  Biso   1.000  C
  C426     1.0000 0.63710  0.99340  0.63070  Biso   1.000  C
  C427     1.0000 0.86290  0.49340  0.86930  Biso   1.000  C
  C428     1.0000 0.13710  0.49340  0.63070  Biso   1.000  C
  C429     1.0000 0.63710  0.00660  0.13070  Biso   1.000  C
  C430     1.0000 0.36290  0.00660  0.36930  Biso   1.000  C
  C431     1.0000 0.13710  0.50660  0.13070  Biso   1.000  C
  C432     1.0000 0.86290  0.50660  0.36930  Biso   1.000  C
  H321     1.0000 0.38440  0.02910  0.88130  Biso   1.000  H
  H322     1.0000 0.61560  0.02910  0.61870  Biso   1.000  H
  H323     1.0000 0.88440  0.52910  0.88130  Biso   1.000  H
  H324     1.0000 0.11560  0.52910  0.61870  Biso   1.000  H
  H325     1.0000 0.61560  0.97090  0.11870  Biso   1.000  H
  H326     1.0000 0.38440  0.97090  0.38130  Biso   1.000  H
  H327     1.0000 0.11560  0.47090  0.11870  Biso   1.000  H
  H328     1.0000 0.88440  0.47090  0.38130  Biso   1.000  H
  H329     1.0000 0.34070  0.01830  0.84250  Biso   1.000  H
  H330     1.0000 0.65930  0.01830  0.65750  Biso   1.000  H
  H331     1.0000 0.84070  0.51830  0.84250  Biso   1.000  H
  H332     1.0000 0.15930  0.51830  0.65750  Biso   1.000  H
  H333     1.0000 0.65930  0.98170  0.15750  Biso   1.000  H
  H334     1.0000 0.34070  0.98170  0.34250  Biso   1.000  H
  H335     1.0000 0.15930  0.48170  0.15750  Biso   1.000  H
  H336     1.0000 0.84070  0.48170  0.34250  Biso   1.000  H
  H337     1.0000 0.36950  0.94800  0.85390  Biso   1.000  H
  H338     1.0000 0.63050  0.94800  0.64610  Biso   1.000  H
  H339     1.0000 0.86950  0.44800  0.85390  Biso   1.000  H
  H340     1.0000 0.13050  0.44800  0.64610  Biso   1.000  H
  H341     1.0000 0.63050  0.05200  0.14610  Biso   1.000  H
  H342     1.0000 0.36950  0.05200  0.35390  Biso   1.000  H
  H343     1.0000 0.13050  0.55200  0.14610  Biso   1.000  H
  H344     1.0000 0.86950  0.55200  0.35390  Biso   1.000  H
  C433     1.0000 0.25440  0.53330  0.29890  Biso   1.000  C
  C434     1.0000 0.74560  0.53330  0.20110  Biso   1.000  C
  C435     1.0000 0.75440  0.03330  0.29890  Biso   1.000  C
  C436     1.0000 0.24560  0.03330  0.20110  Biso   1.000  C
  C437     1.0000 0.74560  0.46670  0.70110  Biso   1.000  C
  C438     1.0000 0.25440  0.46670  0.79890  Biso   1.000  C
  C439     1.0000 0.24560  0.96670  0.70110  Biso   1.000  C
  C440     1.0000 0.75440  0.96670  0.79890  Biso   1.000  C
  H345     1.0000 0.24770  0.58740  0.29170  Biso   1.000  H
  H346     1.0000 0.75230  0.58740  0.20830  Biso   1.000  H
  H347     1.0000 0.74770  0.08740  0.29170  Biso   1.000  H
  H348     1.0000 0.25230  0.08740  0.20830  Biso   1.000  H
  H349     1.0000 0.75230  0.41260  0.70830  Biso   1.000  H
  H350     1.0000 0.24770  0.41260  0.79170  Biso   1.000  H
  H351     1.0000 0.25230  0.91260  0.70830  Biso   1.000  H
  H352     1.0000 0.74770  0.91260  0.79170  Biso   1.000  H
  H353     1.0000 0.27130  0.52690  0.33620  Biso   1.000  H
  H354     1.0000 0.72870  0.52690  0.16380  Biso   1.000  H
  H355     1.0000 0.77130  0.02690  0.33620  Biso   1.000  H
  H356     1.0000 0.22870  0.02690  0.16380  Biso   1.000  H
  H357     1.0000 0.72870  0.47310  0.66380  Biso   1.000  H
  H358     1.0000 0.27130  0.47310  0.83620  Biso   1.000  H
  H359     1.0000 0.22870  0.97310  0.66380  Biso   1.000  H
  H360     1.0000 0.77130  0.97310  0.83620  Biso   1.000  H
  H361     1.0000 0.23120  0.50330  0.29100  Biso   1.000  H
  H362     1.0000 0.76880  0.50330  0.20900  Biso   1.000  H
  H363     1.0000 0.73120  0.00330  0.29100  Biso   1.000  H
  H364     1.0000 0.26880  0.00330  0.20900  Biso   1.000  H
  H365     1.0000 0.76880  0.49670  0.70900  Biso   1.000  H
  H366     1.0000 0.23120  0.49670  0.79100  Biso   1.000  H
  H367     1.0000 0.26880  0.99670  0.70900  Biso   1.000  H
  H368     1.0000 0.73120  0.99670  0.79100  Biso   1.000  H
  C441     1.0000 0.43850  0.15220  0.18900  Biso   1.000  C
  C442     1.0000 0.56150  0.15220  0.31100  Biso   1.000  C
  C443     1.0000 0.93850  0.65220  0.18900  Biso   1.000  C
  C444     1.0000 0.06150  0.65220  0.31100  Biso   1.000  C
  C445     1.0000 0.56150  0.84780  0.81100  Biso   1.000  C
  C446     1.0000 0.43850  0.84780  0.68900  Biso   1.000  C
  C447     1.0000 0.06150  0.34780  0.81100  Biso   1.000  C
  C448     1.0000 0.93850  0.34780  0.68900  Biso   1.000  C
  H369     1.0000 0.46470  0.14760  0.19600  Biso   1.000  H
  H370     1.0000 0.53530  0.14760  0.30400  Biso   1.000  H
  H371     1.0000 0.96470  0.64760  0.19600  Biso   1.000  H
  H372     1.0000 0.03530  0.64760  0.30400  Biso   1.000  H
  H373     1.0000 0.53530  0.85240  0.80400  Biso   1.000  H
  H374     1.0000 0.46470  0.85240  0.69600  Biso   1.000  H
  H375     1.0000 0.03530  0.35240  0.80400  Biso   1.000  H
  H376     1.0000 0.96470  0.35240  0.69600  Biso   1.000  H
  C449     1.0000 0.25360  0.84680  0.82880  Biso   1.000  C
  C450     1.0000 0.74640  0.84680  0.67120  Biso   1.000  C
  C451     1.0000 0.75360  0.34680  0.82880  Biso   1.000  C
  C452     1.0000 0.24640  0.34680  0.67120  Biso   1.000  C
  C453     1.0000 0.74640  0.15320  0.17120  Biso   1.000  C
  C454     1.0000 0.25360  0.15320  0.32880  Biso   1.000  C
  C455     1.0000 0.24640  0.65320  0.17120  Biso   1.000  C
  C456     1.0000 0.75360  0.65320  0.32880  Biso   1.000  C
  H377     1.0000 0.24450  0.89880  0.81590  Biso   1.000  H
  H378     1.0000 0.75550  0.89880  0.68410  Biso   1.000  H
  H379     1.0000 0.74450  0.39880  0.81590  Biso   1.000  H
  H380     1.0000 0.25550  0.39880  0.68410  Biso   1.000  H
  H381     1.0000 0.75550  0.10120  0.18410  Biso   1.000  H
  H382     1.0000 0.24450  0.10120  0.31590  Biso   1.000  H
  H383     1.0000 0.25550  0.60120  0.18410  Biso   1.000  H
  H384     1.0000 0.74450  0.60120  0.31590  Biso   1.000  H
  H385     1.0000 0.25400  0.83980  0.86450  Biso   1.000  H
  H386     1.0000 0.74600  0.83980  0.63550  Biso   1.000  H
  H387     1.0000 0.75400  0.33980  0.86450  Biso   1.000  H
  H388     1.0000 0.24600  0.33980  0.63550  Biso   1.000  H
  H389     1.0000 0.74600  0.16020  0.13550  Biso   1.000  H
  H390     1.0000 0.25400  0.16020  0.36450  Biso   1.000  H
  H391     1.0000 0.24600  0.66020  0.13550  Biso   1.000  H
  H392     1.0000 0.75400  0.66020  0.36450  Biso   1.000  H
  C457     1.0000 0.38080  0.09880  0.17920  Biso   1.000  C
  C458     1.0000 0.61920  0.09880  0.32080  Biso   1.000  C
  C459     1.0000 0.88080  0.59880  0.17920  Biso   1.000  C
  C460     1.0000 0.11920  0.59880  0.32080  Biso   1.000  C
  C461     1.0000 0.61920  0.90120  0.82080  Biso   1.000  C
  C462     1.0000 0.38080  0.90120  0.67920  Biso   1.000  C
  C463     1.0000 0.11920  0.40120  0.82080  Biso   1.000  C
  C464     1.0000 0.88080  0.40120  0.67920  Biso   1.000  C
  H393     1.0000 0.36670  0.05440  0.17930  Biso   1.000  H
  H394     1.0000 0.63330  0.05440  0.32070  Biso   1.000  H
  H395     1.0000 0.86670  0.55440  0.17930  Biso   1.000  H
  H396     1.0000 0.13330  0.55440  0.32070  Biso   1.000  H
  H397     1.0000 0.63330  0.94560  0.82070  Biso   1.000  H
  H398     1.0000 0.36670  0.94560  0.67930  Biso   1.000  H
  H399     1.0000 0.13330  0.44560  0.82070  Biso   1.000  H
  H400     1.0000 0.86670  0.44560  0.67930  Biso   1.000  H
  C465     1.0000 0.22980  0.78540  0.79030  Biso   1.000  C
  C466     1.0000 0.77020  0.78540  0.70970  Biso   1.000  C
  C467     1.0000 0.72980  0.28540  0.79030  Biso   1.000  C
  C468     1.0000 0.27020  0.28540  0.70970  Biso   1.000  C
  C469     1.0000 0.77020  0.21460  0.20970  Biso   1.000  C
  C470     1.0000 0.22980  0.21460  0.29030  Biso   1.000  C
  C471     1.0000 0.27020  0.71460  0.20970  Biso   1.000  C
  C472     1.0000 0.72980  0.71460  0.29030  Biso   1.000  C
  H401     1.0000 0.20720  0.77170  0.79710  Biso   1.000  H
  H402     1.0000 0.79280  0.77170  0.70290  Biso   1.000  H
  H403     1.0000 0.70720  0.27170  0.79710  Biso   1.000  H
  H404     1.0000 0.29280  0.27170  0.70290  Biso   1.000  H
  H405     1.0000 0.79280  0.22830  0.20290  Biso   1.000  H
  H406     1.0000 0.20720  0.22830  0.29710  Biso   1.000  H
  H407     1.0000 0.29280  0.72830  0.20290  Biso   1.000  H
  H408     1.0000 0.70720  0.72830  0.29710  Biso   1.000  H
  H409     1.0000 0.22160  0.80210  0.75310  Biso   1.000  H
  H410     1.0000 0.77840  0.80210  0.74690  Biso   1.000  H
  H411     1.0000 0.72160  0.30210  0.75310  Biso   1.000  H
  H412     1.0000 0.27840  0.30210  0.74690  Biso   1.000  H
  H413     1.0000 0.77840  0.19790  0.24690  Biso   1.000  H
  H414     1.0000 0.22160  0.19790  0.25310  Biso   1.000  H
  H415     1.0000 0.27840  0.69790  0.24690  Biso   1.000  H
  H416     1.0000 0.72160  0.69790  0.25310  Biso   1.000  H
  C473     1.0000 0.29080  0.83180  0.82820  Biso   1.000  C
  C474     1.0000 0.70920  0.83180  0.67180  Biso   1.000  C
  C475     1.0000 0.79080  0.33180  0.82820  Biso   1.000  C
  C476     1.0000 0.20920  0.33180  0.67180  Biso   1.000  C
  C477     1.0000 0.70920  0.16820  0.17180  Biso   1.000  C
  C478     1.0000 0.29080  0.16820  0.32820  Biso   1.000  C
  C479     1.0000 0.20920  0.66820  0.17180  Biso   1.000  C
  C480     1.0000 0.79080  0.66820  0.32820  Biso   1.000  C
  H417     1.0000 0.29520  0.86640  0.80290  Biso   1.000  H
  H418     1.0000 0.70480  0.86640  0.69710  Biso   1.000  H
  H419     1.0000 0.79520  0.36640  0.80290  Biso   1.000  H
  H420     1.0000 0.20480  0.36640  0.69710  Biso   1.000  H
  H421     1.0000 0.70480  0.13360  0.19710  Biso   1.000  H
  H422     1.0000 0.29520  0.13360  0.30290  Biso   1.000  H
  H423     1.0000 0.20480  0.63360  0.19710  Biso   1.000  H
  H424     1.0000 0.79520  0.63360  0.30290  Biso   1.000  H
  H425     1.0000 0.31100  0.84060  0.86380  Biso   1.000  H
  H426     1.0000 0.68900  0.84060  0.63620  Biso   1.000  H
  H427     1.0000 0.81100  0.34060  0.86380  Biso   1.000  H
  H428     1.0000 0.18900  0.34060  0.63620  Biso   1.000  H
  H429     1.0000 0.68900  0.15940  0.13620  Biso   1.000  H
  H430     1.0000 0.31100  0.15940  0.36380  Biso   1.000  H
  H431     1.0000 0.18900  0.65940  0.13620  Biso   1.000  H
  H432     1.0000 0.81100  0.65940  0.36380  Biso   1.000  H
  C481     1.0000 0.43630  0.01000  0.19970  Biso   1.000  C
  C482     1.0000 0.56370  0.01000  0.30030  Biso   1.000  C
  C483     1.0000 0.93630  0.51000  0.19970  Biso   1.000  C
  C484     1.0000 0.06370  0.51000  0.30030  Biso   1.000  C
  C485     1.0000 0.56370  0.99000  0.80030  Biso   1.000  C
  C486     1.0000 0.43630  0.99000  0.69970  Biso   1.000  C
  C487     1.0000 0.06370  0.49000  0.80030  Biso   1.000  C
  C488     1.0000 0.93630  0.49000  0.69970  Biso   1.000  C
  H433     1.0000 0.42140  0.97560  0.17070  Biso   1.000  H
  H434     1.0000 0.57860  0.97560  0.32930  Biso   1.000  H
  H435     1.0000 0.92140  0.47560  0.17070  Biso   1.000  H
  H436     1.0000 0.07860  0.47560  0.32930  Biso   1.000  H
  H437     1.0000 0.57860  0.02440  0.82930  Biso   1.000  H
  H438     1.0000 0.42140  0.02440  0.67070  Biso   1.000  H
  H439     1.0000 0.07860  0.52440  0.82930  Biso   1.000  H
  H440     1.0000 0.92140  0.52440  0.67070  Biso   1.000  H
  H441     1.0000 0.43660  0.99020  0.23300  Biso   1.000  H
  H442     1.0000 0.56340  0.99020  0.26700  Biso   1.000  H
  H443     1.0000 0.93660  0.49020  0.23300  Biso   1.000  H
  H444     1.0000 0.06340  0.49020  0.26700  Biso   1.000  H
  H445     1.0000 0.56340  0.00980  0.76700  Biso   1.000  H
  H446     1.0000 0.43660  0.00980  0.73300  Biso   1.000  H
  H447     1.0000 0.06340  0.50980  0.76700  Biso   1.000  H
  H448     1.0000 0.93660  0.50980  0.73300  Biso   1.000  H
  H449     1.0000 0.46230  0.01320  0.20190  Biso   1.000  H
  H450     1.0000 0.53770  0.01320  0.29810  Biso   1.000  H
  H451     1.0000 0.96230  0.51320  0.20190  Biso   1.000  H
  H452     1.0000 0.03770  0.51320  0.29810  Biso   1.000  H
  H453     1.0000 0.53770  0.98680  0.79810  Biso   1.000  H
  H454     1.0000 0.46230  0.98680  0.70190  Biso   1.000  H
  H455     1.0000 0.03770  0.48680  0.79810  Biso   1.000  H
  H456     1.0000 0.96230  0.48680  0.70190  Biso   1.000  H
  C489     1.0000 0.38650  0.44060  0.94100  Biso   1.000  C
  C490     1.0000 0.61350  0.44060  0.55900  Biso   1.000  C
  C491     1.0000 0.88650  0.94060  0.94100  Biso   1.000  C
  C492     1.0000 0.11350  0.94060  0.55900  Biso   1.000  C
  C493     1.0000 0.61350  0.55940  0.05900  Biso   1.000  C
  C494     1.0000 0.38650  0.55940  0.44100  Biso   1.000  C
  C495     1.0000 0.11350  0.05940  0.05900  Biso   1.000  C
  C496     1.0000 0.88650  0.05940  0.44100  Biso   1.000  C
  C497     1.0000 0.47130  0.78200  0.91130  Biso   1.000  C
  C498     1.0000 0.52870  0.78200  0.58870  Biso   1.000  C
  C499     1.0000 0.97130  0.28200  0.91130  Biso   1.000  C
  C500     1.0000 0.02870  0.28200  0.58870  Biso   1.000  C
  C501     1.0000 0.52870  0.21800  0.08870  Biso   1.000  C
  C502     1.0000 0.47130  0.21800  0.41130  Biso   1.000  C
  C503     1.0000 0.02870  0.71800  0.08870  Biso   1.000  C
  C504     1.0000 0.97130  0.71800  0.41130  Biso   1.000  C
  C505     1.0000 0.41930  0.47920  0.94840  Biso   1.000  C
  C506     1.0000 0.58070  0.47920  0.55160  Biso   1.000  C
  C507     1.0000 0.91930  0.97920  0.94840  Biso   1.000  C
  C508     1.0000 0.08070  0.97920  0.55160  Biso   1.000  C
  C509     1.0000 0.58070  0.52080  0.05160  Biso   1.000  C
  C510     1.0000 0.41930  0.52080  0.44840  Biso   1.000  C
  C511     1.0000 0.08070  0.02080  0.05160  Biso   1.000  C
  C512     1.0000 0.91930  0.02080  0.44840  Biso   1.000  C
  C513     1.0000 0.45520  0.78150  0.85480  Biso   1.000  C
  C514     1.0000 0.54480  0.78150  0.64520  Biso   1.000  C
  C515     1.0000 0.95520  0.28150  0.85480  Biso   1.000  C
  C516     1.0000 0.04480  0.28150  0.64520  Biso   1.000  C
  C517     1.0000 0.54480  0.21850  0.14520  Biso   1.000  C
  C518     1.0000 0.45520  0.21850  0.35480  Biso   1.000  C
  C519     1.0000 0.04480  0.71850  0.14520  Biso   1.000  C
  C520     1.0000 0.95520  0.71850  0.35480  Biso   1.000  C
  C521     1.0000 0.37500  0.37930  0.90640  Biso   1.000  C
  C522     1.0000 0.62500  0.37930  0.59360  Biso   1.000  C
  C523     1.0000 0.87500  0.87930  0.90640  Biso   1.000  C
  C524     1.0000 0.12500  0.87930  0.59360  Biso   1.000  C
  C525     1.0000 0.62500  0.62070  0.09360  Biso   1.000  C
  C526     1.0000 0.37500  0.62070  0.40640  Biso   1.000  C
  C527     1.0000 0.12500  0.12070  0.09360  Biso   1.000  C
  C528     1.0000 0.87500  0.12070  0.40640  Biso   1.000  C
  C529     1.0000 0.49010  0.72150  0.94030  Biso   1.000  C
  C530     1.0000 0.50990  0.72150  0.55970  Biso   1.000  C
  C531     1.0000 0.99010  0.22150  0.94030  Biso   1.000  C
  C532     1.0000 0.00990  0.22150  0.55970  Biso   1.000  C
  C533     1.0000 0.50990  0.27850  0.05970  Biso   1.000  C
  C534     1.0000 0.49010  0.27850  0.44030  Biso   1.000  C
  C535     1.0000 0.00990  0.77850  0.05970  Biso   1.000  C
  C536     1.0000 0.99010  0.77850  0.44030  Biso   1.000  C
  C537     1.0000 0.44130  0.45620  0.92040  Biso   1.000  C
  C538     1.0000 0.55870  0.45620  0.57960  Biso   1.000  C
  C539     1.0000 0.94130  0.95620  0.92040  Biso   1.000  C
  C540     1.0000 0.05870  0.95620  0.57960  Biso   1.000  C
  C541     1.0000 0.55870  0.54380  0.07960  Biso   1.000  C
  C542     1.0000 0.44130  0.54380  0.42040  Biso   1.000  C
  C543     1.0000 0.05870  0.04380  0.07960  Biso   1.000  C
  C544     1.0000 0.94130  0.04380  0.42040  Biso   1.000  C
  H457     1.0000 0.46370  0.48350  0.92470  Biso   1.000  H
  H458     1.0000 0.53630  0.48350  0.57530  Biso   1.000  H
  H459     1.0000 0.96370  0.98350  0.92470  Biso   1.000  H
  H460     1.0000 0.03630  0.98350  0.57530  Biso   1.000  H
  H461     1.0000 0.53630  0.51650  0.07530  Biso   1.000  H
  H462     1.0000 0.46370  0.51650  0.42470  Biso   1.000  H
  H463     1.0000 0.03630  0.01650  0.07530  Biso   1.000  H
  H464     1.0000 0.96370  0.01650  0.42470  Biso   1.000  H
  C545     1.0000 0.43500  0.84730  0.82320  Biso   1.000  C
  C546     1.0000 0.56500  0.84730  0.67680  Biso   1.000  C
  C547     1.0000 0.93500  0.34730  0.82320  Biso   1.000  C
  C548     1.0000 0.06500  0.34730  0.67680  Biso   1.000  C
  C549     1.0000 0.56500  0.15270  0.17680  Biso   1.000  C
  C550     1.0000 0.43500  0.15270  0.32320  Biso   1.000  C
  C551     1.0000 0.06500  0.65270  0.17680  Biso   1.000  C
  C552     1.0000 0.93500  0.65270  0.32320  Biso   1.000  C
  H465     1.0000 0.41140  0.85550  0.82780  Biso   1.000  H
  H466     1.0000 0.58860  0.85550  0.67220  Biso   1.000  H
  H467     1.0000 0.91140  0.35550  0.82780  Biso   1.000  H
  H468     1.0000 0.08860  0.35550  0.67220  Biso   1.000  H
  H469     1.0000 0.58860  0.14450  0.17220  Biso   1.000  H
  H470     1.0000 0.41140  0.14450  0.32780  Biso   1.000  H
  H471     1.0000 0.08860  0.64450  0.17220  Biso   1.000  H
  H472     1.0000 0.91140  0.64450  0.32780  Biso   1.000  H
  H473     1.0000 0.42920  0.83750  0.78580  Biso   1.000  H
  H474     1.0000 0.57080  0.83750  0.71420  Biso   1.000  H
  H475     1.0000 0.92920  0.33750  0.78580  Biso   1.000  H
  H476     1.0000 0.07080  0.33750  0.71420  Biso   1.000  H
  H477     1.0000 0.57080  0.16250  0.21420  Biso   1.000  H
  H478     1.0000 0.42920  0.16250  0.28580  Biso   1.000  H
  H479     1.0000 0.07080  0.66250  0.21420  Biso   1.000  H
  H480     1.0000 0.92920  0.66250  0.28580  Biso   1.000  H
  H481     1.0000 0.45100  0.89290  0.83470  Biso   1.000  H
  H482     1.0000 0.54900  0.89290  0.66530  Biso   1.000  H
  H483     1.0000 0.95100  0.39290  0.83470  Biso   1.000  H
  H484     1.0000 0.04900  0.39290  0.66530  Biso   1.000  H
  H485     1.0000 0.54900  0.10710  0.16530  Biso   1.000  H
  H486     1.0000 0.45100  0.10710  0.33470  Biso   1.000  H
  H487     1.0000 0.04900  0.60710  0.16530  Biso   1.000  H
  H488     1.0000 0.95100  0.60710  0.33470  Biso   1.000  H
  C553     1.0000 0.43250  0.54760  0.98460  Biso   1.000  C
  C554     1.0000 0.56750  0.54760  0.51540  Biso   1.000  C
  C555     1.0000 0.93250  0.04760  0.98460  Biso   1.000  C
  C556     1.0000 0.06750  0.04760  0.51540  Biso   1.000  C
  C557     1.0000 0.56750  0.45240  0.01540  Biso   1.000  C
  C558     1.0000 0.43250  0.45240  0.48460  Biso   1.000  C
  C559     1.0000 0.06750  0.95240  0.01540  Biso   1.000  C
  C560     1.0000 0.93250  0.95240  0.48460  Biso   1.000  C
  H489     1.0000 0.41540  0.59080  0.96910  Biso   1.000  H
  H490     1.0000 0.58460  0.59080  0.53090  Biso   1.000  H
  H491     1.0000 0.91540  0.09080  0.96910  Biso   1.000  H
  H492     1.0000 0.08460  0.09080  0.53090  Biso   1.000  H
  H493     1.0000 0.58460  0.40920  0.03090  Biso   1.000  H
  H494     1.0000 0.41540  0.40920  0.46910  Biso   1.000  H
  H495     1.0000 0.08460  0.90920  0.03090  Biso   1.000  H
  H496     1.0000 0.91540  0.90920  0.46910  Biso   1.000  H
  H497     1.0000 0.45830  0.56140  0.98920  Biso   1.000  H
  H498     1.0000 0.54170  0.56140  0.51080  Biso   1.000  H
  H499     1.0000 0.95830  0.06140  0.98920  Biso   1.000  H
  H500     1.0000 0.04170  0.06140  0.51080  Biso   1.000  H
  H501     1.0000 0.54170  0.43860  0.01080  Biso   1.000  H
  H502     1.0000 0.45830  0.43860  0.48920  Biso   1.000  H
  H503     1.0000 0.04170  0.93860  0.01080  Biso   1.000  H
  H504     1.0000 0.95830  0.93860  0.48920  Biso   1.000  H
  H505     1.0000 0.43230  0.53500  0.01910  Biso   1.000  H
  H506     1.0000 0.56770  0.53500  0.48090  Biso   1.000  H
  H507     1.0000 0.93230  0.03500  0.01910  Biso   1.000  H
  H508     1.0000 0.06770  0.03500  0.48090  Biso   1.000  H
  H509     1.0000 0.56770  0.46500  0.98090  Biso   1.000  H
  H510     1.0000 0.43230  0.46500  0.51910  Biso   1.000  H
  H511     1.0000 0.06770  0.96500  0.98090  Biso   1.000  H
  H512     1.0000 0.93230  0.96500  0.51910  Biso   1.000  H
  C561     1.0000 0.49310  0.65580  0.91230  Biso   1.000  C
  C562     1.0000 0.50690  0.65580  0.58770  Biso   1.000  C
  C563     1.0000 0.99310  0.15580  0.91230  Biso   1.000  C
  C564     1.0000 0.00690  0.15580  0.58770  Biso   1.000  C
  C565     1.0000 0.50690  0.34420  0.08770  Biso   1.000  C
  C566     1.0000 0.49310  0.34420  0.41230  Biso   1.000  C
  C567     1.0000 0.00690  0.84420  0.08770  Biso   1.000  C
  C568     1.0000 0.99310  0.84420  0.41230  Biso   1.000  C
  H513     1.0000 0.50610  0.61240  0.93180  Biso   1.000  H
  H514     1.0000 0.49390  0.61240  0.56820  Biso   1.000  H
  H515     1.0000 0.00610  0.11240  0.93180  Biso   1.000  H
  H516     1.0000 0.99390  0.11240  0.56820  Biso   1.000  H
  H517     1.0000 0.49390  0.38760  0.06820  Biso   1.000  H
  H518     1.0000 0.50610  0.38760  0.43180  Biso   1.000  H
  H519     1.0000 0.99390  0.88760  0.06820  Biso   1.000  H
  H520     1.0000 0.00610  0.88760  0.43180  Biso   1.000  H
  C569     1.0000 0.33920  0.33560  0.89730  Biso   1.000  C
  C570     1.0000 0.66080  0.33560  0.60270  Biso   1.000  C
  C571     1.0000 0.83920  0.83560  0.89730  Biso   1.000  C
  C572     1.0000 0.16080  0.83560  0.60270  Biso   1.000  C
  C573     1.0000 0.66080  0.66440  0.10270  Biso   1.000  C
  C574     1.0000 0.33920  0.66440  0.39730  Biso   1.000  C
  C575     1.0000 0.16080  0.16440  0.10270  Biso   1.000  C
  C576     1.0000 0.83920  0.16440  0.39730  Biso   1.000  C
  H521     1.0000 0.34170  0.31020  0.93020  Biso   1.000  H
  H522     1.0000 0.65830  0.31020  0.56980  Biso   1.000  H
  H523     1.0000 0.84170  0.81020  0.93020  Biso   1.000  H
  H524     1.0000 0.15830  0.81020  0.56980  Biso   1.000  H
  H525     1.0000 0.65830  0.68980  0.06980  Biso   1.000  H
  H526     1.0000 0.34170  0.68980  0.43020  Biso   1.000  H
  H527     1.0000 0.15830  0.18980  0.06980  Biso   1.000  H
  H528     1.0000 0.84170  0.18980  0.43020  Biso   1.000  H
  H529     1.0000 0.33500  0.29710  0.86970  Biso   1.000  H
  H530     1.0000 0.66500  0.29710  0.63030  Biso   1.000  H
  H531     1.0000 0.83500  0.79710  0.86970  Biso   1.000  H
  H532     1.0000 0.16500  0.79710  0.63030  Biso   1.000  H
  H533     1.0000 0.66500  0.70290  0.13030  Biso   1.000  H
  H534     1.0000 0.33500  0.70290  0.36970  Biso   1.000  H
  H535     1.0000 0.16500  0.20290  0.13030  Biso   1.000  H
  H536     1.0000 0.83500  0.20290  0.36970  Biso   1.000  H
  H537     1.0000 0.31760  0.37090  0.88610  Biso   1.000  H
  H538     1.0000 0.68240  0.37090  0.61390  Biso   1.000  H
  H539     1.0000 0.81760  0.87090  0.88610  Biso   1.000  H
  H540     1.0000 0.18240  0.87090  0.61390  Biso   1.000  H
  H541     1.0000 0.68240  0.62910  0.11390  Biso   1.000  H
  H542     1.0000 0.31760  0.62910  0.38610  Biso   1.000  H
  H543     1.0000 0.18240  0.12910  0.11390  Biso   1.000  H
  H544     1.0000 0.81760  0.12910  0.38610  Biso   1.000  H
  C577     1.0000 0.50600  0.72120  0.99860  Biso   1.000  C
  C578     1.0000 0.49400  0.72120  0.50140  Biso   1.000  C
  C579     1.0000 0.00600  0.22120  0.99860  Biso   1.000  C
  C580     1.0000 0.99400  0.22120  0.50140  Biso   1.000  C
  C581     1.0000 0.49400  0.27880  0.00140  Biso   1.000  C
  C582     1.0000 0.50600  0.27880  0.49860  Biso   1.000  C
  C583     1.0000 0.99400  0.77880  0.00140  Biso   1.000  C
  C584     1.0000 0.00600  0.77880  0.49860  Biso   1.000  C
  H545     1.0000 0.52360  0.76420  0.01210  Biso   1.000  H
  H546     1.0000 0.47640  0.76420  0.48790  Biso   1.000  H
  H547     1.0000 0.02360  0.26420  0.01210  Biso   1.000  H
  H548     1.0000 0.97640  0.26420  0.48790  Biso   1.000  H
  H549     1.0000 0.47640  0.23580  0.98790  Biso   1.000  H
  H550     1.0000 0.52360  0.23580  0.51210  Biso   1.000  H
  H551     1.0000 0.97640  0.73580  0.98790  Biso   1.000  H
  H552     1.0000 0.02360  0.73580  0.51210  Biso   1.000  H
  H553     1.0000 0.51950  0.67320  0.01180  Biso   1.000  H
  H554     1.0000 0.48050  0.67320  0.48820  Biso   1.000  H
  H555     1.0000 0.01950  0.17320  0.01180  Biso   1.000  H
  H556     1.0000 0.98050  0.17320  0.48820  Biso   1.000  H
  H557     1.0000 0.48050  0.32680  0.98820  Biso   1.000  H
  H558     1.0000 0.51950  0.32680  0.51180  Biso   1.000  H
  H559     1.0000 0.98050  0.82680  0.98820  Biso   1.000  H
  H560     1.0000 0.01950  0.82680  0.51180  Biso   1.000  H
  H561     1.0000 0.48540  0.72620  0.01060  Biso   1.000  H
  H562     1.0000 0.51460  0.72620  0.48940  Biso   1.000  H
  H563     1.0000 0.98540  0.22620  0.01060  Biso   1.000  H
  H564     1.0000 0.01460  0.22620  0.48940  Biso   1.000  H
  H565     1.0000 0.51460  0.27380  0.98940  Biso   1.000  H
  H566     1.0000 0.48540  0.27380  0.51060  Biso   1.000  H
  H567     1.0000 0.01460  0.77380  0.98940  Biso   1.000  H
  H568     1.0000 0.98540  0.77380  0.51060  Biso   1.000  H
  C585     1.0000 0.45940  0.71520  0.83060  Biso   1.000  C
  C586     1.0000 0.54060  0.71520  0.66940  Biso   1.000  C
  C587     1.0000 0.95940  0.21520  0.83060  Biso   1.000  C
  C588     1.0000 0.04060  0.21520  0.66940  Biso   1.000  C
  C589     1.0000 0.54060  0.28480  0.16940  Biso   1.000  C
  C590     1.0000 0.45940  0.28480  0.33060  Biso   1.000  C
  C591     1.0000 0.04060  0.78480  0.16940  Biso   1.000  C
  C592     1.0000 0.95940  0.78480  0.33060  Biso   1.000  C
  H569     1.0000 0.44860  0.71350  0.79310  Biso   1.000  H
  H570     1.0000 0.55140  0.71350  0.70690  Biso   1.000  H
  H571     1.0000 0.94860  0.21350  0.79310  Biso   1.000  H
  H572     1.0000 0.05140  0.21350  0.70690  Biso   1.000  H
  H573     1.0000 0.55140  0.28650  0.20690  Biso   1.000  H
  H574     1.0000 0.44860  0.28650  0.29310  Biso   1.000  H
  H575     1.0000 0.05140  0.78650  0.20690  Biso   1.000  H
  H576     1.0000 0.94860  0.78650  0.29310  Biso   1.000  H
  C593     1.0000 0.39770  0.35540  0.87990  Biso   1.000  C
  C594     1.0000 0.60230  0.35540  0.62010  Biso   1.000  C
  C595     1.0000 0.89770  0.85540  0.87990  Biso   1.000  C
  C596     1.0000 0.10230  0.85540  0.62010  Biso   1.000  C
  C597     1.0000 0.60230  0.64460  0.12010  Biso   1.000  C
  C598     1.0000 0.39770  0.64460  0.37990  Biso   1.000  C
  C599     1.0000 0.10230  0.14460  0.12010  Biso   1.000  C
  C600     1.0000 0.89770  0.14460  0.37990  Biso   1.000  C
  H577     1.0000 0.39050  0.31230  0.85710  Biso   1.000  H
  H578     1.0000 0.60950  0.31230  0.64290  Biso   1.000  H
  H579     1.0000 0.89050  0.81230  0.85710  Biso   1.000  H
  H580     1.0000 0.10950  0.81230  0.64290  Biso   1.000  H
  H581     1.0000 0.60950  0.68770  0.14290  Biso   1.000  H
  H582     1.0000 0.39050  0.68770  0.35710  Biso   1.000  H
  H583     1.0000 0.10950  0.18770  0.14290  Biso   1.000  H
  H584     1.0000 0.89050  0.18770  0.35710  Biso   1.000  H
  C601     1.0000 0.43040  0.39480  0.88710  Biso   1.000  C
  C602     1.0000 0.56960  0.39480  0.61290  Biso   1.000  C
  C603     1.0000 0.93040  0.89480  0.88710  Biso   1.000  C
  C604     1.0000 0.06960  0.89480  0.61290  Biso   1.000  C
  C605     1.0000 0.56960  0.60520  0.11290  Biso   1.000  C
  C606     1.0000 0.43040  0.60520  0.38710  Biso   1.000  C
  C607     1.0000 0.06960  0.10520  0.11290  Biso   1.000  C
  C608     1.0000 0.93040  0.10520  0.38710  Biso   1.000  C
  C609     1.0000 0.47790  0.65220  0.85710  Biso   1.000  C
  C610     1.0000 0.52210  0.65220  0.64290  Biso   1.000  C
  C611     1.0000 0.97790  0.15220  0.85710  Biso   1.000  C
  C612     1.0000 0.02210  0.15220  0.64290  Biso   1.000  C
  C613     1.0000 0.52210  0.34780  0.14290  Biso   1.000  C
  C614     1.0000 0.47790  0.34780  0.35710  Biso   1.000  C
  C615     1.0000 0.02210  0.84780  0.14290  Biso   1.000  C
  C616     1.0000 0.97790  0.84780  0.35710  Biso   1.000  C
  C617     1.0000 0.45460  0.36610  0.85760  Biso   1.000  C
  C618     1.0000 0.54540  0.36610  0.64240  Biso   1.000  C
  C619     1.0000 0.95460  0.86610  0.85760  Biso   1.000  C
  C620     1.0000 0.04540  0.86610  0.64240  Biso   1.000  C
  C621     1.0000 0.54540  0.63390  0.14240  Biso   1.000  C
  C622     1.0000 0.45460  0.63390  0.35760  Biso   1.000  C
  C623     1.0000 0.04540  0.13390  0.14240  Biso   1.000  C
  C624     1.0000 0.95460  0.13390  0.35760  Biso   1.000  C
  H585     1.0000 0.44520  0.38900  0.82220  Biso   1.000  H
  H586     1.0000 0.55480  0.38900  0.67780  Biso   1.000  H
  H587     1.0000 0.94520  0.88900  0.82220  Biso   1.000  H
  H588     1.0000 0.05480  0.88900  0.67780  Biso   1.000  H
  H589     1.0000 0.55480  0.61100  0.17780  Biso   1.000  H
  H590     1.0000 0.44520  0.61100  0.32220  Biso   1.000  H
  H591     1.0000 0.05480  0.11100  0.17780  Biso   1.000  H
  H592     1.0000 0.94520  0.11100  0.32220  Biso   1.000  H
  H593     1.0000 0.45280  0.31040  0.85440  Biso   1.000  H
  H594     1.0000 0.54720  0.31040  0.64560  Biso   1.000  H
  H595     1.0000 0.95280  0.81040  0.85440  Biso   1.000  H
  H596     1.0000 0.04720  0.81040  0.64560  Biso   1.000  H
  H597     1.0000 0.54720  0.68960  0.14560  Biso   1.000  H
  H598     1.0000 0.45280  0.68960  0.35440  Biso   1.000  H
  H599     1.0000 0.04720  0.18960  0.14560  Biso   1.000  H
  H600     1.0000 0.95280  0.18960  0.35440  Biso   1.000  H
  H601     1.0000 0.48110  0.38090  0.87740  Biso   1.000  H
  H602     1.0000 0.51890  0.38090  0.62260  Biso   1.000  H
  H603     1.0000 0.98110  0.88090  0.87740  Biso   1.000  H
  H604     1.0000 0.01890  0.88090  0.62260  Biso   1.000  H
  H605     1.0000 0.51890  0.61910  0.12260  Biso   1.000  H
  H606     1.0000 0.48110  0.61910  0.37740  Biso   1.000  H
  H607     1.0000 0.01890  0.11910  0.12260  Biso   1.000  H
  H608     1.0000 0.98110  0.11910  0.37740  Biso   1.000  H
  C625     1.0000 0.48090  0.57830  0.83030  Biso   1.000  C
  C626     1.0000 0.51910  0.57830  0.66970  Biso   1.000  C
  C627     1.0000 0.98090  0.07830  0.83030  Biso   1.000  C
  C628     1.0000 0.01910  0.07830  0.66970  Biso   1.000  C
  C629     1.0000 0.51910  0.42170  0.16970  Biso   1.000  C
  C630     1.0000 0.48090  0.42170  0.33030  Biso   1.000  C
  C631     1.0000 0.01910  0.92170  0.16970  Biso   1.000  C
  C632     1.0000 0.98090  0.92170  0.33030  Biso   1.000  C
  H609     1.0000 0.50150  0.54700  0.85520  Biso   1.000  H
  H610     1.0000 0.49850  0.54700  0.64480  Biso   1.000  H
  H611     1.0000 0.00150  0.04700  0.85520  Biso   1.000  H
  H612     1.0000 0.99850  0.04700  0.64480  Biso   1.000  H
  H613     1.0000 0.49850  0.45300  0.14480  Biso   1.000  H
  H614     1.0000 0.50150  0.45300  0.35520  Biso   1.000  H
  H615     1.0000 0.99850  0.95300  0.14480  Biso   1.000  H
  H616     1.0000 0.00150  0.95300  0.35520  Biso   1.000  H
  H617     1.0000 0.48630  0.58990  0.79930  Biso   1.000  H
  H618     1.0000 0.51370  0.58990  0.70070  Biso   1.000  H
  H619     1.0000 0.98630  0.08990  0.79930  Biso   1.000  H
  H620     1.0000 0.01370  0.08990  0.70070  Biso   1.000  H
  H621     1.0000 0.51370  0.41010  0.20070  Biso   1.000  H
  H622     1.0000 0.48630  0.41010  0.29930  Biso   1.000  H
  H623     1.0000 0.01370  0.91010  0.20070  Biso   1.000  H
  H624     1.0000 0.98630  0.91010  0.29930  Biso   1.000  H
  H625     1.0000 0.45690  0.55020  0.81920  Biso   1.000  H
  H626     1.0000 0.54310  0.55020  0.68080  Biso   1.000  H
  H627     1.0000 0.95690  0.05020  0.81920  Biso   1.000  H
  H628     1.0000 0.04310  0.05020  0.68080  Biso   1.000  H
  H629     1.0000 0.54310  0.44980  0.18080  Biso   1.000  H
  H630     1.0000 0.45690  0.44980  0.31920  Biso   1.000  H
  H631     1.0000 0.04310  0.94980  0.18080  Biso   1.000  H
  H632     1.0000 0.95690  0.94980  0.31920  Biso   1.000  H
  P1       1.0000 0.14110  0.64250  0.74570  Biso   1.000  P
  P2       1.0000 0.85890  0.64250  0.75430  Biso   1.000  P
  P3       1.0000 0.64110  0.14250  0.74570  Biso   1.000  P
  P4       1.0000 0.35890  0.14250  0.75430  Biso   1.000  P
  P5       1.0000 0.85890  0.35750  0.25430  Biso   1.000  P
  P6       1.0000 0.14110  0.35750  0.24570  Biso   1.000  P
  P7       1.0000 0.35890  0.85750  0.25430  Biso   1.000  P
  P8       1.0000 0.64110  0.85750  0.24570  Biso   1.000  P
  F1       1.0000 0.11130  0.56680  0.71380  Biso   1.000  F
  F2       1.0000 0.88870  0.56680  0.78620  Biso   1.000  F
  F3       1.0000 0.61130  0.06680  0.71380  Biso   1.000  F
  F4       1.0000 0.38870  0.06680  0.78620  Biso   1.000  F
  F5       1.0000 0.88870  0.43320  0.28620  Biso   1.000  F
  F6       1.0000 0.11130  0.43320  0.21380  Biso   1.000  F
  F7       1.0000 0.38870  0.93320  0.28620  Biso   1.000  F
  F8       1.0000 0.61130  0.93320  0.21380  Biso   1.000  F
  F9       1.0000 0.18020  0.60850  0.75670  Biso   1.000  F
  F10      1.0000 0.81980  0.60850  0.74330  Biso   1.000  F
  F11      1.0000 0.68020  0.10850  0.75670  Biso   1.000  F
  F12      1.0000 0.31980  0.10850  0.74330  Biso   1.000  F
  F13      1.0000 0.81980  0.39150  0.24330  Biso   1.000  F
  F14      1.0000 0.18020  0.39150  0.25670  Biso   1.000  F
  F15      1.0000 0.31980  0.89150  0.24330  Biso   1.000  F
  F16      1.0000 0.68020  0.89150  0.25670  Biso   1.000  F
  F17      1.0000 0.15200  0.71910  0.78570  Biso   1.000  F
  F18      1.0000 0.84800  0.71910  0.71430  Biso   1.000  F
  F19      1.0000 0.65200  0.21910  0.78570  Biso   1.000  F
  F20      1.0000 0.34800  0.21910  0.71430  Biso   1.000  F
  F21      1.0000 0.84800  0.28090  0.21430  Biso   1.000  F
  F22      1.0000 0.15200  0.28090  0.28570  Biso   1.000  F
  F23      1.0000 0.34800  0.78090  0.21430  Biso   1.000  F
  F24      1.0000 0.65200  0.78090  0.28570  Biso   1.000  F
  F25      1.0000 0.13170  0.68460  0.69210  Biso   1.000  F
  F26      1.0000 0.86830  0.68460  0.80790  Biso   1.000  F
  F27      1.0000 0.63170  0.18460  0.69210  Biso   1.000  F
  F28      1.0000 0.36830  0.18460  0.80790  Biso   1.000  F
  F29      1.0000 0.86830  0.31540  0.30790  Biso   1.000  F
  F30      1.0000 0.13170  0.31540  0.19210  Biso   1.000  F
  F31      1.0000 0.36830  0.81540  0.30790  Biso   1.000  F
  F32      1.0000 0.63170  0.81540  0.19210  Biso   1.000  F
  F33      1.0000 0.14020  0.59250  0.80310  Biso   1.000  F
  F34      1.0000 0.85980  0.59250  0.69690  Biso   1.000  F
  F35      1.0000 0.64020  0.09250  0.80310  Biso   1.000  F
  F36      1.0000 0.35980  0.09250  0.69690  Biso   1.000  F
  F37      1.0000 0.85980  0.40750  0.19690  Biso   1.000  F
  F38      1.0000 0.14020  0.40750  0.30310  Biso   1.000  F
  F39      1.0000 0.35980  0.90750  0.19690  Biso   1.000  F
  F40      1.0000 0.64020  0.90750  0.30310  Biso   1.000  F
  F41      1.0000 0.09390  0.67720  0.74150  Biso   1.000  F
  F42      1.0000 0.90610  0.67720  0.75850  Biso   1.000  F
  F43      1.0000 0.59390  0.17720  0.74150  Biso   1.000  F
  F44      1.0000 0.40610  0.17720  0.75850  Biso   1.000  F
  F45      1.0000 0.90610  0.32280  0.25850  Biso   1.000  F
  F46      1.0000 0.09390  0.32280  0.24150  Biso   1.000  F
  F47      1.0000 0.40610  0.82280  0.25850  Biso   1.000  F
  F48      1.0000 0.59390  0.82280  0.24150  Biso   1.000  F
  F49      1.0000 0.16220  0.65420  0.70270  Biso   1.000  F
  F50      1.0000 0.83780  0.65420  0.79730  Biso   1.000  F
  F51      1.0000 0.66220  0.15420  0.70270  Biso   1.000  F
  F52      1.0000 0.33780  0.15420  0.79730  Biso   1.000  F
  F53      1.0000 0.83780  0.34580  0.29730  Biso   1.000  F
  F54      1.0000 0.16220  0.34580  0.20270  Biso   1.000  F
  F55      1.0000 0.33780  0.84580  0.29730  Biso   1.000  F
  F56      1.0000 0.66220  0.84580  0.20270  Biso   1.000  F
  F57      1.0000 0.14370  0.74710  0.74890  Biso   1.000  F
  F58      1.0000 0.85630  0.74710  0.75110  Biso   1.000  F
  F59      1.0000 0.64370  0.24710  0.74890  Biso   1.000  F
  F60      1.0000 0.35630  0.24710  0.75110  Biso   1.000  F
  F61      1.0000 0.85630  0.25290  0.25110  Biso   1.000  F
  F62      1.0000 0.14370  0.25290  0.24890  Biso   1.000  F
  F63      1.0000 0.35630  0.75290  0.25110  Biso   1.000  F
  F64      1.0000 0.64370  0.75290  0.24890  Biso   1.000  F
  F65      1.0000 0.09940  0.67230  0.69540  Biso   1.000  F
  F66      1.0000 0.90060  0.67230  0.80460  Biso   1.000  F
  F67      1.0000 0.59940  0.17230  0.69540  Biso   1.000  F
  F68      1.0000 0.40060  0.17230  0.80460  Biso   1.000  F
  F69      1.0000 0.90060  0.32770  0.30460  Biso   1.000  F
  F70      1.0000 0.09940  0.32770  0.19540  Biso   1.000  F
  F71      1.0000 0.40060  0.82770  0.30460  Biso   1.000  F
  F72      1.0000 0.59940  0.82770  0.19540  Biso   1.000  F
  F73      1.0000 0.12660  0.65270  0.79290  Biso   1.000  F
  F74      1.0000 0.87340  0.65270  0.70710  Biso   1.000  F
  F75      1.0000 0.62660  0.15270  0.79290  Biso   1.000  F
  F76      1.0000 0.37340  0.15270  0.70710  Biso   1.000  F
  F77      1.0000 0.87340  0.34730  0.20710  Biso   1.000  F
  F78      1.0000 0.12660  0.34730  0.29290  Biso   1.000  F
  F79      1.0000 0.37340  0.84730  0.20710  Biso   1.000  F
  F80      1.0000 0.62660  0.84730  0.29290  Biso   1.000  F
  F81      1.0000 0.18130  0.59880  0.78480  Biso   1.000  F
  F82      1.0000 0.81870  0.59880  0.71520  Biso   1.000  F
  F83      1.0000 0.68130  0.09880  0.78480  Biso   1.000  F
  F84      1.0000 0.31870  0.09880  0.71520  Biso   1.000  F
  F85      1.0000 0.81870  0.40120  0.21520  Biso   1.000  F
  F86      1.0000 0.18130  0.40120  0.28480  Biso   1.000  F
  F87      1.0000 0.31870  0.90120  0.21520  Biso   1.000  F
  F88      1.0000 0.68130  0.90120  0.28480  Biso   1.000  F
  F89      1.0000 0.12360  0.55720  0.72900  Biso   1.000  F
  F90      1.0000 0.87640  0.55720  0.77100  Biso   1.000  F
  F91      1.0000 0.62360  0.05720  0.72900  Biso   1.000  F
  F92      1.0000 0.37640  0.05720  0.77100  Biso   1.000  F
  F93      1.0000 0.87640  0.44280  0.27100  Biso   1.000  F
  F94      1.0000 0.12360  0.44280  0.22900  Biso   1.000  F
  F95      1.0000 0.37640  0.94280  0.27100  Biso   1.000  F
  F96      1.0000 0.62360  0.94280  0.22900  Biso   1.000  F
