data_image0
_cell_length_a       13.56
_cell_length_b       25.683
_cell_length_c       26.59
_cell_angle_alpha    99.185
_cell_angle_beta     104.314
_cell_angle_gamma    104.895

_symmetry_space_group_name_H-M    "P 1"
_symmetry_int_tables_number       1

loop_
  _symmetry_equiv_pos_as_xyz
  'x, y, z'

loop_
  _atom_site_label
  _atom_site_occupancy
  _atom_site_fract_x
  _atom_site_fract_y
  _atom_site_fract_z
  _atom_site_thermal_displace_type
  _atom_site_B_iso_or_equiv
  _atom_site_type_symbol
  Ti1      1.0000 0.47669  0.37630  0.44799  Biso   1.000  Ti
  Ti2      1.0000 0.52331  0.62370  0.55201  Biso   1.000  Ti
  Ti3      1.0000 0.33455  0.42330  0.50717  Biso   1.000  Ti
  Ti4      1.0000 0.66545  0.57670  0.49283  Biso   1.000  Ti
  Ti5      1.0000 0.63278  0.46473  0.54864  Biso   1.000  Ti
  Ti6      1.0000 0.36722  0.53527  0.45136  Biso   1.000  Ti
  Ti7      1.0000 0.31037  0.04119  0.94473  Biso   1.000  Ti
  Ti8      1.0000 0.68963  0.95881  0.05527  Biso   1.000  Ti
  Ti9      1.0000 0.51281  0.02710  0.91846  Biso   1.000  Ti
  Ti10     1.0000 0.48719  0.97290  0.08154  Biso   1.000  Ti
  Ti11     1.0000 0.50046  0.09810  0.05012  Biso   1.000  Ti
  Ti12     1.0000 0.49954  0.90190  0.94988  Biso   1.000  Ti
  Ti13     1.0000 0.62849  0.07706  0.56965  Biso   1.000  Ti
  Ti14     1.0000 0.37151  0.92294  0.43035  Biso   1.000  Ti
  Ti15     1.0000 0.70680  0.05662  0.47041  Biso   1.000  Ti
  Ti16     1.0000 0.29320  0.94338  0.52959  Biso   1.000  Ti
  Ti17     1.0000 0.63162  0.94058  0.49578  Biso   1.000  Ti
  Ti18     1.0000 0.36838  0.05942  0.50422  Biso   1.000  Ti
  Ti19     1.0000 0.93299  0.53095  0.88917  Biso   1.000  Ti
  Ti20     1.0000 0.06701  0.46905  0.11083  Biso   1.000  Ti
  Ti21     1.0000 0.14787  0.53265  0.96628  Biso   1.000  Ti
  Ti22     1.0000 0.85213  0.46735  0.03372  Biso   1.000  Ti
  Ti23     1.0000 0.89258  0.41444  0.91636  Biso   1.000  Ti
  Ti24     1.0000 0.10742  0.58556  0.08364  Biso   1.000  Ti
  Cu1      1.0000 0.35319  0.27126  0.71662  Biso   1.000  Cu
  Cu2      1.0000 0.64681  0.72874  0.28338  Biso   1.000  Cu
  Cu3      1.0000 0.30996  0.26069  0.80747  Biso   1.000  Cu
  Cu4      1.0000 0.69004  0.73931  0.19253  Biso   1.000  Cu
  Cu5      1.0000 0.17487  0.19505  0.70784  Biso   1.000  Cu
  Cu6      1.0000 0.82513  0.80495  0.29216  Biso   1.000  Cu
  Cu7      1.0000 0.16511  0.29240  0.74150  Biso   1.000  Cu
  Cu8      1.0000 0.83489  0.70760  0.25850  Biso   1.000  Cu
  Br1      1.0000 0.34927  0.18118  0.74602  Biso   1.000  Br
  Br2      1.0000 0.65073  0.81882  0.25398  Biso   1.000  Br
  Br3      1.0000 0.14613  0.25434  0.64711  Biso   1.000  Br
  Br4      1.0000 0.85387  0.74566  0.35289  Biso   1.000  Br
  Br5      1.0000 0.38379  0.35092  0.78571  Biso   1.000  Br
  Br6      1.0000 0.61621  0.64908  0.21429  Biso   1.000  Br
  Br7      1.0000 0.11777  0.23166  0.79887  Biso   1.000  Br
  Br8      1.0000 0.88223  0.76834  0.20113  Biso   1.000  Br
  P1       1.0000 0.49618  0.51856  0.61188  Biso   1.000  P
  P2       1.0000 0.50382  0.48144  0.38812  Biso   1.000  P
  P3       1.0000 0.71419  0.08187  0.02528  Biso   1.000  P
  P4       1.0000 0.28581  0.91813  0.97472  Biso   1.000  P
  P5       1.0000 0.11313  0.41524  0.99919  Biso   1.000  P
  P6       1.0000 0.88687  0.58476  0.00081  Biso   1.000  P
  P7       1.0000 0.54329  0.95893  0.59826  Biso   1.000  P
  P8       1.0000 0.45671  0.04107  0.40174  Biso   1.000  P
  N1       1.0000 0.42980  0.27233  0.66118  Biso   1.000  N
  N2       1.0000 0.57020  0.72767  0.33882  Biso   1.000  N
  N3       1.0000 0.41410  0.26156  0.87680  Biso   1.000  N
  N4       1.0000 0.58590  0.73844  0.12320  Biso   1.000  N
  N5       1.0000 0.06870  0.11829  0.68241  Biso   1.000  N
  N6       1.0000 0.93130  0.88171  0.31759  Biso   1.000  N
  N7       1.0000 0.12360  0.36187  0.74702  Biso   1.000  N
  N8       1.0000 0.87640  0.63813  0.25298  Biso   1.000  N
  C1       1.0000 0.41520  0.30283  0.62563  Biso   1.000  C
  C2       1.0000 0.58480  0.69717  0.37437  Biso   1.000  C
  H1       1.0000 0.37580  0.32800  0.63010  Biso   1.000  H
  H2       1.0000 0.62420  0.67200  0.36990  Biso   1.000  H
  C3       1.0000 0.45510  0.29955  0.58204  Biso   1.000  C
  C4       1.0000 0.54490  0.70045  0.41796  Biso   1.000  C
  C5       1.0000 0.50990  0.26167  0.57482  Biso   1.000  C
  C6       1.0000 0.49010  0.73833  0.42518  Biso   1.000  C
  H3       1.0000 0.53750  0.25830  0.54530  Biso   1.000  H
  H4       1.0000 0.46250  0.74170  0.45470  Biso   1.000  H
  C7       1.0000 0.52440  0.22871  0.61094  Biso   1.000  C
  C8       1.0000 0.47560  0.77129  0.38906  Biso   1.000  C
  H5       1.0000 0.56130  0.20230  0.60660  Biso   1.000  H
  H6       1.0000 0.43870  0.79770  0.39340  Biso   1.000  H
  C9       1.0000 0.48360  0.23562  0.65329  Biso   1.000  C
  C10      1.0000 0.51640  0.76438  0.34671  Biso   1.000  C
  H7       1.0000 0.49380  0.21340  0.67830  Biso   1.000  H
  H8       1.0000 0.50620  0.78660  0.32170  Biso   1.000  H
  C11      1.0000 0.43150  0.33337  0.54264  Biso   1.000  C
  C12      1.0000 0.56850  0.66663  0.45736  Biso   1.000  C
  C13      1.0000 0.48700  0.52825  0.67870  Biso   1.000  C
  C14      1.0000 0.51300  0.47175  0.32130  Biso   1.000  C
  C15      1.0000 0.50320  0.57999  0.70812  Biso   1.000  C
  C16      1.0000 0.49680  0.42001  0.29188  Biso   1.000  C
  H9       1.0000 0.52200  0.61140  0.69370  Biso   1.000  H
  H10      1.0000 0.47800  0.38860  0.30630  Biso   1.000  H
  C17      1.0000 0.49210  0.58690  0.75944  Biso   1.000  C
  C18      1.0000 0.50790  0.41310  0.24056  Biso   1.000  C
  H11      1.0000 0.50190  0.62290  0.77950  Biso   1.000  H
  H12      1.0000 0.49810  0.37710  0.22050  Biso   1.000  H
  C19      1.0000 0.46750  0.54260  0.78061  Biso   1.000  C
  C20      1.0000 0.53250  0.45740  0.21939  Biso   1.000  C
  H13      1.0000 0.46280  0.54780  0.81600  Biso   1.000  H
  H14      1.0000 0.53720  0.45220  0.18400  Biso   1.000  H
  C21      1.0000 0.44970  0.49187  0.75209  Biso   1.000  C
  C22      1.0000 0.55030  0.50813  0.24791  Biso   1.000  C
  H15      1.0000 0.42920  0.46070  0.76660  Biso   1.000  H
  H16      1.0000 0.57080  0.53930  0.23340  Biso   1.000  H
  C23      1.0000 0.46090  0.48434  0.70133  Biso   1.000  C
  C24      1.0000 0.53910  0.51566  0.29867  Biso   1.000  C
  H17      1.0000 0.45020  0.44800  0.68180  Biso   1.000  H
  H18      1.0000 0.54980  0.55200  0.31820  Biso   1.000  H
  C25      1.0000 0.14350  0.36960  0.54410  Biso   1.000  C
  C26      1.0000 0.85650  0.63040  0.45590  Biso   1.000  C
  H19      1.0000 0.19100  0.35330  0.56750  Biso   1.000  H
  H20      1.0000 0.80900  0.64670  0.43250  Biso   1.000  H
  C27      1.0000 0.11910  0.40810  0.57840  Biso   1.000  C
  C28      1.0000 0.88090  0.59190  0.42160  Biso   1.000  C
  H21      1.0000 0.07890  0.38900  0.59960  Biso   1.000  H
  H22      1.0000 0.92110  0.61100  0.40040  Biso   1.000  H
  H23      1.0000 0.07570  0.42690  0.55730  Biso   1.000  H
  H24      1.0000 0.92430  0.57310  0.44270  Biso   1.000  H
  H25      1.0000 0.18560  0.43560  0.60230  Biso   1.000  H
  H26      1.0000 0.81440  0.56440  0.39770  Biso   1.000  H
  C29      1.0000 0.05480  0.32490  0.51130  Biso   1.000  C
  C30      1.0000 0.94520  0.67510  0.48870  Biso   1.000  C
  H27      1.0000 0.01550  0.30700  0.53350  Biso   1.000  H
  H28      1.0000 0.98450  0.69300  0.46650  Biso   1.000  H
  H29      1.0000 0.07940  0.29800  0.49140  Biso   1.000  H
  H30      1.0000 0.92060  0.70200  0.50860  Biso   1.000  H
  H31      1.0000 0.00750  0.33860  0.48610  Biso   1.000  H
  H32      1.0000 0.99250  0.66140  0.51390  Biso   1.000  H
  C31      1.0000 0.22850  0.33824  0.39896  Biso   1.000  C
  C32      1.0000 0.77150  0.66176  0.60104  Biso   1.000  C
  C33      1.0000 0.18670  0.28170  0.40380  Biso   1.000  C
  C34      1.0000 0.81330  0.71830  0.59620  Biso   1.000  C
  H33      1.0000 0.12080  0.26210  0.37440  Biso   1.000  H
  H34      1.0000 0.87920  0.73790  0.62560  Biso   1.000  H
  H35      1.0000 0.17120  0.28250  0.43800  Biso   1.000  H
  H36      1.0000 0.82880  0.71750  0.56200  Biso   1.000  H
  H37      1.0000 0.23990  0.26240  0.40230  Biso   1.000  H
  H38      1.0000 0.76010  0.73760  0.59770  Biso   1.000  H
  C35      1.0000 0.21040  0.35750  0.35690  Biso   1.000  C
  C36      1.0000 0.78960  0.64250  0.64310  Biso   1.000  C
  H39      1.0000 0.24910  0.39720  0.36610  Biso   1.000  H
  H40      1.0000 0.75090  0.60280  0.63390  Biso   1.000  H
  H41      1.0000 0.13340  0.35160  0.34260  Biso   1.000  H
  H42      1.0000 0.86660  0.64840  0.65740  Biso   1.000  H
  H43      1.0000 0.23480  0.33820  0.32980  Biso   1.000  H
  H44      1.0000 0.76520  0.66180  0.67020  Biso   1.000  H
  C37      1.0000 0.45840  0.26650  0.36880  Biso   1.000  C
  C38      1.0000 0.54160  0.73350  0.63120  Biso   1.000  C
  C39      1.0000 0.46860  0.22490  0.39060  Biso   1.000  C
  C40      1.0000 0.53140  0.77510  0.60940  Biso   1.000  C
  H45      1.0000 0.46750  0.23370  0.42770  Biso   1.000  H
  H46      1.0000 0.53250  0.76630  0.57230  Biso   1.000  H
  H47      1.0000 0.53670  0.21860  0.39000  Biso   1.000  H
  H48      1.0000 0.46330  0.78140  0.61000  Biso   1.000  H
  H49      1.0000 0.40930  0.19130  0.37040  Biso   1.000  H
  H50      1.0000 0.59070  0.80870  0.62960  Biso   1.000  H
  C41      1.0000 0.45470  0.26650  0.31710  Biso   1.000  C
  C42      1.0000 0.54530  0.73350  0.68290  Biso   1.000  C
  H51      1.0000 0.44630  0.22910  0.29760  Biso   1.000  H
  H52      1.0000 0.55370  0.77090  0.70240  Biso   1.000  H
  H53      1.0000 0.52130  0.29230  0.31620  Biso   1.000  H
  H54      1.0000 0.47870  0.70770  0.68380  Biso   1.000  H
  H55      1.0000 0.39390  0.27830  0.30010  Biso   1.000  H
  H56      1.0000 0.60610  0.72170  0.69990  Biso   1.000  H
  C43      1.0000 0.71960  0.39864  0.46826  Biso   1.000  C
  C44      1.0000 0.28040  0.60136  0.53174  Biso   1.000  C
  C45      1.0000 0.74140  0.34920  0.48480  Biso   1.000  C
  C46      1.0000 0.25860  0.65080  0.51520  Biso   1.000  C
  H57      1.0000 0.80260  0.34320  0.47410  Biso   1.000  H
  H58      1.0000 0.19740  0.65680  0.52590  Biso   1.000  H
  H59      1.0000 0.67820  0.31660  0.46750  Biso   1.000  H
  H60      1.0000 0.32180  0.68340  0.53250  Biso   1.000  H
  H61      1.0000 0.75780  0.35520  0.52370  Biso   1.000  H
  H62      1.0000 0.24220  0.64480  0.47630  Biso   1.000  H
  C47      1.0000 0.78180  0.43780  0.45530  Biso   1.000  C
  C48      1.0000 0.21820  0.56220  0.54470  Biso   1.000  C
  H63      1.0000 0.74470  0.46460  0.44590  Biso   1.000  H
  H64      1.0000 0.25530  0.53540  0.55410  Biso   1.000  H
  H65      1.0000 0.80140  0.42200  0.42450  Biso   1.000  H
  H66      1.0000 0.19860  0.57800  0.57550  Biso   1.000  H
  H67      1.0000 0.84660  0.45650  0.48550  Biso   1.000  H
  H68      1.0000 0.15340  0.54350  0.51450  Biso   1.000  H
  C49      1.0000 0.78114  0.43850  0.63944  Biso   1.000  C
  C50      1.0000 0.21886  0.56150  0.36056  Biso   1.000  C
  H69      1.0000 0.75150  0.45980  0.66360  Biso   1.000  H
  H70      1.0000 0.24850  0.54020  0.33640  Biso   1.000  H
  C51      1.0000 0.76660  0.38970  0.65440  Biso   1.000  C
  C52      1.0000 0.23340  0.61030  0.34560  Biso   1.000  C
  H71      1.0000 0.69310  0.37590  0.65580  Biso   1.000  H
  H72      1.0000 0.30690  0.62410  0.34420  Biso   1.000  H
  H73      1.0000 0.81690  0.39530  0.68980  Biso   1.000  H
  H74      1.0000 0.18310  0.60470  0.31020  Biso   1.000  H
  H75      1.0000 0.77930  0.36250  0.62840  Biso   1.000  H
  H76      1.0000 0.22070  0.63750  0.37160  Biso   1.000  H
  C53      1.0000 0.88998  0.48038  0.64631  Biso   1.000  C
  C54      1.0000 0.11002  0.51962  0.35369  Biso   1.000  C
  H77      1.0000 0.94190  0.48030  0.67930  Biso   1.000  H
  H78      1.0000 0.05810  0.51970  0.32070  Biso   1.000  H
  H79      1.0000 0.88250  0.51750  0.64830  Biso   1.000  H
  H80      1.0000 0.11750  0.48250  0.35170  Biso   1.000  H
  H81      1.0000 0.91500  0.47000  0.61580  Biso   1.000  H
  H82      1.0000 0.08500  0.53000  0.38420  Biso   1.000  H
  C55      1.0000 0.50260  0.30400  0.90290  Biso   1.000  C
  C56      1.0000 0.49740  0.69600  0.09710  Biso   1.000  C
  H83      1.0000 0.51330  0.33680  0.89010  Biso   1.000  H
  H84      1.0000 0.48670  0.66320  0.10990  Biso   1.000  H
  C57      1.0000 0.57810  0.30293  0.94656  Biso   1.000  C
  C58      1.0000 0.42190  0.69707  0.05344  Biso   1.000  C
  H85      1.0000 0.64060  0.33390  0.96320  Biso   1.000  H
  H86      1.0000 0.35940  0.66610  0.03680  Biso   1.000  H
  C59      1.0000 0.56250  0.25617  0.96645  Biso   1.000  C
  C60      1.0000 0.43750  0.74383  0.03355  Biso   1.000  C
  H87      1.0000 0.61380  0.25450  0.99730  Biso   1.000  H
  H88      1.0000 0.38620  0.74550  0.00270  Biso   1.000  H
  C61      1.0000 0.47300  0.21253  0.94146  Biso   1.000  C
  C62      1.0000 0.52700  0.78747  0.05854  Biso   1.000  C
  C63      1.0000 0.40020  0.21586  0.89635  Biso   1.000  C
  C64      1.0000 0.59980  0.78414  0.10365  Biso   1.000  C
  H89      1.0000 0.33830  0.18490  0.87850  Biso   1.000  H
  H90      1.0000 0.66170  0.81510  0.12150  Biso   1.000  H
  C65      1.0000 0.44960  0.16104  0.96205  Biso   1.000  C
  C66      1.0000 0.55040  0.83896  0.03795  Biso   1.000  C
  C67      1.0000 0.84000  0.13508  0.03765  Biso   1.000  C
  C68      1.0000 0.16000  0.86492  0.96235  Biso   1.000  C
  C69      1.0000 0.86750  0.15860  0.00180  Biso   1.000  C
  C70      1.0000 0.13250  0.84140  0.99820  Biso   1.000  C
  H91      1.0000 0.81900  0.14740  0.96660  Biso   1.000  H
  H92      1.0000 0.18100  0.85260  0.03340  Biso   1.000  H
  C71      1.0000 0.96580  0.20000  0.01190  Biso   1.000  C
  C72      1.0000 0.03420  0.80000  0.98810  Biso   1.000  C
  H93      1.0000 0.98130  0.21410  0.98290  Biso   1.000  H
  H94      1.0000 0.01870  0.78590  0.01710  Biso   1.000  H
  C73      1.0000 0.03250  0.21900  0.05620  Biso   1.000  C
  C74      1.0000 0.96750  0.78100  0.94380  Biso   1.000  C
  C75      1.0000 0.00760  0.20050  0.09430  Biso   1.000  C
  C76      1.0000 0.99240  0.79950  0.90570  Biso   1.000  C
  H95      1.0000 0.05550  0.21580  0.12950  Biso   1.000  H
  H96      1.0000 0.94450  0.78420  0.87050  Biso   1.000  H
  C77      1.0000 0.90640  0.15560  0.08620  Biso   1.000  C
  C78      1.0000 0.09360  0.84440  0.91380  Biso   1.000  C
  H97      1.0000 0.89040  0.14230  0.11550  Biso   1.000  H
  H98      1.0000 0.10960  0.85770  0.88450  Biso   1.000  H
  C79      1.0000 0.61350  0.08500  0.84280  Biso   1.000  C
  C80      1.0000 0.38650  0.91500  0.15720  Biso   1.000  C
  C81      1.0000 0.70440  0.06860  0.84070  Biso   1.000  C
  C82      1.0000 0.29560  0.93140  0.15930  Biso   1.000  C
  H99      1.0000 0.74980  0.09460  0.82620  Biso   1.000  H
  H100     1.0000 0.25020  0.90540  0.17380  Biso   1.000  H
  H101     1.0000 0.68150  0.03120  0.81760  Biso   1.000  H
  H102     1.0000 0.31850  0.96880  0.18240  Biso   1.000  H
  H103     1.0000 0.74490  0.06860  0.87680  Biso   1.000  H
  H104     1.0000 0.25510  0.93140  0.12320  Biso   1.000  H
  C83      1.0000 0.57610  0.11590  0.81470  Biso   1.000  C
  C84      1.0000 0.42390  0.88410  0.18530  Biso   1.000  C
  H105     1.0000 0.51390  0.12200  0.82410  Biso   1.000  H
  H106     1.0000 0.48610  0.87800  0.17590  Biso   1.000  H
  H107     1.0000 0.55470  0.09750  0.77670  Biso   1.000  H
  H108     1.0000 0.44530  0.90250  0.22330  Biso   1.000  H
  H109     1.0000 0.63140  0.15160  0.82190  Biso   1.000  H
  H110     1.0000 0.36860  0.84840  0.17810  Biso   1.000  H
  C85      1.0000 0.28890  0.98730  0.82938  Biso   1.000  C
  C86      1.0000 0.71110  0.01270  0.17062  Biso   1.000  C
  C87      1.0000 0.28400  0.93540  0.81390  Biso   1.000  C
  C88      1.0000 0.71600  0.06460  0.18610  Biso   1.000  C
  H111     1.0000 0.29320  0.91890  0.84490  Biso   1.000  H
  H112     1.0000 0.70680  0.08110  0.15510  Biso   1.000  H
  H113     1.0000 0.34080  0.93360  0.79770  Biso   1.000  H
  H114     1.0000 0.65920  0.06640  0.20230  Biso   1.000  H
  H115     1.0000 0.21420  0.91490  0.78770  Biso   1.000  H
  H116     1.0000 0.78580  0.08510  0.21230  Biso   1.000  H
  C89      1.0000 0.27840  0.02600  0.79659  Biso   1.000  C
  C90      1.0000 0.72160  0.97400  0.20341  Biso   1.000  C
  H117     1.0000 0.23390  0.00590  0.76020  Biso   1.000  H
  H118     1.0000 0.76610  0.99410  0.23980  Biso   1.000  H
  H119     1.0000 0.34940  0.04690  0.79590  Biso   1.000  H
  H120     1.0000 0.65060  0.95310  0.20410  Biso   1.000  H
  H121     1.0000 0.24470  0.05180  0.81130  Biso   1.000  H
  H122     1.0000 0.75530  0.94820  0.18870  Biso   1.000  H
  C91      1.0000 0.08830  0.05540  0.88860  Biso   1.000  C
  C92      1.0000 0.91170  0.94460  0.11140  Biso   1.000  C
  C93      1.0000 0.10180  0.11060  0.88810  Biso   1.000  C
  C94      1.0000 0.89820  0.88940  0.11190  Biso   1.000  C
  H123     1.0000 0.17230  0.13340  0.91240  Biso   1.000  H
  H124     1.0000 0.82770  0.86660  0.08760  Biso   1.000  H
  H125     1.0000 0.04590  0.12210  0.89970  Biso   1.000  H
  H126     1.0000 0.95410  0.87790  0.10030  Biso   1.000  H
  H127     1.0000 0.09690  0.11530  0.85180  Biso   1.000  H
  H128     1.0000 0.90310  0.88470  0.14820  Biso   1.000  H
  C95      1.0000 0.00040  0.01050  0.86530  Biso   1.000  C
  C96      1.0000 0.99960  0.98950  0.13470  Biso   1.000  C
  H129     1.0000 0.01520  0.97770  0.87570  Biso   1.000  H
  H130     1.0000 0.98480  0.02230  0.12430  Biso   1.000  H
  H131     1.0000 0.98220  0.00470  0.82630  Biso   1.000  H
  H132     1.0000 0.01780  0.99530  0.17370  Biso   1.000  H
  H133     1.0000 0.94040  0.01670  0.87690  Biso   1.000  H
  H134     1.0000 0.05960  0.98330  0.12310  Biso   1.000  H
  C97      1.0000 0.26480  0.09020  0.04910  Biso   1.000  C
  C98      1.0000 0.73520  0.90980  0.95090  Biso   1.000  C
  C99      1.0000 0.25300  0.14390  0.04970  Biso   1.000  C
  C100     1.0000 0.74700  0.85610  0.95030  Biso   1.000  C
  H135     1.0000 0.20160  0.14910  0.06880  Biso   1.000  H
  H136     1.0000 0.79840  0.85090  0.93120  Biso   1.000  H
  H137     1.0000 0.22690  0.14730  0.01300  Biso   1.000  H
  H138     1.0000 0.77310  0.85270  0.98700  Biso   1.000  H
  H139     1.0000 0.32240  0.17230  0.06790  Biso   1.000  H
  H140     1.0000 0.67760  0.82770  0.93210  Biso   1.000  H
  C101     1.0000 0.21730  0.04470  0.06670  Biso   1.000  C
  C102     1.0000 0.78270  0.95530  0.93330  Biso   1.000  C
  H141     1.0000 0.24230  0.01360  0.05510  Biso   1.000  H
  H142     1.0000 0.75770  0.98640  0.94490  Biso   1.000  H
  H143     1.0000 0.13940  0.03400  0.05160  Biso   1.000  H
  H144     1.0000 0.86060  0.96600  0.94840  Biso   1.000  H
  H145     1.0000 0.23690  0.05440  0.10580  Biso   1.000  H
  H146     1.0000 0.76310  0.94560  0.89420  Biso   1.000  H
  C103     1.0000 0.59380  0.21320  0.12920  Biso   1.000  C
  C104     1.0000 0.40620  0.78680  0.87080  Biso   1.000  C
  H147     1.0000 0.62260  0.22880  0.10180  Biso   1.000  H
  H148     1.0000 0.37740  0.77120  0.89820  Biso   1.000  H
  C105     1.0000 0.52610  0.23880  0.14100  Biso   1.000  C
  C106     1.0000 0.47390  0.76120  0.85900  Biso   1.000  C
  H149     1.0000 0.56470  0.27820  0.15750  Biso   1.000  H
  H150     1.0000 0.43530  0.72180  0.84250  Biso   1.000  H
  H151     1.0000 0.49380  0.22190  0.16600  Biso   1.000  H
  H152     1.0000 0.50620  0.77810  0.83400  Biso   1.000  H
  H153     1.0000 0.46970  0.23520  0.10830  Biso   1.000  H
  H154     1.0000 0.53030  0.76480  0.89170  Biso   1.000  H
  C107     1.0000 0.68060  0.21460  0.17280  Biso   1.000  C
  C108     1.0000 0.31940  0.78540  0.82720  Biso   1.000  C
  H155     1.0000 0.72490  0.25310  0.18950  Biso   1.000  H
  H156     1.0000 0.27510  0.74690  0.81050  Biso   1.000  H
  H157     1.0000 0.72400  0.19360  0.15970  Biso   1.000  H
  H158     1.0000 0.27600  0.80640  0.84030  Biso   1.000  H
  H159     1.0000 0.65270  0.19790  0.19910  Biso   1.000  H
  H160     1.0000 0.34730  0.80210  0.80090  Biso   1.000  H
  C109     1.0000 0.07400  0.08311  0.71296  Biso   1.000  C
  C110     1.0000 0.92600  0.91689  0.28704  Biso   1.000  C
  H161     1.0000 0.12350  0.09640  0.74790  Biso   1.000  H
  H162     1.0000 0.87650  0.90360  0.25210  Biso   1.000  H
  C111     1.0000 0.01260  0.02834  0.69782  Biso   1.000  C
  C112     1.0000 0.98740  0.97166  0.30218  Biso   1.000  C
  H163     1.0000 0.01840  0.00440  0.72150  Biso   1.000  H
  H164     1.0000 0.98160  0.99560  0.27850  Biso   1.000  H
  C113     1.0000 0.94240  0.00969  0.64695  Biso   1.000  C
  C114     1.0000 0.05760  0.99031  0.35305  Biso   1.000  C
  H165     1.0000 0.90050  0.97170  0.63450  Biso   1.000  H
  H166     1.0000 0.09950  0.02830  0.36550  Biso   1.000  H
  C115     1.0000 0.93200  0.04523  0.61385  Biso   1.000  C
  C116     1.0000 0.06800  0.95477  0.38615  Biso   1.000  C
  C117     1.0000 0.99860  0.09958  0.63309  Biso   1.000  C
  C118     1.0000 0.00140  0.90042  0.36691  Biso   1.000  C
  H167     1.0000 0.99440  0.12460  0.61050  Biso   1.000  H
  H168     1.0000 0.00560  0.87540  0.38950  Biso   1.000  H
  C119     1.0000 0.84920  0.02656  0.56080  Biso   1.000  C
  C120     1.0000 0.15080  0.97344  0.43920  Biso   1.000  C
  C121     1.0000 0.58250  0.93849  0.65956  Biso   1.000  C
  C122     1.0000 0.41750  0.06151  0.34044  Biso   1.000  C
  C123     1.0000 0.68440  0.93960  0.68140  Biso   1.000  C
  C124     1.0000 0.31560  0.06040  0.31860  Biso   1.000  C
  H169     1.0000 0.73720  0.95080  0.66420  Biso   1.000  H
  H170     1.0000 0.26280  0.04920  0.33580  Biso   1.000  H
  C125     1.0000 0.71120  0.92370  0.73060  Biso   1.000  C
  C126     1.0000 0.28880  0.07630  0.26940  Biso   1.000  C
  H171     1.0000 0.78310  0.92470  0.74550  Biso   1.000  H
  H172     1.0000 0.21690  0.07530  0.25450  Biso   1.000  H
  C127     1.0000 0.64590  0.90860  0.75570  Biso   1.000  C
  C128     1.0000 0.35410  0.09140  0.24430  Biso   1.000  C
  H173     1.0000 0.66710  0.89750  0.78810  Biso   1.000  H
  H174     1.0000 0.33290  0.10250  0.21190  Biso   1.000  H
  C129     1.0000 0.54880  0.90870  0.73570  Biso   1.000  C
  C130     1.0000 0.45120  0.09130  0.26430  Biso   1.000  C
  H175     1.0000 0.49930  0.89950  0.75510  Biso   1.000  H
  H176     1.0000 0.50070  0.10050  0.24490  Biso   1.000  H
  C131     1.0000 0.51390  0.92180  0.68690  Biso   1.000  C
  C132     1.0000 0.48610  0.07820  0.31310  Biso   1.000  C
  H177     1.0000 0.44060  0.91900  0.67270  Biso   1.000  H
  H178     1.0000 0.55940  0.08100  0.32730  Biso   1.000  H
  C133     1.0000 0.76360  0.86199  0.50610  Biso   1.000  C
  C134     1.0000 0.23640  0.13801  0.49390  Biso   1.000  C
  H179     1.0000 0.82870  0.89540  0.52040  Biso   1.000  H
  H180     1.0000 0.17130  0.10460  0.47960  Biso   1.000  H
  C135     1.0000 0.75140  0.83870  0.55170  Biso   1.000  C
  C136     1.0000 0.24860  0.16130  0.44830  Biso   1.000  C
  H181     1.0000 0.74110  0.86610  0.57850  Biso   1.000  H
  H182     1.0000 0.25890  0.13390  0.42150  Biso   1.000  H
  H183     1.0000 0.81590  0.82920  0.56750  Biso   1.000  H
  H184     1.0000 0.18410  0.17080  0.43250  Biso   1.000  H
  H185     1.0000 0.68910  0.80520  0.53970  Biso   1.000  H
  H186     1.0000 0.31090  0.19480  0.46030  Biso   1.000  H
  C137     1.0000 0.78240  0.82600  0.46190  Biso   1.000  C
  C138     1.0000 0.21760  0.17400  0.53810  Biso   1.000  C
  H187     1.0000 0.79130  0.84610  0.43420  Biso   1.000  H
  H188     1.0000 0.20870  0.15390  0.56580  Biso   1.000  H
  H189     1.0000 0.72100  0.79220  0.44670  Biso   1.000  H
  H190     1.0000 0.27900  0.20780  0.55330  Biso   1.000  H
  H191     1.0000 0.84720  0.81610  0.47590  Biso   1.000  H
  H192     1.0000 0.15280  0.18390  0.52410  Biso   1.000  H
  C139     1.0000 0.69490  0.94572  0.39363  Biso   1.000  C
  C140     1.0000 0.30510  0.05428  0.60637  Biso   1.000  C
  H193     1.0000 0.66380  0.90590  0.39360  Biso   1.000  H
  H194     1.0000 0.33620  0.09410  0.60640  Biso   1.000  H
  C141     1.0000 0.62840  0.95350  0.34660  Biso   1.000  C
  C142     1.0000 0.37160  0.04650  0.65340  Biso   1.000  C
  H195     1.0000 0.55500  0.94620  0.34860  Biso   1.000  H
  H196     1.0000 0.44500  0.05380  0.65140  Biso   1.000  H
  H197     1.0000 0.62880  0.92780  0.31520  Biso   1.000  H
  H198     1.0000 0.37120  0.07220  0.68480  Biso   1.000  H
  H199     1.0000 0.65550  0.99170  0.34370  Biso   1.000  H
  H200     1.0000 0.34450  0.00830  0.65630  Biso   1.000  H
  C143     1.0000 0.81070  0.95350  0.39930  Biso   1.000  C
  C144     1.0000 0.18930  0.04650  0.60070  Biso   1.000  C
  H201     1.0000 0.81730  0.93230  0.36690  Biso   1.000  H
  H202     1.0000 0.18270  0.06770  0.63310  Biso   1.000  H
  H203     1.0000 0.84220  0.94040  0.43020  Biso   1.000  H
  H204     1.0000 0.15780  0.05960  0.56980  Biso   1.000  H
  H205     1.0000 0.84840  0.99290  0.40450  Biso   1.000  H
  H206     1.0000 0.15160  0.00710  0.59550  Biso   1.000  H
  C145     1.0000 0.85880  0.12010  0.41410  Biso   1.000  C
  C146     1.0000 0.14120  0.87990  0.58590  Biso   1.000  C
  C147     1.0000 0.91110  0.15850  0.42610  Biso   1.000  C
  C148     1.0000 0.08890  0.84150  0.57390  Biso   1.000  C
  C149     1.0000 0.93260  0.09080  0.40180  Biso   1.000  C
  C150     1.0000 0.06740  0.90920  0.59820  Biso   1.000  C
  C151     1.0000 0.72570  0.17755  0.52719  Biso   1.000  C
  C152     1.0000 0.27430  0.82245  0.47281  Biso   1.000  C
  H207     1.0000 0.70060  0.18990  0.55810  Biso   1.000  H
  H208     1.0000 0.29940  0.81010  0.44190  Biso   1.000  H
  C153     1.0000 0.65940  0.19138  0.48530  Biso   1.000  C
  C154     1.0000 0.34060  0.80862  0.51470  Biso   1.000  C
  H209     1.0000 0.58480  0.16930  0.47860  Biso   1.000  H
  H210     1.0000 0.41520  0.83070  0.52140  Biso   1.000  H
  H211     1.0000 0.68070  0.18370  0.45300  Biso   1.000  H
  H212     1.0000 0.31930  0.81630  0.54700  Biso   1.000  H
  H213     1.0000 0.66650  0.23090  0.49520  Biso   1.000  H
  H214     1.0000 0.33350  0.76910  0.50480  Biso   1.000  H
  C155     1.0000 0.84540  0.20404  0.54980  Biso   1.000  C
  C156     1.0000 0.15460  0.79596  0.45020  Biso   1.000  C
  H215     1.0000 0.86310  0.24430  0.55390  Biso   1.000  H
  H216     1.0000 0.13690  0.75570  0.44610  Biso   1.000  H
  H217     1.0000 0.88040  0.18900  0.52540  Biso   1.000  H
  H218     1.0000 0.11960  0.81100  0.47460  Biso   1.000  H
  H219     1.0000 0.87060  0.19610  0.58470  Biso   1.000  H
  H220     1.0000 0.12940  0.80390  0.41530  Biso   1.000  H
  C157     1.0000 0.78460  0.15240  0.67824  Biso   1.000  C
  C158     1.0000 0.21540  0.84760  0.32176  Biso   1.000  C
  C159     1.0000 0.79940  0.11910  0.71502  Biso   1.000  C
  C160     1.0000 0.20060  0.88090  0.28498  Biso   1.000  C
  H221     1.0000 0.77760  0.08020  0.69560  Biso   1.000  H
  H222     1.0000 0.22240  0.91980  0.30440  Biso   1.000  H
  H223     1.0000 0.75580  0.12310  0.73890  Biso   1.000  H
  H224     1.0000 0.24420  0.87690  0.26110  Biso   1.000  H
  H225     1.0000 0.87500  0.13080  0.73610  Biso   1.000  H
  H226     1.0000 0.12500  0.86920  0.26390  Biso   1.000  H
  C161     1.0000 0.80780  0.21060  0.69450  Biso   1.000  C
  C162     1.0000 0.19220  0.78940  0.30550  Biso   1.000  C
  H227     1.0000 0.79150  0.22570  0.66290  Biso   1.000  H
  H228     1.0000 0.20850  0.77430  0.33710  Biso   1.000  H
  H229     1.0000 0.88380  0.22750  0.71460  Biso   1.000  H
  H230     1.0000 0.11620  0.77250  0.28540  Biso   1.000  H
  H231     1.0000 0.76420  0.21900  0.71720  Biso   1.000  H
  H232     1.0000 0.23580  0.78100  0.28280  Biso   1.000  H
  C163     1.0000 0.06890  0.37592  0.77989  Biso   1.000  C
  C164     1.0000 0.93110  0.62408  0.22011  Biso   1.000  C
  H233     1.0000 0.04050  0.34960  0.79810  Biso   1.000  H
  H234     1.0000 0.95950  0.65040  0.20190  Biso   1.000  H
  C165     1.0000 0.05200  0.42690  0.78846  Biso   1.000  C
  C166     1.0000 0.94800  0.57310  0.21154  Biso   1.000  C
  C167     1.0000 0.09200  0.46496  0.76163  Biso   1.000  C
  C168     1.0000 0.90800  0.53504  0.23837  Biso   1.000  C
  H235     1.0000 0.08220  0.50050  0.76670  Biso   1.000  H
  H236     1.0000 0.91780  0.49950  0.23330  Biso   1.000  H
  C169     1.0000 0.14660  0.44997  0.72723  Biso   1.000  C
  C170     1.0000 0.85340  0.55003  0.27277  Biso   1.000  C
  H237     1.0000 0.17390  0.47500  0.70760  Biso   1.000  H
  H238     1.0000 0.82610  0.52500  0.29240  Biso   1.000  H
  C171     1.0000 0.16110  0.39932  0.72171  Biso   1.000  C
  C172     1.0000 0.83890  0.60068  0.27829  Biso   1.000  C
  H239     1.0000 0.20030  0.39010  0.69840  Biso   1.000  H
  H240     1.0000 0.79970  0.60990  0.30160  Biso   1.000  H
  C173     1.0000 0.99440  0.44117  0.82703  Biso   1.000  C
  C174     1.0000 0.00560  0.55883  0.17297  Biso   1.000  C
  C175     1.0000 0.18390  0.36510  0.99790  Biso   1.000  C
  C176     1.0000 0.81610  0.63490  0.00210  Biso   1.000  C
  C177     1.0000 0.17550  0.33071  0.95202  Biso   1.000  C
  C178     1.0000 0.82450  0.66929  0.04798  Biso   1.000  C
  H241     1.0000 0.13160  0.33300  0.91900  Biso   1.000  H
  H242     1.0000 0.86840  0.66700  0.08100  Biso   1.000  H
  C179     1.0000 0.23090  0.29168  0.95264  Biso   1.000  C
  C180     1.0000 0.76910  0.70832  0.04736  Biso   1.000  C
  H243     1.0000 0.22230  0.26710  0.92000  Biso   1.000  H
  H244     1.0000 0.77770  0.73290  0.08000  Biso   1.000  H
  C181     1.0000 0.29510  0.28811  0.99751  Biso   1.000  C
  C182     1.0000 0.70490  0.71189  0.00249  Biso   1.000  C
  H245     1.0000 0.33410  0.26220  0.99700  Biso   1.000  H
  H246     1.0000 0.66590  0.73780  0.00300  Biso   1.000  H
  C183     1.0000 0.30420  0.32174  0.04396  Biso   1.000  C
  C184     1.0000 0.69580  0.67826  0.95604  Biso   1.000  C
  H247     1.0000 0.34940  0.31930  0.07650  Biso   1.000  H
  H248     1.0000 0.65060  0.68070  0.92350  Biso   1.000  H
  C185     1.0000 0.24840  0.35984  0.04481  Biso   1.000  C
  C186     1.0000 0.75160  0.64016  0.95519  Biso   1.000  C
  H249     1.0000 0.25450  0.38270  0.07800  Biso   1.000  H
  H250     1.0000 0.74550  0.61730  0.92200  Biso   1.000  H
  C187     1.0000 0.35300  0.52930  0.94050  Biso   1.000  C
  C188     1.0000 0.64700  0.47070  0.05950  Biso   1.000  C
  H251     1.0000 0.36140  0.50990  0.97030  Biso   1.000  H
  H252     1.0000 0.63860  0.49010  0.02970  Biso   1.000  H
  C189     1.0000 0.32700  0.48340  0.89560  Biso   1.000  C
  C190     1.0000 0.67300  0.51660  0.10440  Biso   1.000  C
  H253     1.0000 0.39110  0.47250  0.89540  Biso   1.000  H
  H254     1.0000 0.60890  0.52750  0.10460  Biso   1.000  H
  H255     1.0000 0.30120  0.49450  0.86240  Biso   1.000  H
  H256     1.0000 0.69880  0.50550  0.13760  Biso   1.000  H
  H257     1.0000 0.27110  0.45200  0.89830  Biso   1.000  H
  H258     1.0000 0.72890  0.54800  0.10170  Biso   1.000  H
  C191     1.0000 0.44660  0.56700  0.95590  Biso   1.000  C
  C192     1.0000 0.55340  0.43300  0.04410  Biso   1.000  C
  H259     1.0000 0.45320  0.59370  0.98830  Biso   1.000  H
  H260     1.0000 0.54680  0.40630  0.01170  Biso   1.000  H
  H261     1.0000 0.45410  0.58640  0.92750  Biso   1.000  H
  H262     1.0000 0.54590  0.41360  0.07250  Biso   1.000  H
  H263     1.0000 0.50280  0.54930  0.96340  Biso   1.000  H
  H264     1.0000 0.49720  0.45070  0.03660  Biso   1.000  H
  C193     1.0000 0.13950  0.63299  0.91540  Biso   1.000  C
  C194     1.0000 0.86050  0.36701  0.08460  Biso   1.000  C
  C195     1.0000 0.16850  0.62990  0.86610  Biso   1.000  C
  C196     1.0000 0.83150  0.37010  0.13390  Biso   1.000  C
  H265     1.0000 0.20600  0.66720  0.86410  Biso   1.000  H
  H266     1.0000 0.79400  0.33280  0.13590  Biso   1.000  H
  H267     1.0000 0.10360  0.61370  0.83550  Biso   1.000  H
  H268     1.0000 0.89640  0.38630  0.16450  Biso   1.000  H
  H269     1.0000 0.21540  0.60660  0.86550  Biso   1.000  H
  H270     1.0000 0.78460  0.39340  0.13450  Biso   1.000  H
  C197     1.0000 0.12730  0.67550  0.94790  Biso   1.000  C
  C198     1.0000 0.87270  0.32450  0.05210  Biso   1.000  C
  H271     1.0000 0.10850  0.66310  0.97820  Biso   1.000  H
  H272     1.0000 0.89150  0.33690  0.02180  Biso   1.000  H
  H273     1.0000 0.07010  0.68790  0.92800  Biso   1.000  H
  H274     1.0000 0.92990  0.31210  0.07200  Biso   1.000  H
  H275     1.0000 0.19440  0.70630  0.96100  Biso   1.000  H
  H276     1.0000 0.80560  0.29370  0.03900  Biso   1.000  H
  C199     1.0000 0.83020  0.58220  0.79600  Biso   1.000  C
  C200     1.0000 0.16980  0.41780  0.20400  Biso   1.000  C
  H277     1.0000 0.75530  0.55630  0.78200  Biso   1.000  H
  H278     1.0000 0.24470  0.44370  0.21800  Biso   1.000  H
  C201     1.0000 0.81690  0.63320  0.81040  Biso   1.000  C
  C202     1.0000 0.18310  0.36680  0.18960  Biso   1.000  C
  H279     1.0000 0.78250  0.64380  0.77840  Biso   1.000  H
  H280     1.0000 0.21750  0.35620  0.22160  Biso   1.000  H
  H281     1.0000 0.88680  0.66090  0.82900  Biso   1.000  H
  H282     1.0000 0.11320  0.33910  0.17100  Biso   1.000  H
  H283     1.0000 0.77180  0.63130  0.83420  Biso   1.000  H
  H284     1.0000 0.22820  0.36870  0.16580  Biso   1.000  H
  C203     1.0000 0.87210  0.57190  0.75500  Biso   1.000  C
  C204     1.0000 0.12790  0.42810  0.24500  Biso   1.000  C
  H285     1.0000 0.87370  0.53350  0.74890  Biso   1.000  H
  H286     1.0000 0.12630  0.46650  0.25110  Biso   1.000  H
  H287     1.0000 0.94510  0.59730  0.76440  Biso   1.000  H
  H288     1.0000 0.05490  0.40270  0.23560  Biso   1.000  H
  H289     1.0000 0.82760  0.57760  0.72250  Biso   1.000  H
  H290     1.0000 0.17240  0.42240  0.27750  Biso   1.000  H
  C205     1.0000 0.70190  0.44195  0.84976  Biso   1.000  C
  C206     1.0000 0.29810  0.55805  0.15024  Biso   1.000  C
  H291     1.0000 0.67540  0.40580  0.85910  Biso   1.000  H
  H292     1.0000 0.32460  0.59420  0.14090  Biso   1.000  H
  C207     1.0000 0.64880  0.47730  0.87322  Biso   1.000  C
  C208     1.0000 0.35120  0.52270  0.12678  Biso   1.000  C
  H293     1.0000 0.66950  0.48150  0.91200  Biso   1.000  H
  H294     1.0000 0.33050  0.51850  0.08800  Biso   1.000  H
  H295     1.0000 0.57110  0.46040  0.85820  Biso   1.000  H
  H296     1.0000 0.42890  0.53960  0.14180  Biso   1.000  H
  H297     1.0000 0.67000  0.51380  0.86530  Biso   1.000  H
  H298     1.0000 0.33000  0.48620  0.13470  Biso   1.000  H
  C209     1.0000 0.68250  0.42671  0.79083  Biso   1.000  C
  C210     1.0000 0.31750  0.57329  0.20917  Biso   1.000  C
  H299     1.0000 0.72300  0.40170  0.78260  Biso   1.000  H
  H300     1.0000 0.27700  0.59830  0.21740  Biso   1.000  H
  H301     1.0000 0.70560  0.46030  0.77830  Biso   1.000  H
  H302     1.0000 0.29440  0.53970  0.22170  Biso   1.000  H
  H303     1.0000 0.60590  0.40810  0.77290  Biso   1.000  H
  H304     1.0000 0.39410  0.59190  0.22710  Biso   1.000  H
  C211     1.0000 0.78470  0.29826  0.84217  Biso   1.000  C
  C212     1.0000 0.21530  0.70174  0.15783  Biso   1.000  C
  H305     1.0000 0.81930  0.31110  0.81530  Biso   1.000  H
  H306     1.0000 0.18070  0.68890  0.18470  Biso   1.000  H
  C213     1.0000 0.84450  0.26410  0.86440  Biso   1.000  C
  C214     1.0000 0.15550  0.73590  0.13560  Biso   1.000  C
  H307     1.0000 0.91930  0.28660  0.88210  Biso   1.000  H
  H308     1.0000 0.08070  0.71340  0.11790  Biso   1.000  H
  H309     1.0000 0.84110  0.23390  0.83580  Biso   1.000  H
  H310     1.0000 0.15890  0.76610  0.16420  Biso   1.000  H
  H311     1.0000 0.81390  0.24850  0.89050  Biso   1.000  H
  H312     1.0000 0.18610  0.75150  0.10950  Biso   1.000  H
  C215     1.0000 0.67090  0.27390  0.81190  Biso   1.000  C
  C216     1.0000 0.32910  0.72610  0.18810  Biso   1.000  C
  H313     1.0000 0.64320  0.30270  0.79920  Biso   1.000  H
  H314     1.0000 0.35680  0.69730  0.20080  Biso   1.000  H
  H315     1.0000 0.63120  0.25830  0.83510  Biso   1.000  H
  H316     1.0000 0.36880  0.74170  0.16490  Biso   1.000  H
  H317     1.0000 0.66220  0.24440  0.78130  Biso   1.000  H
  H318     1.0000 0.33780  0.75560  0.21870  Biso   1.000  H
  O1       1.0000 0.47159  0.32829  0.50429  Biso   1.000  O
  O2       1.0000 0.52841  0.67171  0.49571  Biso   1.000  O
  O3       1.0000 0.37466  0.36345  0.54984  Biso   1.000  O
  O4       1.0000 0.62534  0.63655  0.45016  Biso   1.000  O
  O5       1.0000 0.58791  0.49550  0.60917  Biso   1.000  O
  O6       1.0000 0.41209  0.50450  0.39083  Biso   1.000  O
  O7       1.0000 0.38908  0.47874  0.57563  Biso   1.000  O
  O8       1.0000 0.61092  0.52126  0.42437  Biso   1.000  O
  O9       1.0000 0.72480  0.43965  0.59160  Biso   1.000  O
  O10      1.0000 0.27520  0.56035  0.40840  Biso   1.000  O
  O11      1.0000 0.63058  0.40830  0.48397  Biso   1.000  O
  O12      1.0000 0.36942  0.59170  0.51603  Biso   1.000  O
  O13      1.0000 0.46950  0.31714  0.40110  Biso   1.000  O
  O14      1.0000 0.53050  0.68286  0.59890  Biso   1.000  O
  O15      1.0000 0.51862  0.57636  0.60121  Biso   1.000  O
  O16      1.0000 0.48138  0.42364  0.39879  Biso   1.000  O
  O17      1.0000 0.32471  0.36803  0.44117  Biso   1.000  O
  O18      1.0000 0.67529  0.63197  0.55883  Biso   1.000  O
  O19      1.0000 0.30494  0.47344  0.46668  Biso   1.000  O
  O20      1.0000 0.69506  0.52656  0.53332  Biso   1.000  O
  O21      1.0000 0.20496  0.39594  0.51283  Biso   1.000  O
  O22      1.0000 0.79504  0.60406  0.48717  Biso   1.000  O
  O23      1.0000 0.48594  0.43622  0.50745  Biso   1.000  O
  O24      1.0000 0.51406  0.56378  0.49255  Biso   1.000  O
  O25      1.0000 0.36725  0.12047  0.93247  Biso   1.000  O
  O26      1.0000 0.63275  0.87953  0.06753  Biso   1.000  O
  O27      1.0000 0.50931  0.16165  0.00602  Biso   1.000  O
  O28      1.0000 0.49069  0.83835  0.99398  Biso   1.000  O
  O29      1.0000 0.65888  0.06670  0.96527  Biso   1.000  O
  O30      1.0000 0.34112  0.93330  0.03473  Biso   1.000  O
  O31      1.0000 0.65051  0.10642  0.05687  Biso   1.000  O
  O32      1.0000 0.34949  0.89358  0.94313  Biso   1.000  O
  O33      1.0000 0.54550  0.05200  0.86412  Biso   1.000  O
  O34      1.0000 0.45450  0.94800  0.13588  Biso   1.000  O
  O35      1.0000 0.35418  0.01315  0.88372  Biso   1.000  O
  O36      1.0000 0.64582  0.98685  0.11628  Biso   1.000  O
  O37      1.0000 0.18098  0.04403  0.91371  Biso   1.000  O
  O38      1.0000 0.81902  0.95597  0.08629  Biso   1.000  O
  O39      1.0000 0.33899  0.07913  0.02017  Biso   1.000  O
  O40      1.0000 0.66101  0.92087  0.97983  Biso   1.000  O
  O41      1.0000 0.52660  0.15415  0.10519  Biso   1.000  O
  O42      1.0000 0.47340  0.84585  0.89481  Biso   1.000  O
  O43      1.0000 0.48589  0.04190  0.08629  Biso   1.000  O
  O44      1.0000 0.51411  0.95810  0.91371  Biso   1.000  O
  O45      1.0000 0.46268  0.05069  0.97656  Biso   1.000  O
  O46      1.0000 0.53732  0.94931  0.02344  Biso   1.000  O
  O47      1.0000 0.74109  0.03303  0.04444  Biso   1.000  O
  O48      1.0000 0.25891  0.96697  0.95556  Biso   1.000  O
  O49      1.0000 0.50503  0.09033  0.55252  Biso   1.000  O
  O50      1.0000 0.49497  0.90967  0.44748  Biso   1.000  O
  O51      1.0000 0.78736  0.97814  0.55053  Biso   1.000  O
  O52      1.0000 0.21264  0.02186  0.44947  Biso   1.000  O
  O53      1.0000 0.84450  0.06001  0.53141  Biso   1.000  O
  O54      1.0000 0.15550  0.93999  0.46859  Biso   1.000  O
  O55      1.0000 0.42182  0.94397  0.58178  Biso   1.000  O
  O56      1.0000 0.57818  0.05603  0.41822  Biso   1.000  O
  O57      1.0000 0.59653  0.02129  0.61056  Biso   1.000  O
  O58      1.0000 0.40347  0.97871  0.38944  Biso   1.000  O
  O59      1.0000 0.58140  0.92728  0.55775  Biso   1.000  O
  O60      1.0000 0.41860  0.07272  0.44225  Biso   1.000  O
  O61      1.0000 0.72070  0.12704  0.62783  Biso   1.000  O
  O62      1.0000 0.27930  0.87296  0.37217  Biso   1.000  O
  O63      1.0000 0.69879  0.11804  0.52223  Biso   1.000  O
  O64      1.0000 0.30121  0.88196  0.47777  Biso   1.000  O
  O65      1.0000 0.79223  0.09128  0.43735  Biso   1.000  O
  O66      1.0000 0.20777  0.90872  0.56265  Biso   1.000  O
  O67      1.0000 0.68751  0.97737  0.44232  Biso   1.000  O
  O68      1.0000 0.31249  0.02263  0.55768  Biso   1.000  O
  O69      1.0000 0.67718  0.88159  0.48567  Biso   1.000  O
  O70      1.0000 0.32282  0.11841  0.51433  Biso   1.000  O
  O71      1.0000 0.63071  0.01903  0.51535  Biso   1.000  O
  O72      1.0000 0.36929  0.98097  0.48465  Biso   1.000  O
  O73      1.0000 0.96350  0.40613  0.85188  Biso   1.000  O
  O74      1.0000 0.03650  0.59387  0.14812  Biso   1.000  O
  O75      1.0000 0.98175  0.48893  0.83148  Biso   1.000  O
  O76      1.0000 0.01825  0.51107  0.16852  Biso   1.000  O
  O77      1.0000 0.10677  0.42852  0.05585  Biso   1.000  O
  O78      1.0000 0.89323  0.57148  0.94415  Biso   1.000  O
  O79      1.0000 0.17675  0.46691  0.98647  Biso   1.000  O
  O80      1.0000 0.82325  0.53309  0.01353  Biso   1.000  O
  O81      1.0000 0.00332  0.38842  0.95788  Biso   1.000  O
  O82      1.0000 0.99668  0.61158  0.04212  Biso   1.000  O
  O83      1.0000 0.80350  0.34728  0.88025  Biso   1.000  O
  O84      1.0000 0.19650  0.65272  0.11975  Biso   1.000  O
  O85      1.0000 0.81659  0.46085  0.87670  Biso   1.000  O
  O86      1.0000 0.18341  0.53915  0.12330  Biso   1.000  O
  O87      1.0000 0.87706  0.56358  0.84051  Biso   1.000  O
  O88      1.0000 0.12294  0.43642  0.15949  Biso   1.000  O
  O89      1.0000 0.08332  0.57786  0.91913  Biso   1.000  O
  O90      1.0000 0.91668  0.42214  0.08087  Biso   1.000  O
  O91      1.0000 0.26593  0.54674  0.94510  Biso   1.000  O
  O92      1.0000 0.73407  0.45326  0.05490  Biso   1.000  O
  O93      1.0000 0.16970  0.57546  0.02944  Biso   1.000  O
  O94      1.0000 0.83030  0.42454  0.97056  Biso   1.000  O
  O95      1.0000 0.00114  0.48931  0.93626  Biso   1.000  O
  O96      1.0000 0.99886  0.51069  0.06374  Biso   1.000  O
  C217     1.0000 0.94630  0.12410  0.43550  Biso   1.000  C
  C218     1.0000 0.05370  0.87590  0.56450  Biso   1.000  C
  C219     1.0000 0.83840  0.10820  0.36300  Biso   1.000  C
  C220     1.0000 0.16160  0.89180  0.63700  Biso   1.000  C
  C221     1.0000 0.80640  0.14900  0.37310  Biso   1.000  C
  C222     1.0000 0.19360  0.85100  0.62690  Biso   1.000  C
