data_image0
_cell_length_a       24.2854
_cell_length_b       26.7805
_cell_length_c       12.2991
_cell_angle_alpha    90
_cell_angle_beta     90
_cell_angle_gamma    90

_symmetry_space_group_name_H-M    "P 1"
_symmetry_int_tables_number       1

loop_
  _symmetry_equiv_pos_as_xyz
  'x, y, z'

loop_
  _atom_site_label
  _atom_site_occupancy
  _atom_site_fract_x
  _atom_site_fract_y
  _atom_site_fract_z
  _atom_site_thermal_displace_type
  _atom_site_B_iso_or_equiv
  _atom_site_type_symbol
  Ti1      1.0000 0.80138  0.91026  0.49021  Biso   1.000  Ti
  Ti2      1.0000 0.19862  0.08974  0.49021  Biso   1.000  Ti
  Ti3      1.0000 0.69862  0.41026  0.50979  Biso   1.000  Ti
  Ti4      1.0000 0.30138  0.58974  0.50979  Biso   1.000  Ti
  Ti5      1.0000 0.81119  0.92120  0.23821  Biso   1.000  Ti
  Ti6      1.0000 0.18881  0.07880  0.23821  Biso   1.000  Ti
  Ti7      1.0000 0.68881  0.42120  0.76179  Biso   1.000  Ti
  Ti8      1.0000 0.31119  0.57880  0.76179  Biso   1.000  Ti
  Ti9      1.0000 0.72886  0.83265  0.27947  Biso   1.000  Ti
  Ti10     1.0000 0.27114  0.16735  0.27947  Biso   1.000  Ti
  Ti11     1.0000 0.77114  0.33265  0.72053  Biso   1.000  Ti
  Ti12     1.0000 0.22886  0.66735  0.72053  Biso   1.000  Ti
  Ti13     1.0000 0.90739  0.82324  0.50848  Biso   1.000  Ti
  Ti14     1.0000 0.09261  0.17676  0.50848  Biso   1.000  Ti
  Ti15     1.0000 0.59261  0.32324  0.49152  Biso   1.000  Ti
  Ti16     1.0000 0.40739  0.67676  0.49152  Biso   1.000  Ti
  Ti17     1.0000 0.82500  0.73525  0.55062  Biso   1.000  Ti
  Ti18     1.0000 0.17500  0.26475  0.55062  Biso   1.000  Ti
  Ti19     1.0000 0.67500  0.23525  0.44938  Biso   1.000  Ti
  Ti20     1.0000 0.32500  0.76475  0.44938  Biso   1.000  Ti
  Ti21     1.0000 0.83642  0.74494  0.29735  Biso   1.000  Ti
  Ti22     1.0000 0.16358  0.25506  0.29735  Biso   1.000  Ti
  Ti23     1.0000 0.66358  0.24494  0.70265  Biso   1.000  Ti
  Ti24     1.0000 0.33642  0.75506  0.70265  Biso   1.000  Ti
  P1       1.0000 0.72117  0.81734  0.54000  Biso   1.000  P
  P2       1.0000 0.27883  0.18266  0.54000  Biso   1.000  P
  P3       1.0000 0.77883  0.31734  0.46000  Biso   1.000  P
  P4       1.0000 0.22117  0.68266  0.46000  Biso   1.000  P
  P5       1.0000 0.91478  0.83964  0.24880  Biso   1.000  P
  P6       1.0000 0.08522  0.16036  0.24880  Biso   1.000  P
  P7       1.0000 0.58522  0.33964  0.75120  Biso   1.000  P
  P8       1.0000 0.41478  0.66036  0.75120  Biso   1.000  P
  S1       1.0000 0.93895  0.70322  0.44910  Biso   1.000  S
  S2       1.0000 0.06105  0.29678  0.44910  Biso   1.000  S
  S3       1.0000 0.56105  0.20322  0.55090  Biso   1.000  S
  S4       1.0000 0.43895  0.79678  0.55090  Biso   1.000  S
  S5       1.0000 0.69258  0.95086  0.32550  Biso   1.000  S
  S6       1.0000 0.30742  0.04914  0.32550  Biso   1.000  S
  S7       1.0000 0.80742  0.45086  0.67450  Biso   1.000  S
  S8       1.0000 0.19258  0.54914  0.67450  Biso   1.000  S
  C1       1.0000 0.01730  0.83980  0.99210  Biso   1.000  C
  C2       1.0000 0.98270  0.16020  0.99210  Biso   1.000  C
  C3       1.0000 0.48270  0.33980  0.00790  Biso   1.000  C
  C4       1.0000 0.51730  0.66020  0.00790  Biso   1.000  C
  H1       1.0000 0.01400  0.83240  0.91840  Biso   1.000  H
  H2       1.0000 0.98600  0.16760  0.91840  Biso   1.000  H
  H3       1.0000 0.48600  0.33240  0.08160  Biso   1.000  H
  H4       1.0000 0.51400  0.66760  0.08160  Biso   1.000  H
  C5       1.0000 0.97170  0.83200  0.06100  Biso   1.000  C
  C6       1.0000 0.02830  0.16800  0.06100  Biso   1.000  C
  C7       1.0000 0.52830  0.33200  0.93900  Biso   1.000  C
  C8       1.0000 0.47170  0.66800  0.93900  Biso   1.000  C
  H5       1.0000 0.93950  0.81790  0.03390  Biso   1.000  H
  H6       1.0000 0.06050  0.18210  0.03390  Biso   1.000  H
  H7       1.0000 0.56050  0.31790  0.96610  Biso   1.000  H
  H8       1.0000 0.43950  0.68210  0.96610  Biso   1.000  H
  C9       1.0000 0.97490  0.84520  0.16610  Biso   1.000  C
  C10      1.0000 0.02510  0.15480  0.16610  Biso   1.000  C
  C11      1.0000 0.52510  0.34520  0.83390  Biso   1.000  C
  C12      1.0000 0.47490  0.65480  0.83390  Biso   1.000  C
  C13      1.0000 0.02470  0.85980  0.20440  Biso   1.000  C
  C14      1.0000 0.97530  0.14020  0.20440  Biso   1.000  C
  C15      1.0000 0.47530  0.35980  0.79560  Biso   1.000  C
  C16      1.0000 0.52470  0.64020  0.79560  Biso   1.000  C
  H9       1.0000 0.02810  0.86540  0.27870  Biso   1.000  H
  H10      1.0000 0.97190  0.13460  0.27870  Biso   1.000  H
  H11      1.0000 0.47190  0.36540  0.72130  Biso   1.000  H
  H12      1.0000 0.52810  0.63460  0.72130  Biso   1.000  H
  C17      1.0000 0.06810  0.86640  0.14400  Biso   1.000  C
  C18      1.0000 0.93190  0.13360  0.14400  Biso   1.000  C
  C19      1.0000 0.43190  0.36640  0.85600  Biso   1.000  C
  C20      1.0000 0.56810  0.63360  0.85600  Biso   1.000  C
  H13      1.0000 0.10140  0.87700  0.17340  Biso   1.000  H
  H14      1.0000 0.89860  0.12300  0.17340  Biso   1.000  H
  H15      1.0000 0.39860  0.37700  0.82660  Biso   1.000  H
  H16      1.0000 0.60140  0.62300  0.82660  Biso   1.000  H
  C21      1.0000 0.06210  0.85630  0.02800  Biso   1.000  C
  C22      1.0000 0.93790  0.14370  0.02800  Biso   1.000  C
  C23      1.0000 0.43790  0.35630  0.97200  Biso   1.000  C
  C24      1.0000 0.56210  0.64370  0.97200  Biso   1.000  C
  H17      1.0000 0.09130  0.86220  0.98060  Biso   1.000  H
  H18      1.0000 0.90870  0.13780  0.98060  Biso   1.000  H
  H19      1.0000 0.40870  0.36220  0.01940  Biso   1.000  H
  H20      1.0000 0.59130  0.63780  0.01940  Biso   1.000  H
  C25      1.0000 0.65690  0.84430  0.71360  Biso   1.000  C
  C26      1.0000 0.34310  0.15570  0.71360  Biso   1.000  C
  C27      1.0000 0.84310  0.34430  0.28640  Biso   1.000  C
  C28      1.0000 0.15690  0.65570  0.28640  Biso   1.000  C
  H21      1.0000 0.67810  0.87290  0.72330  Biso   1.000  H
  H22      1.0000 0.32190  0.12710  0.72330  Biso   1.000  H
  H23      1.0000 0.82190  0.37290  0.27670  Biso   1.000  H
  H24      1.0000 0.17810  0.62710  0.27670  Biso   1.000  H
  C29      1.0000 0.61090  0.83100  0.78400  Biso   1.000  C
  C30      1.0000 0.38910  0.16900  0.78400  Biso   1.000  C
  C31      1.0000 0.88910  0.33100  0.21600  Biso   1.000  C
  C32      1.0000 0.11090  0.66900  0.21600  Biso   1.000  C
  H25      1.0000 0.60650  0.85140  0.84460  Biso   1.000  H
  H26      1.0000 0.39350  0.14860  0.84460  Biso   1.000  H
  H27      1.0000 0.89350  0.35140  0.15540  Biso   1.000  H
  H28      1.0000 0.10650  0.64860  0.15540  Biso   1.000  H
  C33      1.0000 0.57790  0.79790  0.77700  Biso   1.000  C
  C34      1.0000 0.42210  0.20210  0.77700  Biso   1.000  C
  C35      1.0000 0.92210  0.29790  0.22300  Biso   1.000  C
  C36      1.0000 0.07790  0.70210  0.22300  Biso   1.000  C
  H29      1.0000 0.54960  0.79440  0.82780  Biso   1.000  H
  H30      1.0000 0.45040  0.20560  0.82780  Biso   1.000  H
  H31      1.0000 0.95040  0.29440  0.17220  Biso   1.000  H
  H32      1.0000 0.04960  0.70560  0.17220  Biso   1.000  H
  C37      1.0000 0.58360  0.76490  0.69000  Biso   1.000  C
  C38      1.0000 0.41640  0.23510  0.69000  Biso   1.000  C
  C39      1.0000 0.91640  0.26490  0.31000  Biso   1.000  C
  C40      1.0000 0.08360  0.73510  0.31000  Biso   1.000  C
  H33      1.0000 0.55780  0.73990  0.67780  Biso   1.000  H
  H34      1.0000 0.44220  0.26010  0.67780  Biso   1.000  H
  H35      1.0000 0.94220  0.23990  0.32220  Biso   1.000  H
  H36      1.0000 0.05780  0.76010  0.32220  Biso   1.000  H
  C41      1.0000 0.63290  0.77090  0.61670  Biso   1.000  C
  C42      1.0000 0.36710  0.22910  0.61670  Biso   1.000  C
  C43      1.0000 0.86710  0.27090  0.38330  Biso   1.000  C
  C44      1.0000 0.13290  0.72910  0.38330  Biso   1.000  C
  H37      1.0000 0.63990  0.74730  0.56290  Biso   1.000  H
  H38      1.0000 0.36010  0.25270  0.56290  Biso   1.000  H
  H39      1.0000 0.86010  0.24730  0.43710  Biso   1.000  H
  H40      1.0000 0.13990  0.75270  0.43710  Biso   1.000  H
  C45      1.0000 0.66600  0.80930  0.62860  Biso   1.000  C
  C46      1.0000 0.33400  0.19070  0.62860  Biso   1.000  C
  C47      1.0000 0.83400  0.30930  0.37140  Biso   1.000  C
  C48      1.0000 0.16600  0.69070  0.37140  Biso   1.000  C
  C49      1.0000 0.06550  0.58270  0.43400  Biso   1.000  C
  C50      1.0000 0.93450  0.41730  0.43400  Biso   1.000  C
  C51      1.0000 0.43450  0.08270  0.56600  Biso   1.000  C
  C52      1.0000 0.56550  0.91730  0.56600  Biso   1.000  C
  H41      1.0000 0.08650  0.55370  0.43770  Biso   1.000  H
  H42      1.0000 0.91350  0.44630  0.43770  Biso   1.000  H
  H43      1.0000 0.41350  0.05370  0.56230  Biso   1.000  H
  H44      1.0000 0.58650  0.94630  0.56230  Biso   1.000  H
  C53      1.0000 0.07080  0.61590  0.51740  Biso   1.000  C
  C54      1.0000 0.92920  0.38410  0.51740  Biso   1.000  C
  C55      1.0000 0.42920  0.11590  0.48260  Biso   1.000  C
  C56      1.0000 0.57080  0.88410  0.48260  Biso   1.000  C
  H45      1.0000 0.09760  0.61220  0.57080  Biso   1.000  H
  H46      1.0000 0.90240  0.38780  0.57080  Biso   1.000  H
  H47      1.0000 0.40240  0.11220  0.42920  Biso   1.000  H
  H48      1.0000 0.59760  0.88780  0.42920  Biso   1.000  H
  C57      1.0000 0.03320  0.65670  0.51800  Biso   1.000  C
  C58      1.0000 0.96680  0.34330  0.51800  Biso   1.000  C
  C59      1.0000 0.46680  0.15670  0.48200  Biso   1.000  C
  C60      1.0000 0.53320  0.84330  0.48200  Biso   1.000  C
  H49      1.0000 0.03790  0.68400  0.56370  Biso   1.000  H
  H50      1.0000 0.96210  0.31600  0.56370  Biso   1.000  H
  H51      1.0000 0.46210  0.18400  0.43630  Biso   1.000  H
  H52      1.0000 0.53790  0.81600  0.43630  Biso   1.000  H
  C61      1.0000 0.99030  0.65320  0.44940  Biso   1.000  C
  C62      1.0000 0.00970  0.34680  0.44940  Biso   1.000  C
  C63      1.0000 0.50970  0.15320  0.55060  Biso   1.000  C
  C64      1.0000 0.49030  0.84680  0.55060  Biso   1.000  C
  C65      1.0000 0.98820  0.62650  0.35000  Biso   1.000  C
  C66      1.0000 0.01180  0.37350  0.35000  Biso   1.000  C
  C67      1.0000 0.51180  0.12650  0.65000  Biso   1.000  C
  C68      1.0000 0.48820  0.87350  0.65000  Biso   1.000  C
  H53      1.0000 0.96070  0.63440  0.29380  Biso   1.000  H
  H54      1.0000 0.03930  0.36560  0.29380  Biso   1.000  H
  H55      1.0000 0.53930  0.13440  0.70620  Biso   1.000  H
  H56      1.0000 0.46070  0.86560  0.70620  Biso   1.000  H
  C69      1.0000 0.60510  0.98330  0.23880  Biso   1.000  C
  C70      1.0000 0.39490  0.01670  0.23880  Biso   1.000  C
  C71      1.0000 0.89490  0.48330  0.76120  Biso   1.000  C
  C72      1.0000 0.10510  0.51670  0.76120  Biso   1.000  C
  C73      1.0000 0.63890  0.98920  0.32900  Biso   1.000  C
  C74      1.0000 0.36110  0.01080  0.32900  Biso   1.000  C
  C75      1.0000 0.86110  0.48920  0.67100  Biso   1.000  C
  C76      1.0000 0.13890  0.51080  0.67100  Biso   1.000  C
  C77      1.0000 0.62740  0.02610  0.40520  Biso   1.000  C
  C78      1.0000 0.37260  0.97390  0.40520  Biso   1.000  C
  C79      1.0000 0.87260  0.52610  0.59480  Biso   1.000  C
  C80      1.0000 0.12740  0.47390  0.59480  Biso   1.000  C
  C81      1.0000 0.58210  0.05710  0.39100  Biso   1.000  C
  C82      1.0000 0.41790  0.94290  0.39100  Biso   1.000  C
  C83      1.0000 0.91790  0.55710  0.60900  Biso   1.000  C
  C84      1.0000 0.08210  0.44290  0.60900  Biso   1.000  C
  C85      1.0000 0.54820  0.05120  0.30100  Biso   1.000  C
  C86      1.0000 0.45180  0.94880  0.30100  Biso   1.000  C
  C87      1.0000 0.95180  0.55120  0.69900  Biso   1.000  C
  C88      1.0000 0.04820  0.44880  0.69900  Biso   1.000  C
  N1       1.0000 0.55970  0.01430  0.22470  Biso   1.000  N
  N2       1.0000 0.44030  0.98570  0.22470  Biso   1.000  N
  N3       1.0000 0.94030  0.51430  0.77530  Biso   1.000  N
  N4       1.0000 0.05970  0.48570  0.77530  Biso   1.000  N
  C89      1.0000 0.81300  0.62630  0.08600  Biso   1.000  C
  C90      1.0000 0.18700  0.37370  0.08600  Biso   1.000  C
  C91      1.0000 0.68700  0.12630  0.91400  Biso   1.000  C
  C92      1.0000 0.31300  0.87370  0.91400  Biso   1.000  C
  H57      1.0000 0.78930  0.61460  0.14260  Biso   1.000  H
  H58      1.0000 0.21070  0.38540  0.14260  Biso   1.000  H
  H59      1.0000 0.71070  0.11460  0.85740  Biso   1.000  H
  H60      1.0000 0.28930  0.88540  0.85740  Biso   1.000  H
  H61      1.0000 0.82900  0.59830  0.04860  Biso   1.000  H
  H62      1.0000 0.17100  0.40170  0.04860  Biso   1.000  H
  H63      1.0000 0.67100  0.09830  0.95140  Biso   1.000  H
  H64      1.0000 0.32900  0.90170  0.95140  Biso   1.000  H
  H65      1.0000 0.79190  0.64580  0.03490  Biso   1.000  H
  H66      1.0000 0.20810  0.35420  0.03490  Biso   1.000  H
  H67      1.0000 0.70810  0.14580  0.96510  Biso   1.000  H
  H68      1.0000 0.29190  0.85420  0.96510  Biso   1.000  H
  C93      1.0000 0.86000  0.65950  0.13560  Biso   1.000  C
  C94      1.0000 0.14000  0.34050  0.13560  Biso   1.000  C
  C95      1.0000 0.64000  0.15950  0.86440  Biso   1.000  C
  C96      1.0000 0.36000  0.84050  0.86440  Biso   1.000  C
  H69      1.0000 0.87980  0.63890  0.18850  Biso   1.000  H
  H70      1.0000 0.12020  0.36110  0.18850  Biso   1.000  H
  H71      1.0000 0.62020  0.13890  0.81150  Biso   1.000  H
  H72      1.0000 0.37980  0.86110  0.81150  Biso   1.000  H
  C97      1.0000 0.90260  0.68030  0.05600  Biso   1.000  C
  C98      1.0000 0.09740  0.31970  0.05600  Biso   1.000  C
  C99      1.0000 0.59740  0.18030  0.94400  Biso   1.000  C
  C100     1.0000 0.40260  0.81970  0.94400  Biso   1.000  C
  H73      1.0000 0.92900  0.70000  0.09560  Biso   1.000  H
  H74      1.0000 0.07100  0.30000  0.09560  Biso   1.000  H
  H75      1.0000 0.57100  0.20000  0.90440  Biso   1.000  H
  H76      1.0000 0.42900  0.80000  0.90440  Biso   1.000  H
  H77      1.0000 0.88460  0.70080  0.00320  Biso   1.000  H
  H78      1.0000 0.11540  0.29920  0.00320  Biso   1.000  H
  H79      1.0000 0.61540  0.20080  0.99680  Biso   1.000  H
  H80      1.0000 0.38460  0.79920  0.99680  Biso   1.000  H
  H81      1.0000 0.92110  0.65320  0.02060  Biso   1.000  H
  H82      1.0000 0.07890  0.34680  0.02060  Biso   1.000  H
  H83      1.0000 0.57890  0.15320  0.97940  Biso   1.000  H
  H84      1.0000 0.42110  0.84680  0.97940  Biso   1.000  H
  C101     1.0000 0.80130  0.61410  0.42800  Biso   1.000  C
  C102     1.0000 0.19870  0.38590  0.42800  Biso   1.000  C
  C103     1.0000 0.69870  0.11410  0.57200  Biso   1.000  C
  C104     1.0000 0.30130  0.88590  0.57200  Biso   1.000  C
  H85      1.0000 0.77970  0.58440  0.41790  Biso   1.000  H
  H86      1.0000 0.22030  0.41560  0.41790  Biso   1.000  H
  H87      1.0000 0.72030  0.08440  0.58210  Biso   1.000  H
  H88      1.0000 0.27970  0.91560  0.58210  Biso   1.000  H
  H89      1.0000 0.81230  0.61640  0.50310  Biso   1.000  H
  H90      1.0000 0.18770  0.38360  0.50310  Biso   1.000  H
  H91      1.0000 0.68770  0.11640  0.49690  Biso   1.000  H
  H92      1.0000 0.31230  0.88360  0.49690  Biso   1.000  H
  H93      1.0000 0.83350  0.61260  0.38300  Biso   1.000  H
  H94      1.0000 0.16650  0.38740  0.38300  Biso   1.000  H
  H95      1.0000 0.66650  0.11260  0.61700  Biso   1.000  H
  H96      1.0000 0.33350  0.88740  0.61700  Biso   1.000  H
  C105     1.0000 0.76890  0.65750  0.39940  Biso   1.000  C
  C106     1.0000 0.23110  0.34250  0.39940  Biso   1.000  C
  C107     1.0000 0.73110  0.15750  0.60060  Biso   1.000  C
  C108     1.0000 0.26890  0.84250  0.60060  Biso   1.000  C
  H97      1.0000 0.76540  0.65510  0.32020  Biso   1.000  H
  H98      1.0000 0.23460  0.34490  0.32020  Biso   1.000  H
  H99      1.0000 0.73460  0.15510  0.67980  Biso   1.000  H
  H100     1.0000 0.26540  0.84490  0.67980  Biso   1.000  H
  C109     1.0000 0.71340  0.66480  0.43600  Biso   1.000  C
  C110     1.0000 0.28660  0.33520  0.43600  Biso   1.000  C
  C111     1.0000 0.78660  0.16480  0.56400  Biso   1.000  C
  C112     1.0000 0.21340  0.83520  0.56400  Biso   1.000  C
  H101     1.0000 0.69890  0.69480  0.40440  Biso   1.000  H
  H102     1.0000 0.30110  0.30520  0.40440  Biso   1.000  H
  H103     1.0000 0.80110  0.19480  0.59560  Biso   1.000  H
  H104     1.0000 0.19890  0.80520  0.59560  Biso   1.000  H
  H105     1.0000 0.71300  0.66760  0.51370  Biso   1.000  H
  H106     1.0000 0.28700  0.33240  0.51370  Biso   1.000  H
  H107     1.0000 0.78700  0.16760  0.48630  Biso   1.000  H
  H108     1.0000 0.21300  0.83240  0.48630  Biso   1.000  H
  H109     1.0000 0.69130  0.63690  0.41400  Biso   1.000  H
  H110     1.0000 0.30870  0.36310  0.41400  Biso   1.000  H
  H111     1.0000 0.80870  0.13690  0.58600  Biso   1.000  H
  H112     1.0000 0.19130  0.86310  0.58600  Biso   1.000  H
  C113     1.0000 0.80200  0.62340  0.76200  Biso   1.000  C
  C114     1.0000 0.19800  0.37660  0.76200  Biso   1.000  C
  C115     1.0000 0.69800  0.12340  0.23800  Biso   1.000  C
  C116     1.0000 0.30200  0.87660  0.23800  Biso   1.000  C
  H113     1.0000 0.83520  0.61820  0.72270  Biso   1.000  H
  H114     1.0000 0.16480  0.38180  0.72270  Biso   1.000  H
  H115     1.0000 0.66480  0.11820  0.27730  Biso   1.000  H
  H116     1.0000 0.33520  0.88180  0.27730  Biso   1.000  H
  H117     1.0000 0.77280  0.60370  0.72990  Biso   1.000  H
  H118     1.0000 0.22720  0.39630  0.72990  Biso   1.000  H
  H119     1.0000 0.72720  0.10370  0.27010  Biso   1.000  H
  H120     1.0000 0.27280  0.89630  0.27010  Biso   1.000  H
  H121     1.0000 0.80650  0.61370  0.83640  Biso   1.000  H
  H122     1.0000 0.19350  0.38630  0.83640  Biso   1.000  H
  H123     1.0000 0.69350  0.11370  0.16360  Biso   1.000  H
  H124     1.0000 0.30650  0.88630  0.16360  Biso   1.000  H
  C117     1.0000 0.78800  0.67090  0.75700  Biso   1.000  C
  C118     1.0000 0.21200  0.32910  0.75700  Biso   1.000  C
  C119     1.0000 0.71200  0.17090  0.24300  Biso   1.000  C
  C120     1.0000 0.28800  0.82910  0.24300  Biso   1.000  C
  C121     1.0000 0.73490  0.69900  0.79500  Biso   1.000  C
  C122     1.0000 0.26510  0.30100  0.79500  Biso   1.000  C
  C123     1.0000 0.76510  0.19900  0.20500  Biso   1.000  C
  C124     1.0000 0.23490  0.80100  0.20500  Biso   1.000  C
  H125     1.0000 0.72080  0.68360  0.85970  Biso   1.000  H
  H126     1.0000 0.27920  0.31640  0.85970  Biso   1.000  H
  H127     1.0000 0.77920  0.18360  0.14030  Biso   1.000  H
  H128     1.0000 0.22080  0.81640  0.14030  Biso   1.000  H
  H129     1.0000 0.70760  0.69740  0.73860  Biso   1.000  H
  H130     1.0000 0.29240  0.30260  0.73860  Biso   1.000  H
  H131     1.0000 0.79240  0.19740  0.26140  Biso   1.000  H
  H132     1.0000 0.20760  0.80260  0.26140  Biso   1.000  H
  H133     1.0000 0.74370  0.73330  0.80990  Biso   1.000  H
  H134     1.0000 0.25630  0.26670  0.80990  Biso   1.000  H
  H135     1.0000 0.75630  0.23330  0.19010  Biso   1.000  H
  H136     1.0000 0.24370  0.76670  0.19010  Biso   1.000  H
  C125     1.0000 0.93100  0.75680  0.77570  Biso   1.000  C
  C126     1.0000 0.06900  0.24320  0.77570  Biso   1.000  C
  C127     1.0000 0.56900  0.25680  0.22430  Biso   1.000  C
  C128     1.0000 0.43100  0.74320  0.22430  Biso   1.000  C
  H137     1.0000 0.92850  0.72350  0.74730  Biso   1.000  H
  H138     1.0000 0.07150  0.27650  0.74730  Biso   1.000  H
  H139     1.0000 0.57150  0.22350  0.25270  Biso   1.000  H
  H140     1.0000 0.42850  0.77650  0.25270  Biso   1.000  H
  H141     1.0000 0.93370  0.75550  0.85350  Biso   1.000  H
  H142     1.0000 0.06630  0.24450  0.85350  Biso   1.000  H
  H143     1.0000 0.56630  0.25550  0.14650  Biso   1.000  H
  H144     1.0000 0.43370  0.74450  0.14650  Biso   1.000  H
  H145     1.0000 0.96310  0.77290  0.74650  Biso   1.000  H
  H146     1.0000 0.03690  0.22710  0.74650  Biso   1.000  H
  H147     1.0000 0.53690  0.27290  0.25350  Biso   1.000  H
  H148     1.0000 0.46310  0.72710  0.25350  Biso   1.000  H
  C129     1.0000 0.88050  0.78580  0.74390  Biso   1.000  C
  C130     1.0000 0.11950  0.21420  0.74390  Biso   1.000  C
  C131     1.0000 0.61950  0.28580  0.25610  Biso   1.000  C
  C132     1.0000 0.38050  0.71420  0.25610  Biso   1.000  C
  H149     1.0000 0.84950  0.76770  0.77600  Biso   1.000  H
  H150     1.0000 0.15050  0.23230  0.77600  Biso   1.000  H
  H151     1.0000 0.65050  0.26770  0.22400  Biso   1.000  H
  H152     1.0000 0.34950  0.73230  0.22400  Biso   1.000  H
  C133     1.0000 0.87410  0.83770  0.77930  Biso   1.000  C
  C134     1.0000 0.12590  0.16230  0.77930  Biso   1.000  C
  C135     1.0000 0.62590  0.33770  0.22070  Biso   1.000  C
  C136     1.0000 0.37410  0.66230  0.22070  Biso   1.000  C
  H153     1.0000 0.83920  0.85030  0.75490  Biso   1.000  H
  H154     1.0000 0.16080  0.14970  0.75490  Biso   1.000  H
  H155     1.0000 0.66080  0.35030  0.24510  Biso   1.000  H
  H156     1.0000 0.33920  0.64970  0.24510  Biso   1.000  H
  H157     1.0000 0.90310  0.85770  0.74910  Biso   1.000  H
  H158     1.0000 0.09690  0.14230  0.74910  Biso   1.000  H
  H159     1.0000 0.59690  0.35770  0.25090  Biso   1.000  H
  H160     1.0000 0.40310  0.64230  0.25090  Biso   1.000  H
  H161     1.0000 0.87570  0.83930  0.85730  Biso   1.000  H
  H162     1.0000 0.12430  0.16070  0.85730  Biso   1.000  H
  H163     1.0000 0.62430  0.33930  0.14270  Biso   1.000  H
  H164     1.0000 0.37570  0.66070  0.14270  Biso   1.000  H
  C137     1.0000 0.02030  0.86590  0.62100  Biso   1.000  C
  C138     1.0000 0.97970  0.13410  0.62100  Biso   1.000  C
  C139     1.0000 0.47970  0.36590  0.37900  Biso   1.000  C
  C140     1.0000 0.52030  0.63410  0.37900  Biso   1.000  C
  C141     1.0000 0.70920  0.89540  0.00230  Biso   1.000  C
  C142     1.0000 0.29080  0.10460  0.00230  Biso   1.000  C
  C143     1.0000 0.79080  0.39540  0.99770  Biso   1.000  C
  C144     1.0000 0.20920  0.60460  0.99770  Biso   1.000  C
  H165     1.0000 0.71080  0.92970  0.02440  Biso   1.000  H
  H166     1.0000 0.28920  0.07030  0.02440  Biso   1.000  H
  H167     1.0000 0.78920  0.42970  0.97560  Biso   1.000  H
  H168     1.0000 0.21080  0.57030  0.97560  Biso   1.000  H
  H169     1.0000 0.67750  0.87980  0.03410  Biso   1.000  H
  H170     1.0000 0.32250  0.12020  0.03410  Biso   1.000  H
  H171     1.0000 0.82250  0.37980  0.96590  Biso   1.000  H
  H172     1.0000 0.17750  0.62020  0.96590  Biso   1.000  H
  H173     1.0000 0.70670  0.89360  0.92450  Biso   1.000  H
  H174     1.0000 0.29330  0.10640  0.92450  Biso   1.000  H
  H175     1.0000 0.79330  0.39360  0.07550  Biso   1.000  H
  H176     1.0000 0.20670  0.60640  0.07550  Biso   1.000  H
  C145     1.0000 0.75950  0.86850  0.03910  Biso   1.000  C
  C146     1.0000 0.24050  0.13150  0.03910  Biso   1.000  C
  C147     1.0000 0.74050  0.36850  0.96090  Biso   1.000  C
  C148     1.0000 0.25950  0.63150  0.96090  Biso   1.000  C
  H177     1.0000 0.79100  0.88620  0.00800  Biso   1.000  H
  H178     1.0000 0.20900  0.11380  0.00800  Biso   1.000  H
  H179     1.0000 0.70900  0.38620  0.99200  Biso   1.000  H
  H180     1.0000 0.29100  0.61380  0.99200  Biso   1.000  H
  C149     1.0000 0.76770  0.81280  0.01380  Biso   1.000  C
  C150     1.0000 0.23230  0.18720  0.01380  Biso   1.000  C
  C151     1.0000 0.73230  0.31280  0.98620  Biso   1.000  C
  C152     1.0000 0.26770  0.68720  0.98620  Biso   1.000  C
  H181     1.0000 0.76640  0.80730  0.93670  Biso   1.000  H
  H182     1.0000 0.23360  0.19270  0.93670  Biso   1.000  H
  H183     1.0000 0.73360  0.30730  0.06330  Biso   1.000  H
  H184     1.0000 0.26640  0.69270  0.06330  Biso   1.000  H
  H185     1.0000 0.73890  0.79400  0.04830  Biso   1.000  H
  H186     1.0000 0.26110  0.20600  0.04830  Biso   1.000  H
  H187     1.0000 0.76110  0.29400  0.95170  Biso   1.000  H
  H188     1.0000 0.23890  0.70600  0.95170  Biso   1.000  H
  H189     1.0000 0.80270  0.80220  0.04140  Biso   1.000  H
  H190     1.0000 0.19730  0.19780  0.04140  Biso   1.000  H
  H191     1.0000 0.69730  0.30220  0.95860  Biso   1.000  H
  H192     1.0000 0.30270  0.69780  0.95860  Biso   1.000  H
  C153     1.0000 0.63400  0.79300  0.18100  Biso   1.000  C
  C154     1.0000 0.36600  0.20700  0.18100  Biso   1.000  C
  C155     1.0000 0.86600  0.29300  0.81900  Biso   1.000  C
  C156     1.0000 0.13400  0.70700  0.81900  Biso   1.000  C
  C157     1.0000 0.58100  0.81400  0.22700  Biso   1.000  C
  C158     1.0000 0.41900  0.18600  0.22700  Biso   1.000  C
  C159     1.0000 0.91900  0.31400  0.77300  Biso   1.000  C
  C160     1.0000 0.08100  0.68600  0.77300  Biso   1.000  C
  C161     1.0000 0.74370  0.97670  0.73600  Biso   1.000  C
  C162     1.0000 0.25630  0.02330  0.73600  Biso   1.000  C
  C163     1.0000 0.75630  0.47670  0.26400  Biso   1.000  C
  C164     1.0000 0.24370  0.52330  0.26400  Biso   1.000  C
  H193     1.0000 0.71390  0.95950  0.70110  Biso   1.000  H
  H194     1.0000 0.28610  0.04050  0.70110  Biso   1.000  H
  H195     1.0000 0.78610  0.45950  0.29890  Biso   1.000  H
  H196     1.0000 0.21390  0.54050  0.29890  Biso   1.000  H
  H197     1.0000 0.72950  0.00470  0.77610  Biso   1.000  H
  H198     1.0000 0.27050  0.99530  0.77610  Biso   1.000  H
  H199     1.0000 0.77050  0.50470  0.22390  Biso   1.000  H
  H200     1.0000 0.22950  0.49530  0.22390  Biso   1.000  H
  H201     1.0000 0.76210  0.95430  0.78530  Biso   1.000  H
  H202     1.0000 0.23790  0.04570  0.78530  Biso   1.000  H
  H203     1.0000 0.73790  0.45430  0.21470  Biso   1.000  H
  H204     1.0000 0.26210  0.54570  0.21470  Biso   1.000  H
  C165     1.0000 0.77840  0.99460  0.66140  Biso   1.000  C
  C166     1.0000 0.22160  0.00540  0.66140  Biso   1.000  C
  C167     1.0000 0.72160  0.49460  0.33860  Biso   1.000  C
  C168     1.0000 0.27840  0.50540  0.33860  Biso   1.000  C
  H205     1.0000 0.75720  0.01800  0.61660  Biso   1.000  H
  H206     1.0000 0.24280  0.98200  0.61660  Biso   1.000  H
  H207     1.0000 0.74280  0.51800  0.38340  Biso   1.000  H
  H208     1.0000 0.25720  0.48200  0.38340  Biso   1.000  H
  C169     1.0000 0.82270  0.02260  0.70800  Biso   1.000  C
  C170     1.0000 0.17730  0.97740  0.70800  Biso   1.000  C
  C171     1.0000 0.67730  0.52260  0.29200  Biso   1.000  C
  C172     1.0000 0.32270  0.47740  0.29200  Biso   1.000  C
  H209     1.0000 0.84590  0.03530  0.65110  Biso   1.000  H
  H210     1.0000 0.15410  0.96470  0.65110  Biso   1.000  H
  H211     1.0000 0.65410  0.53530  0.34890  Biso   1.000  H
  H212     1.0000 0.34590  0.46470  0.34890  Biso   1.000  H
  H213     1.0000 0.84400  0.00130  0.75470  Biso   1.000  H
  H214     1.0000 0.15600  0.99870  0.75470  Biso   1.000  H
  H215     1.0000 0.65600  0.50130  0.24530  Biso   1.000  H
  H216     1.0000 0.34400  0.49870  0.24530  Biso   1.000  H
  H217     1.0000 0.80820  0.04990  0.74950  Biso   1.000  H
  H218     1.0000 0.19180  0.95010  0.74950  Biso   1.000  H
  H219     1.0000 0.69180  0.54990  0.25050  Biso   1.000  H
  H220     1.0000 0.30820  0.45010  0.25050  Biso   1.000  H
  C173     1.0000 0.92320  0.98950  0.35300  Biso   1.000  C
  C174     1.0000 0.07680  0.01050  0.35300  Biso   1.000  C
  C175     1.0000 0.57680  0.48950  0.64700  Biso   1.000  C
  C176     1.0000 0.42320  0.51050  0.64700  Biso   1.000  C
  H221     1.0000 0.94610  0.01770  0.37030  Biso   1.000  H
  H222     1.0000 0.05390  0.98230  0.37030  Biso   1.000  H
  H223     1.0000 0.55390  0.51770  0.62970  Biso   1.000  H
  H224     1.0000 0.44610  0.48230  0.62970  Biso   1.000  H
  H225     1.0000 0.92040  0.98600  0.27600  Biso   1.000  H
  H226     1.0000 0.07960  0.01400  0.27600  Biso   1.000  H
  H227     1.0000 0.57960  0.48600  0.72400  Biso   1.000  H
  H228     1.0000 0.42040  0.51400  0.72400  Biso   1.000  H
  H229     1.0000 0.93910  0.95980  0.38390  Biso   1.000  H
  H230     1.0000 0.06090  0.04020  0.38390  Biso   1.000  H
  H231     1.0000 0.56090  0.45980  0.61610  Biso   1.000  H
  H232     1.0000 0.43910  0.54020  0.61610  Biso   1.000  H
  C177     1.0000 0.87210  0.99670  0.39620  Biso   1.000  C
  C178     1.0000 0.12790  0.00330  0.39620  Biso   1.000  C
  C179     1.0000 0.62790  0.49670  0.60380  Biso   1.000  C
  C180     1.0000 0.37210  0.50330  0.60380  Biso   1.000  C
  H233     1.0000 0.87730  0.99660  0.47530  Biso   1.000  H
  H234     1.0000 0.12270  0.00340  0.47530  Biso   1.000  H
  H235     1.0000 0.62270  0.49660  0.52470  Biso   1.000  H
  H236     1.0000 0.37730  0.50340  0.52470  Biso   1.000  H
  C181     1.0000 0.84130  0.04210  0.37260  Biso   1.000  C
  C182     1.0000 0.15870  0.95790  0.37260  Biso   1.000  C
  C183     1.0000 0.65870  0.54210  0.62740  Biso   1.000  C
  C184     1.0000 0.34130  0.45790  0.62740  Biso   1.000  C
  H237     1.0000 0.80690  0.04150  0.41080  Biso   1.000  H
  H238     1.0000 0.19310  0.95850  0.41080  Biso   1.000  H
  H239     1.0000 0.69310  0.54150  0.58920  Biso   1.000  H
  H240     1.0000 0.30690  0.45850  0.58920  Biso   1.000  H
  H241     1.0000 0.83450  0.04430  0.29580  Biso   1.000  H
  H242     1.0000 0.16550  0.95570  0.29580  Biso   1.000  H
  H243     1.0000 0.66550  0.54430  0.70420  Biso   1.000  H
  H244     1.0000 0.33450  0.45570  0.70420  Biso   1.000  H
  H245     1.0000 0.86230  0.07070  0.39550  Biso   1.000  H
  H246     1.0000 0.13770  0.92930  0.39550  Biso   1.000  H
  H247     1.0000 0.63770  0.57070  0.60450  Biso   1.000  H
  H248     1.0000 0.36230  0.42930  0.60450  Biso   1.000  H
  C185     1.0000 0.89130  0.99180  0.00100  Biso   1.000  C
  C186     1.0000 0.10870  0.00820  0.00100  Biso   1.000  C
  C187     1.0000 0.60870  0.49180  0.99900  Biso   1.000  C
  C188     1.0000 0.39130  0.50820  0.99900  Biso   1.000  C
  H249     1.0000 0.89510  0.01260  0.93830  Biso   1.000  H
  H250     1.0000 0.10490  0.98740  0.93830  Biso   1.000  H
  H251     1.0000 0.60490  0.51260  0.06170  Biso   1.000  H
  H252     1.0000 0.39510  0.48740  0.06170  Biso   1.000  H
  H253     1.0000 0.89800  0.95760  0.98170  Biso   1.000  H
  H254     1.0000 0.10200  0.04240  0.98170  Biso   1.000  H
  H255     1.0000 0.60200  0.45760  0.01830  Biso   1.000  H
  H256     1.0000 0.39800  0.54240  0.01830  Biso   1.000  H
  H257     1.0000 0.91760  0.00190  0.05550  Biso   1.000  H
  H258     1.0000 0.08240  0.99810  0.05550  Biso   1.000  H
  H259     1.0000 0.58240  0.50190  0.94450  Biso   1.000  H
  H260     1.0000 0.41760  0.49810  0.94450  Biso   1.000  H
  C189     1.0000 0.83970  0.99630  0.04200  Biso   1.000  C
  C190     1.0000 0.16030  0.00370  0.04200  Biso   1.000  C
  C191     1.0000 0.66030  0.49630  0.95800  Biso   1.000  C
  C192     1.0000 0.33970  0.50370  0.95800  Biso   1.000  C
  C193     1.0000 0.80110  0.03280  0.03500  Biso   1.000  C
  C194     1.0000 0.19890  0.96720  0.03500  Biso   1.000  C
  C195     1.0000 0.69890  0.53280  0.96500  Biso   1.000  C
  C196     1.0000 0.30110  0.46720  0.96500  Biso   1.000  C
  H261     1.0000 0.76640  0.02020  0.06010  Biso   1.000  H
  H262     1.0000 0.23360  0.97980  0.06010  Biso   1.000  H
  H263     1.0000 0.73360  0.52020  0.93990  Biso   1.000  H
  H264     1.0000 0.26640  0.47980  0.93990  Biso   1.000  H
  H265     1.0000 0.79760  0.04320  0.96040  Biso   1.000  H
  H266     1.0000 0.20240  0.95680  0.96040  Biso   1.000  H
  H267     1.0000 0.70240  0.54320  0.03960  Biso   1.000  H
  H268     1.0000 0.29760  0.45680  0.03960  Biso   1.000  H
  H269     1.0000 0.81200  0.06070  0.07870  Biso   1.000  H
  H270     1.0000 0.18800  0.93930  0.07870  Biso   1.000  H
  H271     1.0000 0.68800  0.56070  0.92130  Biso   1.000  H
  H272     1.0000 0.31200  0.43930  0.92130  Biso   1.000  H
  N5       1.0000 0.02780  0.58890  0.33300  Biso   1.000  N
  N6       1.0000 0.97220  0.41110  0.33300  Biso   1.000  N
  N7       1.0000 0.47220  0.08890  0.66700  Biso   1.000  N
  N8       1.0000 0.52780  0.91110  0.66700  Biso   1.000  N
  O1       1.0000 0.85740  0.77720  0.43500  Biso   1.000  O
  O2       1.0000 0.14260  0.22280  0.43500  Biso   1.000  O
  O3       1.0000 0.64260  0.27720  0.56500  Biso   1.000  O
  O4       1.0000 0.35740  0.72280  0.56500  Biso   1.000  O
  O5       1.0000 0.86320  0.87710  0.52290  Biso   1.000  O
  O6       1.0000 0.13680  0.12290  0.52290  Biso   1.000  O
  O7       1.0000 0.63680  0.37710  0.47710  Biso   1.000  O
  O8       1.0000 0.36320  0.62290  0.47710  Biso   1.000  O
  O9       1.0000 0.77510  0.78100  0.26890  Biso   1.000  O
  O10      1.0000 0.22490  0.21900  0.26890  Biso   1.000  O
  O11      1.0000 0.72490  0.28100  0.73110  Biso   1.000  O
  O12      1.0000 0.27510  0.71900  0.73110  Biso   1.000  O
  O13      1.0000 0.77850  0.87970  0.35360  Biso   1.000  O
  O14      1.0000 0.22150  0.12030  0.35360  Biso   1.000  O
  O15      1.0000 0.72150  0.37970  0.64640  Biso   1.000  O
  O16      1.0000 0.27850  0.62030  0.64640  Biso   1.000  O
  O17      1.0000 0.93630  0.84290  0.36580  Biso   1.000  O
  O18      1.0000 0.06370  0.15710  0.36580  Biso   1.000  O
  O19      1.0000 0.56370  0.34290  0.63420  Biso   1.000  O
  O20      1.0000 0.43630  0.65710  0.63420  Biso   1.000  O
  O21      1.0000 0.88760  0.79000  0.22060  Biso   1.000  O
  O22      1.0000 0.11240  0.21000  0.22060  Biso   1.000  O
  O23      1.0000 0.61240  0.29000  0.77940  Biso   1.000  O
  O24      1.0000 0.38760  0.71000  0.77940  Biso   1.000  O
  O25      1.0000 0.87710  0.88380  0.22370  Biso   1.000  O
  O26      1.0000 0.12290  0.11620  0.22370  Biso   1.000  O
  O27      1.0000 0.62290  0.38380  0.77630  Biso   1.000  O
  O28      1.0000 0.37710  0.61620  0.77630  Biso   1.000  O
  O29      1.0000 0.75970  0.77560  0.56600  Biso   1.000  O
  O30      1.0000 0.24030  0.22440  0.56600  Biso   1.000  O
  O31      1.0000 0.74030  0.27560  0.43400  Biso   1.000  O
  O32      1.0000 0.25970  0.72440  0.43400  Biso   1.000  O
  O33      1.0000 0.74790  0.86790  0.56410  Biso   1.000  O
  O34      1.0000 0.25210  0.13210  0.56410  Biso   1.000  O
  O35      1.0000 0.75210  0.36790  0.43590  Biso   1.000  O
  O36      1.0000 0.24790  0.63210  0.43590  Biso   1.000  O
  O37      1.0000 0.69950  0.81430  0.42320  Biso   1.000  O
  O38      1.0000 0.30050  0.18570  0.42320  Biso   1.000  O
  O39      1.0000 0.80050  0.31430  0.57680  Biso   1.000  O
  O40      1.0000 0.19950  0.68570  0.57680  Biso   1.000  O
  O41      1.0000 0.89810  0.68830  0.53300  Biso   1.000  O
  O42      1.0000 0.10190  0.31170  0.53300  Biso   1.000  O
  O43      1.0000 0.60190  0.18830  0.46700  Biso   1.000  O
  O44      1.0000 0.39810  0.81170  0.46700  Biso   1.000  O
  O45      1.0000 0.91640  0.70280  0.33940  Biso   1.000  O
  O46      1.0000 0.08360  0.29720  0.33940  Biso   1.000  O
  O47      1.0000 0.58360  0.20280  0.66060  Biso   1.000  O
  O48      1.0000 0.41640  0.79720  0.66060  Biso   1.000  O
  O49      1.0000 0.96720  0.74940  0.47650  Biso   1.000  O
  O50      1.0000 0.03280  0.25060  0.47650  Biso   1.000  O
  O51      1.0000 0.53280  0.24940  0.52350  Biso   1.000  O
  O52      1.0000 0.46720  0.75060  0.52350  Biso   1.000  O
  O53      1.0000 0.67060  0.90180  0.29800  Biso   1.000  O
  O54      1.0000 0.32940  0.09820  0.29800  Biso   1.000  O
  O55      1.0000 0.82940  0.40180  0.70200  Biso   1.000  O
  O56      1.0000 0.17060  0.59820  0.70200  Biso   1.000  O
  O57      1.0000 0.73640  0.96690  0.25190  Biso   1.000  O
  O58      1.0000 0.26360  0.03310  0.25190  Biso   1.000  O
  O59      1.0000 0.76360  0.46690  0.74810  Biso   1.000  O
  O60      1.0000 0.23640  0.53310  0.74810  Biso   1.000  O
  O61      1.0000 0.70780  0.95550  0.43900  Biso   1.000  O
  O62      1.0000 0.29220  0.04450  0.43900  Biso   1.000  O
  O63      1.0000 0.79220  0.45550  0.56100  Biso   1.000  O
  O64      1.0000 0.20780  0.54450  0.56100  Biso   1.000  O
  O65      1.0000 0.83400  0.69880  0.19440  Biso   1.000  O
  O66      1.0000 0.16600  0.30120  0.19440  Biso   1.000  O
  O67      1.0000 0.66600  0.19880  0.80560  Biso   1.000  O
  O68      1.0000 0.33400  0.80120  0.80560  Biso   1.000  O
  O69      1.0000 0.80230  0.70170  0.41530  Biso   1.000  O
  O70      1.0000 0.19770  0.29830  0.41530  Biso   1.000  O
  O71      1.0000 0.69770  0.20170  0.58470  Biso   1.000  O
  O72      1.0000 0.30230  0.79830  0.58470  Biso   1.000  O
  O73      1.0000 0.80530  0.69500  0.65810  Biso   1.000  O
  O74      1.0000 0.19470  0.30500  0.65810  Biso   1.000  O
  O75      1.0000 0.69470  0.19500  0.34190  Biso   1.000  O
  O76      1.0000 0.30530  0.80500  0.34190  Biso   1.000  O
  O77      1.0000 0.87300  0.78250  0.63090  Biso   1.000  O
  O78      1.0000 0.12700  0.21750  0.63090  Biso   1.000  O
  O79      1.0000 0.62700  0.28250  0.36910  Biso   1.000  O
  O80      1.0000 0.37300  0.71750  0.36910  Biso   1.000  O
  O81      1.0000 0.96730  0.84390  0.57850  Biso   1.000  O
  O82      1.0000 0.03270  0.15610  0.57850  Biso   1.000  O
  O83      1.0000 0.53270  0.34390  0.42150  Biso   1.000  O
  O84      1.0000 0.46730  0.65610  0.42150  Biso   1.000  O
  O85      1.0000 0.76390  0.87270  0.15870  Biso   1.000  O
  O86      1.0000 0.23610  0.12730  0.15870  Biso   1.000  O
  O87      1.0000 0.73610  0.37270  0.84130  Biso   1.000  O
  O88      1.0000 0.26390  0.62730  0.84130  Biso   1.000  O
  O89      1.0000 0.66750  0.81090  0.21810  Biso   1.000  O
  O90      1.0000 0.33250  0.18910  0.21810  Biso   1.000  O
  O91      1.0000 0.83250  0.31090  0.78190  Biso   1.000  O
  O92      1.0000 0.16750  0.68910  0.78190  Biso   1.000  O
  O93      1.0000 0.80060  0.95810  0.58910  Biso   1.000  O
  O94      1.0000 0.19940  0.04190  0.58910  Biso   1.000  O
  O95      1.0000 0.69940  0.45810  0.41090  Biso   1.000  O
  O96      1.0000 0.30060  0.54190  0.41090  Biso   1.000  O
  O97      1.0000 0.83520  0.95490  0.37340  Biso   1.000  O
  O98      1.0000 0.16480  0.04510  0.37340  Biso   1.000  O
  O99      1.0000 0.66480  0.45490  0.62660  Biso   1.000  O
  O100     1.0000 0.33520  0.54510  0.62660  Biso   1.000  O
  O101     1.0000 0.82910  0.96410  0.13450  Biso   1.000  O
  O102     1.0000 0.17090  0.03590  0.13450  Biso   1.000  O
  O103     1.0000 0.67090  0.46410  0.86550  Biso   1.000  O
  O104     1.0000 0.32910  0.53590  0.86550  Biso   1.000  O
  C197     1.0000 0.63700  0.71900  0.15900  Biso   1.000  C
  C198     1.0000 0.36300  0.28100  0.15900  Biso   1.000  C
  C199     1.0000 0.86300  0.21900  0.84100  Biso   1.000  C
  C200     1.0000 0.13700  0.78100  0.84100  Biso   1.000  C
  Cu1      1.0000 0.00000  0.50000  0.33290  Biso   1.000  Cu
  Cu2      1.0000 0.50000  0.00000  0.66710  Biso   1.000  Cu
  Cu3      1.0000 0.50000  0.00000  0.10060  Biso   1.000  Cu
  Cu4      1.0000 0.00000  0.50000  0.89940  Biso   1.000  Cu
  Br1      1.0000 0.47108  0.07961  0.99360  Biso   1.000  Br
  Br2      1.0000 0.52892  0.92039  0.99360  Biso   1.000  Br
  Br3      1.0000 0.02892  0.57961  0.00640  Biso   1.000  Br
  Br4      1.0000 0.97108  0.42039  0.00640  Biso   1.000  Br
  C201     1.0000 0.61920  0.99240  0.16650  Biso   1.000  C
  C202     1.0000 0.38080  0.00760  0.16650  Biso   1.000  C
  C203     1.0000 0.88080  0.49240  0.83350  Biso   1.000  C
  C204     1.0000 0.11920  0.50760  0.83350  Biso   1.000  C
  C205     1.0000 0.63850  0.99600  0.27260  Biso   1.000  C
  C206     1.0000 0.36150  0.00400  0.27260  Biso   1.000  C
  C207     1.0000 0.86150  0.49600  0.72740  Biso   1.000  C
  C208     1.0000 0.13850  0.50400  0.72740  Biso   1.000  C
  C209     1.0000 0.61900  0.03340  0.34070  Biso   1.000  C
  C210     1.0000 0.38100  0.96660  0.34070  Biso   1.000  C
  C211     1.0000 0.88100  0.53340  0.65930  Biso   1.000  C
  C212     1.0000 0.11900  0.46660  0.65930  Biso   1.000  C
  C213     1.0000 0.58000  0.06720  0.30300  Biso   1.000  C
  C214     1.0000 0.42000  0.93280  0.30300  Biso   1.000  C
  C215     1.0000 0.92000  0.56720  0.69700  Biso   1.000  C
  C216     1.0000 0.08000  0.43280  0.69700  Biso   1.000  C
  C217     1.0000 0.56060  0.06360  0.19700  Biso   1.000  C
  C218     1.0000 0.43940  0.93640  0.19700  Biso   1.000  C
  C219     1.0000 0.93940  0.56360  0.80300  Biso   1.000  C
  C220     1.0000 0.06060  0.43640  0.80300  Biso   1.000  C
  N9       1.0000 0.58020  0.02620  0.12860  Biso   1.000  N
  N10      1.0000 0.41980  0.97380  0.12860  Biso   1.000  N
  N11      1.0000 0.91980  0.52620  0.87140  Biso   1.000  N
  N12      1.0000 0.08020  0.47380  0.87140  Biso   1.000  N
  C221     1.0000 0.97820  0.60640  0.41700  Biso   1.000  C
  C222     1.0000 0.02180  0.39360  0.41700  Biso   1.000  C
  C223     1.0000 0.52180  0.10640  0.58300  Biso   1.000  C
  C224     1.0000 0.47820  0.89360  0.58300  Biso   1.000  C
  H273     1.0000 0.94350  0.58870  0.42960  Biso   1.000  H
  H274     1.0000 0.05650  0.41130  0.42960  Biso   1.000  H
  H275     1.0000 0.55650  0.08870  0.57040  Biso   1.000  H
  H276     1.0000 0.44350  0.91130  0.57040  Biso   1.000  H
  O105     1.0000 0.67750  0.80820  0.19300  Biso   1.000  O
  O106     1.0000 0.32250  0.19180  0.19300  Biso   1.000  O
  O107     1.0000 0.82250  0.30820  0.80700  Biso   1.000  O
  O108     1.0000 0.17750  0.69180  0.80700  Biso   1.000  O
  C225     1.0000 0.57500  0.81100  0.13800  Biso   1.000  C
  C226     1.0000 0.42500  0.18900  0.13800  Biso   1.000  C
  C227     1.0000 0.92500  0.31100  0.86200  Biso   1.000  C
  C228     1.0000 0.07500  0.68900  0.86200  Biso   1.000  C
  C229     1.0000 0.60500  0.77400  0.22200  Biso   1.000  C
  C230     1.0000 0.39500  0.22600  0.22200  Biso   1.000  C
  C231     1.0000 0.89500  0.27400  0.77800  Biso   1.000  C
  C232     1.0000 0.10500  0.72600  0.77800  Biso   1.000  C
  H277     1.0000 0.61850  0.76610  0.29460  Biso   1.000  H
  H278     1.0000 0.38150  0.23390  0.29460  Biso   1.000  H
  H279     1.0000 0.88150  0.26610  0.70540  Biso   1.000  H
  H280     1.0000 0.11850  0.73390  0.70540  Biso   1.000  H
  H281     1.0000 0.59030  0.74610  0.18180  Biso   1.000  H
  H282     1.0000 0.40970  0.25390  0.18180  Biso   1.000  H
  H283     1.0000 0.90970  0.24610  0.81820  Biso   1.000  H
  H284     1.0000 0.09030  0.75390  0.81820  Biso   1.000  H
  H285     1.0000 0.55610  0.84050  0.22980  Biso   1.000  H
  H286     1.0000 0.44390  0.15950  0.22980  Biso   1.000  H
  H287     1.0000 0.94390  0.34050  0.77020  Biso   1.000  H
  H288     1.0000 0.05610  0.65950  0.77020  Biso   1.000  H
  H289     1.0000 0.99040  0.86850  0.67170  Biso   1.000  H
  H290     1.0000 0.00960  0.13150  0.67170  Biso   1.000  H
  H291     1.0000 0.50960  0.36850  0.32830  Biso   1.000  H
  H292     1.0000 0.49040  0.63150  0.32830  Biso   1.000  H
  H293     1.0000 0.03050  0.89860  0.59630  Biso   1.000  H
  H294     1.0000 0.96950  0.10140  0.59630  Biso   1.000  H
  H295     1.0000 0.46950  0.39860  0.40370  Biso   1.000  H
  H296     1.0000 0.53050  0.60140  0.40370  Biso   1.000  H
  H297     1.0000 0.05130  0.85050  0.65610  Biso   1.000  H
  H298     1.0000 0.94870  0.14950  0.65610  Biso   1.000  H
  H299     1.0000 0.44870  0.35050  0.34390  Biso   1.000  H
  H300     1.0000 0.55130  0.64950  0.34390  Biso   1.000  H
  C233     1.0000 0.06140  0.85900  0.53200  Biso   1.000  C
  C234     1.0000 0.93860  0.14100  0.53200  Biso   1.000  C
  C235     1.0000 0.43860  0.35900  0.46800  Biso   1.000  C
  C236     1.0000 0.56140  0.64100  0.46800  Biso   1.000  C
  C237     1.0000 0.03890  0.82900  0.53800  Biso   1.000  C
  C238     1.0000 0.96110  0.17100  0.53800  Biso   1.000  C
  C239     1.0000 0.46110  0.32900  0.46200  Biso   1.000  C
  C240     1.0000 0.53890  0.67100  0.46200  Biso   1.000  C
  Br5      1.0000 0.08813  0.47785  0.21960  Biso   1.000  Br
  Br6      1.0000 0.91187  0.52215  0.21960  Biso   1.000  Br
  Br7      1.0000 0.41187  0.97785  0.78040  Biso   1.000  Br
  Br8      1.0000 0.58813  0.02215  0.78040  Biso   1.000  Br
  Cu5      1.0000 0.02650  0.54520  0.20640  Biso   1.000  Cu
  Cu6      1.0000 0.97350  0.45480  0.20640  Biso   1.000  Cu
  Cu7      1.0000 0.47350  0.04520  0.79360  Biso   1.000  Cu
  Cu8      1.0000 0.52650  0.95480  0.79360  Biso   1.000  Cu
  Cu9      1.0000 0.44970  0.98070  0.97620  Biso   1.000  Cu
  Cu10     1.0000 0.55030  0.01930  0.97620  Biso   1.000  Cu
  Cu11     1.0000 0.05030  0.48070  0.02380  Biso   1.000  Cu
  Cu12     1.0000 0.94970  0.51930  0.02380  Biso   1.000  Cu
