data_image0
_cell_length_a       53.78
_cell_length_b       13.209
_cell_length_c       19.197
_cell_angle_alpha    90
_cell_angle_beta     92.223
_cell_angle_gamma    90

_symmetry_space_group_name_H-M    "P 1"
_symmetry_int_tables_number       1

loop_
  _symmetry_equiv_pos_as_xyz
  'x, y, z'

loop_
  _atom_site_label
  _atom_site_occupancy
  _atom_site_fract_x
  _atom_site_fract_y
  _atom_site_fract_z
  _atom_site_thermal_displace_type
  _atom_site_B_iso_or_equiv
  _atom_site_type_symbol
  I1       1.0000 0.48088  0.64017  0.04019  Biso   1.000  I
  I2       1.0000 0.51912  0.64017  0.45981  Biso   1.000  I
  I3       1.0000 0.98088  0.14017  0.04019  Biso   1.000  I
  I4       1.0000 0.01912  0.14017  0.45981  Biso   1.000  I
  I5       1.0000 0.51912  0.35983  0.95981  Biso   1.000  I
  I6       1.0000 0.48088  0.35983  0.54019  Biso   1.000  I
  I7       1.0000 0.01912  0.85983  0.95981  Biso   1.000  I
  I8       1.0000 0.98088  0.85983  0.54019  Biso   1.000  I
  Cu1      1.0000 0.51897  0.55600  0.96284  Biso   1.000  Cu
  Cu2      1.0000 0.48103  0.55600  0.53716  Biso   1.000  Cu
  Cu3      1.0000 0.01897  0.05600  0.96284  Biso   1.000  Cu
  Cu4      1.0000 0.98103  0.05600  0.53716  Biso   1.000  Cu
  Cu5      1.0000 0.48103  0.44400  0.03716  Biso   1.000  Cu
  Cu6      1.0000 0.51897  0.44400  0.46284  Biso   1.000  Cu
  Cu7      1.0000 0.98103  0.94400  0.03716  Biso   1.000  Cu
  Cu8      1.0000 0.01897  0.94400  0.46284  Biso   1.000  Cu
  Cu9      1.0000 0.52628  0.70747  0.05403  Biso   1.000  Cu
  Cu10     1.0000 0.47372  0.70747  0.44597  Biso   1.000  Cu
  Cu11     1.0000 0.02628  0.20747  0.05403  Biso   1.000  Cu
  Cu12     1.0000 0.97372  0.20747  0.44597  Biso   1.000  Cu
  Cu13     1.0000 0.47372  0.29253  0.94597  Biso   1.000  Cu
  Cu14     1.0000 0.52628  0.29253  0.55403  Biso   1.000  Cu
  Cu15     1.0000 0.97372  0.79253  0.94597  Biso   1.000  Cu
  Cu16     1.0000 0.02628  0.79253  0.55403  Biso   1.000  Cu
  I9       1.0000 0.56216  0.63733  0.98192  Biso   1.000  I
  I10      1.0000 0.43784  0.63733  0.51808  Biso   1.000  I
  I11      1.0000 0.06216  0.13733  0.98192  Biso   1.000  I
  I12      1.0000 0.93784  0.13733  0.51808  Biso   1.000  I
  I13      1.0000 0.43784  0.36267  0.01808  Biso   1.000  I
  I14      1.0000 0.56216  0.36267  0.48192  Biso   1.000  I
  I15      1.0000 0.93784  0.86267  0.01808  Biso   1.000  I
  I16      1.0000 0.06216  0.86267  0.48192  Biso   1.000  I
  N1       1.0000 0.50146  0.60995  0.87202  Biso   1.000  N
  N2       1.0000 0.49854  0.60995  0.62798  Biso   1.000  N
  N3       1.0000 0.00146  0.10995  0.87202  Biso   1.000  N
  N4       1.0000 0.99854  0.10995  0.62798  Biso   1.000  N
  N5       1.0000 0.49854  0.39005  0.12798  Biso   1.000  N
  N6       1.0000 0.50146  0.39005  0.37202  Biso   1.000  N
  N7       1.0000 0.99854  0.89005  0.12798  Biso   1.000  N
  N8       1.0000 0.00146  0.89005  0.37202  Biso   1.000  N
  N9       1.0000 0.53488  0.71060  0.16000  Biso   1.000  N
  N10      1.0000 0.46512  0.71060  0.34000  Biso   1.000  N
  N11      1.0000 0.03488  0.21060  0.16000  Biso   1.000  N
  N12      1.0000 0.96512  0.21060  0.34000  Biso   1.000  N
  N13      1.0000 0.46512  0.28940  0.84000  Biso   1.000  N
  N14      1.0000 0.53488  0.28940  0.66000  Biso   1.000  N
  N15      1.0000 0.96512  0.78940  0.84000  Biso   1.000  N
  N16      1.0000 0.03488  0.78940  0.66000  Biso   1.000  N
  N17      1.0000 0.47316  0.86332  0.46320  Biso   1.000  N
  N18      1.0000 0.52684  0.86332  0.03680  Biso   1.000  N
  N19      1.0000 0.97316  0.36332  0.46320  Biso   1.000  N
  N20      1.0000 0.02684  0.36332  0.03680  Biso   1.000  N
  N21      1.0000 0.52684  0.13668  0.53680  Biso   1.000  N
  N22      1.0000 0.47316  0.13668  0.96320  Biso   1.000  N
  N23      1.0000 0.02684  0.63668  0.53680  Biso   1.000  N
  N24      1.0000 0.97316  0.63668  0.96320  Biso   1.000  N
  C1       1.0000 0.47998  0.56145  0.84700  Biso   1.000  C
  C2       1.0000 0.52002  0.56145  0.65300  Biso   1.000  C
  C3       1.0000 0.97998  0.06145  0.84700  Biso   1.000  C
  C4       1.0000 0.02002  0.06145  0.65300  Biso   1.000  C
  C5       1.0000 0.52002  0.43855  0.15300  Biso   1.000  C
  C6       1.0000 0.47998  0.43855  0.34700  Biso   1.000  C
  C7       1.0000 0.02002  0.93855  0.15300  Biso   1.000  C
  C8       1.0000 0.97998  0.93855  0.34700  Biso   1.000  C
  C9       1.0000 0.50473  0.71270  0.85968  Biso   1.000  C
  C10      1.0000 0.49527  0.71270  0.64032  Biso   1.000  C
  C11      1.0000 0.00473  0.21270  0.85968  Biso   1.000  C
  C12      1.0000 0.99527  0.21270  0.64032  Biso   1.000  C
  C13      1.0000 0.49527  0.28730  0.14032  Biso   1.000  C
  C14      1.0000 0.50473  0.28730  0.35968  Biso   1.000  C
  C15      1.0000 0.99527  0.78730  0.14032  Biso   1.000  C
  C16      1.0000 0.00473  0.78730  0.35968  Biso   1.000  C
  C17      1.0000 0.54309  0.71220  0.21340  Biso   1.000  C
  C18      1.0000 0.45691  0.71220  0.28660  Biso   1.000  C
  C19      1.0000 0.04309  0.21220  0.21340  Biso   1.000  C
  C20      1.0000 0.95691  0.21220  0.28660  Biso   1.000  C
  C21      1.0000 0.45691  0.28780  0.78660  Biso   1.000  C
  C22      1.0000 0.54309  0.28780  0.71340  Biso   1.000  C
  C23      1.0000 0.95691  0.78780  0.78660  Biso   1.000  C
  C24      1.0000 0.04309  0.78780  0.71340  Biso   1.000  C
  C25      1.0000 0.46177  0.61569  0.80970  Biso   1.000  C
  C26      1.0000 0.53823  0.61569  0.69030  Biso   1.000  C
  C27      1.0000 0.96177  0.11569  0.80970  Biso   1.000  C
  C28      1.0000 0.03823  0.11569  0.69030  Biso   1.000  C
  C29      1.0000 0.53823  0.38431  0.19030  Biso   1.000  C
  C30      1.0000 0.46177  0.38431  0.30970  Biso   1.000  C
  C31      1.0000 0.03823  0.88431  0.19030  Biso   1.000  C
  C32      1.0000 0.96177  0.88431  0.30970  Biso   1.000  C
  H1       1.0000 0.47780  0.49120  0.85540  Biso   1.000  H
  H2       1.0000 0.52220  0.49120  0.64460  Biso   1.000  H
  H3       1.0000 0.97780  0.99120  0.85540  Biso   1.000  H
  H4       1.0000 0.02220  0.99120  0.64460  Biso   1.000  H
  H5       1.0000 0.52220  0.50880  0.14460  Biso   1.000  H
  H6       1.0000 0.47780  0.50880  0.35540  Biso   1.000  H
  H7       1.0000 0.02220  0.00880  0.14460  Biso   1.000  H
  H8       1.0000 0.97780  0.00880  0.35540  Biso   1.000  H
  N25      1.0000 0.48651  0.76694  0.82234  Biso   1.000  N
  N26      1.0000 0.51349  0.76694  0.67766  Biso   1.000  N
  N27      1.0000 0.98651  0.26694  0.82234  Biso   1.000  N
  N28      1.0000 0.01349  0.26694  0.67766  Biso   1.000  N
  N29      1.0000 0.51349  0.23306  0.17766  Biso   1.000  N
  N30      1.0000 0.48651  0.23306  0.32234  Biso   1.000  N
  N31      1.0000 0.01349  0.73306  0.17766  Biso   1.000  N
  N32      1.0000 0.98651  0.73306  0.32234  Biso   1.000  N
  H9       1.0000 0.51940  0.74580  0.87680  Biso   1.000  H
  H10      1.0000 0.48060  0.74580  0.62320  Biso   1.000  H
  H11      1.0000 0.01940  0.24580  0.87680  Biso   1.000  H
  H12      1.0000 0.98060  0.24580  0.62320  Biso   1.000  H
  H13      1.0000 0.48060  0.25420  0.12320  Biso   1.000  H
  H14      1.0000 0.51940  0.25420  0.37680  Biso   1.000  H
  H15      1.0000 0.98060  0.75420  0.12320  Biso   1.000  H
  H16      1.0000 0.01940  0.75420  0.37680  Biso   1.000  H
  C33      1.0000 0.55188  0.71960  0.28700  Biso   1.000  C
  C34      1.0000 0.44812  0.71960  0.21300  Biso   1.000  C
  C35      1.0000 0.05188  0.21960  0.28700  Biso   1.000  C
  C36      1.0000 0.94812  0.21960  0.21300  Biso   1.000  C
  C37      1.0000 0.44812  0.28040  0.71300  Biso   1.000  C
  C38      1.0000 0.55188  0.28040  0.78700  Biso   1.000  C
  C39      1.0000 0.94812  0.78040  0.71300  Biso   1.000  C
  C40      1.0000 0.05188  0.78040  0.78700  Biso   1.000  C
  C41      1.0000 0.46504  0.71844  0.79732  Biso   1.000  C
  C42      1.0000 0.53496  0.71844  0.70268  Biso   1.000  C
  C43      1.0000 0.96504  0.21844  0.79732  Biso   1.000  C
  C44      1.0000 0.03496  0.21844  0.70268  Biso   1.000  C
  C45      1.0000 0.53496  0.28156  0.20268  Biso   1.000  C
  C46      1.0000 0.46504  0.28156  0.29732  Biso   1.000  C
  C47      1.0000 0.03496  0.78156  0.20268  Biso   1.000  C
  C48      1.0000 0.96504  0.78156  0.29732  Biso   1.000  C
  C49      1.0000 0.43887  0.56397  0.78766  Biso   1.000  C
  C50      1.0000 0.56113  0.56397  0.71234  Biso   1.000  C
  C51      1.0000 0.93887  0.06397  0.78766  Biso   1.000  C
  C52      1.0000 0.06113  0.06397  0.71234  Biso   1.000  C
  C53      1.0000 0.56113  0.43603  0.21234  Biso   1.000  C
  C54      1.0000 0.43887  0.43603  0.28766  Biso   1.000  C
  C55      1.0000 0.06113  0.93603  0.21234  Biso   1.000  C
  C56      1.0000 0.93887  0.93603  0.28766  Biso   1.000  C
  Cu17     1.0000 0.49169  0.91902  0.81106  Biso   1.000  Cu
  Cu18     1.0000 0.50831  0.91902  0.68894  Biso   1.000  Cu
  Cu19     1.0000 0.99169  0.41902  0.81106  Biso   1.000  Cu
  Cu20     1.0000 0.00831  0.41902  0.68894  Biso   1.000  Cu
  Cu21     1.0000 0.50831  0.08098  0.18894  Biso   1.000  Cu
  Cu22     1.0000 0.49169  0.08098  0.31106  Biso   1.000  Cu
  Cu23     1.0000 0.00831  0.58098  0.18894  Biso   1.000  Cu
  Cu24     1.0000 0.99169  0.58098  0.31106  Biso   1.000  Cu
  H17      1.0000 0.56830  0.68740  0.29280  Biso   1.000  H
  H18      1.0000 0.43170  0.68740  0.20720  Biso   1.000  H
  H19      1.0000 0.06830  0.18740  0.29280  Biso   1.000  H
  H20      1.0000 0.93170  0.18740  0.20720  Biso   1.000  H
  H21      1.0000 0.43170  0.31260  0.70720  Biso   1.000  H
  H22      1.0000 0.56830  0.31260  0.79280  Biso   1.000  H
  H23      1.0000 0.93170  0.81260  0.70720  Biso   1.000  H
  H24      1.0000 0.06830  0.81260  0.79280  Biso   1.000  H
  H25      1.0000 0.54010  0.68530  0.31660  Biso   1.000  H
  H26      1.0000 0.45990  0.68530  0.18340  Biso   1.000  H
  H27      1.0000 0.04010  0.18530  0.31660  Biso   1.000  H
  H28      1.0000 0.95990  0.18530  0.18340  Biso   1.000  H
  H29      1.0000 0.45990  0.31470  0.68340  Biso   1.000  H
  H30      1.0000 0.54010  0.31470  0.81660  Biso   1.000  H
  H31      1.0000 0.95990  0.81470  0.68340  Biso   1.000  H
  H32      1.0000 0.04010  0.81470  0.81660  Biso   1.000  H
  H33      1.0000 0.55320  0.79100  0.30050  Biso   1.000  H
  H34      1.0000 0.44680  0.79100  0.19950  Biso   1.000  H
  H35      1.0000 0.05320  0.29100  0.30050  Biso   1.000  H
  H36      1.0000 0.94680  0.29100  0.19950  Biso   1.000  H
  H37      1.0000 0.44680  0.20900  0.69950  Biso   1.000  H
  H38      1.0000 0.55320  0.20900  0.80050  Biso   1.000  H
  H39      1.0000 0.94680  0.70900  0.69950  Biso   1.000  H
  H40      1.0000 0.05320  0.70900  0.80050  Biso   1.000  H
  C57      1.0000 0.42798  0.58350  0.72218  Biso   1.000  C
  C58      1.0000 0.57202  0.58350  0.77782  Biso   1.000  C
  C59      1.0000 0.92798  0.08350  0.72218  Biso   1.000  C
  C60      1.0000 0.07202  0.08350  0.77782  Biso   1.000  C
  C61      1.0000 0.57202  0.41650  0.27782  Biso   1.000  C
  C62      1.0000 0.42798  0.41650  0.22218  Biso   1.000  C
  C63      1.0000 0.07202  0.91650  0.27782  Biso   1.000  C
  C64      1.0000 0.92798  0.91650  0.22218  Biso   1.000  C
  C65      1.0000 0.42728  0.49890  0.83318  Biso   1.000  C
  C66      1.0000 0.57272  0.49890  0.66682  Biso   1.000  C
  C67      1.0000 0.92728  0.99890  0.83318  Biso   1.000  C
  C68      1.0000 0.07272  0.99890  0.66682  Biso   1.000  C
  C69      1.0000 0.57272  0.50110  0.16682  Biso   1.000  C
  C70      1.0000 0.42728  0.50110  0.33318  Biso   1.000  C
  C71      1.0000 0.07272  0.00110  0.16682  Biso   1.000  C
  C72      1.0000 0.92728  0.00110  0.33318  Biso   1.000  C
  I17      1.0000 0.46224  0.97593  0.70238  Biso   1.000  I
  I18      1.0000 0.53776  0.97593  0.79762  Biso   1.000  I
  I19      1.0000 0.96224  0.47593  0.70238  Biso   1.000  I
  I20      1.0000 0.03776  0.47593  0.79762  Biso   1.000  I
  I21      1.0000 0.53776  0.02407  0.29762  Biso   1.000  I
  I22      1.0000 0.46224  0.02407  0.20238  Biso   1.000  I
  I23      1.0000 0.03776  0.52407  0.29762  Biso   1.000  I
  I24      1.0000 0.96224  0.52407  0.20238  Biso   1.000  I
  N33      1.0000 0.47868  0.01746  0.39867  Biso   1.000  N
  N34      1.0000 0.52132  0.01746  0.10133  Biso   1.000  N
  N35      1.0000 0.97868  0.51746  0.39867  Biso   1.000  N
  N36      1.0000 0.02132  0.51746  0.10133  Biso   1.000  N
  N37      1.0000 0.52132  0.98254  0.60133  Biso   1.000  N
  N38      1.0000 0.47868  0.98254  0.89867  Biso   1.000  N
  N39      1.0000 0.02132  0.48254  0.60133  Biso   1.000  N
  N40      1.0000 0.97868  0.48254  0.89867  Biso   1.000  N
  H41      1.0000 0.43590  0.62800  0.69110  Biso   1.000  H
  H42      1.0000 0.56410  0.62800  0.80890  Biso   1.000  H
  H43      1.0000 0.93590  0.12800  0.69110  Biso   1.000  H
  H44      1.0000 0.06410  0.12800  0.80890  Biso   1.000  H
  H45      1.0000 0.56410  0.37200  0.30890  Biso   1.000  H
  H46      1.0000 0.43590  0.37200  0.19110  Biso   1.000  H
  H47      1.0000 0.06410  0.87200  0.30890  Biso   1.000  H
  H48      1.0000 0.93590  0.87200  0.19110  Biso   1.000  H
  C73      1.0000 0.40552  0.53800  0.70222  Biso   1.000  C
  C74      1.0000 0.59448  0.53800  0.79778  Biso   1.000  C
  C75      1.0000 0.90552  0.03800  0.70222  Biso   1.000  C
  C76      1.0000 0.09448  0.03800  0.79778  Biso   1.000  C
  C77      1.0000 0.59448  0.46200  0.29778  Biso   1.000  C
  C78      1.0000 0.40552  0.46200  0.20222  Biso   1.000  C
  C79      1.0000 0.09448  0.96200  0.29778  Biso   1.000  C
  C80      1.0000 0.90552  0.96200  0.20222  Biso   1.000  C
  C81      1.0000 0.40481  0.45340  0.81320  Biso   1.000  C
  C82      1.0000 0.59519  0.45340  0.68680  Biso   1.000  C
  C83      1.0000 0.90481  0.95340  0.81320  Biso   1.000  C
  C84      1.0000 0.09519  0.95340  0.68680  Biso   1.000  C
  C85      1.0000 0.59519  0.54660  0.18680  Biso   1.000  C
  C86      1.0000 0.40481  0.54660  0.31320  Biso   1.000  C
  C87      1.0000 0.09519  0.04660  0.18680  Biso   1.000  C
  C88      1.0000 0.90481  0.04660  0.31320  Biso   1.000  C
  H49      1.0000 0.43470  0.48560  0.87790  Biso   1.000  H
  H50      1.0000 0.56530  0.48560  0.62210  Biso   1.000  H
  H51      1.0000 0.93470  0.98560  0.87790  Biso   1.000  H
  H52      1.0000 0.06530  0.98560  0.62210  Biso   1.000  H
  H53      1.0000 0.56530  0.51440  0.12210  Biso   1.000  H
  H54      1.0000 0.43470  0.51440  0.37790  Biso   1.000  H
  H55      1.0000 0.06530  0.01440  0.12210  Biso   1.000  H
  H56      1.0000 0.93470  0.01440  0.37790  Biso   1.000  H
  H57      1.0000 0.39810  0.55140  0.65750  Biso   1.000  H
  H58      1.0000 0.60190  0.55140  0.84250  Biso   1.000  H
  H59      1.0000 0.89810  0.05140  0.65750  Biso   1.000  H
  H60      1.0000 0.10190  0.05140  0.84250  Biso   1.000  H
  H61      1.0000 0.60190  0.44860  0.34250  Biso   1.000  H
  H62      1.0000 0.39810  0.44860  0.15750  Biso   1.000  H
  H63      1.0000 0.10190  0.94860  0.34250  Biso   1.000  H
  H64      1.0000 0.89810  0.94860  0.15750  Biso   1.000  H
  C89      1.0000 0.39393  0.47300  0.74770  Biso   1.000  C
  C90      1.0000 0.60607  0.47300  0.75230  Biso   1.000  C
  C91      1.0000 0.89393  0.97300  0.74770  Biso   1.000  C
  C92      1.0000 0.10607  0.97300  0.75230  Biso   1.000  C
  C93      1.0000 0.60607  0.52700  0.25230  Biso   1.000  C
  C94      1.0000 0.39393  0.52700  0.24770  Biso   1.000  C
  C95      1.0000 0.10607  0.02700  0.25230  Biso   1.000  C
  C96      1.0000 0.89393  0.02700  0.24770  Biso   1.000  C
  H65      1.0000 0.39690  0.40900  0.84430  Biso   1.000  H
  H66      1.0000 0.60310  0.40900  0.65570  Biso   1.000  H
  H67      1.0000 0.89690  0.90900  0.84430  Biso   1.000  H
  H68      1.0000 0.10310  0.90900  0.65570  Biso   1.000  H
  H69      1.0000 0.60310  0.59100  0.15570  Biso   1.000  H
  H70      1.0000 0.39690  0.59100  0.34430  Biso   1.000  H
  H71      1.0000 0.10310  0.09100  0.15570  Biso   1.000  H
  H72      1.0000 0.89690  0.09100  0.34430  Biso   1.000  H
  C97      1.0000 0.36951  0.42240  0.72710  Biso   1.000  C
  C98      1.0000 0.63049  0.42240  0.77290  Biso   1.000  C
  C99      1.0000 0.86951  0.92240  0.72710  Biso   1.000  C
  C100     1.0000 0.13049  0.92240  0.77290  Biso   1.000  C
  C101     1.0000 0.63049  0.57760  0.27290  Biso   1.000  C
  C102     1.0000 0.36951  0.57760  0.22710  Biso   1.000  C
  C103     1.0000 0.13049  0.07760  0.27290  Biso   1.000  C
  C104     1.0000 0.86951  0.07760  0.22710  Biso   1.000  C
  O1       1.0000 0.36255  0.35280  0.76520  Biso   1.000  O
  O2       1.0000 0.63745  0.35280  0.73480  Biso   1.000  O
  O3       1.0000 0.86255  0.85280  0.76520  Biso   1.000  O
  O4       1.0000 0.13745  0.85280  0.73480  Biso   1.000  O
  O5       1.0000 0.63745  0.64720  0.23480  Biso   1.000  O
  O6       1.0000 0.36255  0.64720  0.26520  Biso   1.000  O
  O7       1.0000 0.13745  0.14720  0.23480  Biso   1.000  O
  O8       1.0000 0.86255  0.14720  0.26520  Biso   1.000  O
  O9       1.0000 0.35818  0.44850  0.67240  Biso   1.000  O
  O10      1.0000 0.64182  0.44850  0.82760  Biso   1.000  O
  O11      1.0000 0.85818  0.94850  0.67240  Biso   1.000  O
  O12      1.0000 0.14182  0.94850  0.82760  Biso   1.000  O
  O13      1.0000 0.64182  0.55150  0.32760  Biso   1.000  O
  O14      1.0000 0.35818  0.55150  0.17240  Biso   1.000  O
  O15      1.0000 0.14182  0.05150  0.32760  Biso   1.000  O
  O16      1.0000 0.85818  0.05150  0.17240  Biso   1.000  O
  Ti1      1.0000 0.33698  0.23939  0.76435  Biso   1.000  Ti
  Ti2      1.0000 0.66302  0.23939  0.73565  Biso   1.000  Ti
  Ti3      1.0000 0.83698  0.73939  0.76435  Biso   1.000  Ti
  Ti4      1.0000 0.16302  0.73939  0.73565  Biso   1.000  Ti
  Ti5      1.0000 0.66302  0.76061  0.23565  Biso   1.000  Ti
  Ti6      1.0000 0.33698  0.76061  0.26435  Biso   1.000  Ti
  Ti7      1.0000 0.16302  0.26061  0.23565  Biso   1.000  Ti
  Ti8      1.0000 0.83698  0.26061  0.26435  Biso   1.000  Ti
  Ti9      1.0000 0.33092  0.38806  0.60796  Biso   1.000  Ti
  Ti10     1.0000 0.66908  0.38806  0.89204  Biso   1.000  Ti
  Ti11     1.0000 0.83092  0.88806  0.60796  Biso   1.000  Ti
  Ti12     1.0000 0.16908  0.88806  0.89204  Biso   1.000  Ti
  Ti13     1.0000 0.66908  0.61194  0.39204  Biso   1.000  Ti
  Ti14     1.0000 0.33092  0.61194  0.10796  Biso   1.000  Ti
  Ti15     1.0000 0.16908  0.11194  0.39204  Biso   1.000  Ti
  Ti16     1.0000 0.83092  0.11194  0.10796  Biso   1.000  Ti
  O17      1.0000 0.32328  0.29800  0.67970  Biso   1.000  O
  O18      1.0000 0.67672  0.29800  0.82030  Biso   1.000  O
  O19      1.0000 0.82328  0.79800  0.67970  Biso   1.000  O
  O20      1.0000 0.17672  0.79800  0.82030  Biso   1.000  O
  O21      1.0000 0.67672  0.70200  0.32030  Biso   1.000  O
  O22      1.0000 0.32328  0.70200  0.17970  Biso   1.000  O
  O23      1.0000 0.17672  0.20200  0.32030  Biso   1.000  O
  O24      1.0000 0.82328  0.20200  0.17970  Biso   1.000  O
  O25      1.0000 0.35696  0.16710  0.80041  Biso   1.000  O
  O26      1.0000 0.64304  0.16710  0.69959  Biso   1.000  O
  O27      1.0000 0.85696  0.66710  0.80041  Biso   1.000  O
  O28      1.0000 0.14304  0.66710  0.69959  Biso   1.000  O
  O29      1.0000 0.64304  0.83290  0.19959  Biso   1.000  O
  O30      1.0000 0.35696  0.83290  0.30041  Biso   1.000  O
  O31      1.0000 0.14304  0.33290  0.19959  Biso   1.000  O
  O32      1.0000 0.85696  0.33290  0.30041  Biso   1.000  O
  O33      1.0000 0.31408  0.13240  0.72900  Biso   1.000  O
  O34      1.0000 0.68592  0.13240  0.77100  Biso   1.000  O
  O35      1.0000 0.81408  0.63240  0.72900  Biso   1.000  O
  O36      1.0000 0.18592  0.63240  0.77100  Biso   1.000  O
  O37      1.0000 0.68592  0.86760  0.27100  Biso   1.000  O
  O38      1.0000 0.31408  0.86760  0.22900  Biso   1.000  O
  O39      1.0000 0.18592  0.36760  0.27100  Biso   1.000  O
  O40      1.0000 0.81408  0.36760  0.22900  Biso   1.000  O
  O41      1.0000 0.31841  0.29470  0.83610  Biso   1.000  O
  O42      1.0000 0.68159  0.29470  0.66390  Biso   1.000  O
  O43      1.0000 0.81841  0.79470  0.83610  Biso   1.000  O
  O44      1.0000 0.18159  0.79470  0.66390  Biso   1.000  O
  O45      1.0000 0.68159  0.70530  0.16390  Biso   1.000  O
  O46      1.0000 0.31841  0.70530  0.33610  Biso   1.000  O
  O47      1.0000 0.18159  0.20530  0.16390  Biso   1.000  O
  O48      1.0000 0.81841  0.20530  0.33610  Biso   1.000  O
  O49      1.0000 0.35924  0.28800  0.59710  Biso   1.000  O
  O50      1.0000 0.64076  0.28800  0.90290  Biso   1.000  O
  O51      1.0000 0.85924  0.78800  0.59710  Biso   1.000  O
  O52      1.0000 0.14076  0.78800  0.90290  Biso   1.000  O
  O53      1.0000 0.64076  0.71200  0.40290  Biso   1.000  O
  O54      1.0000 0.35924  0.71200  0.09710  Biso   1.000  O
  O55      1.0000 0.14076  0.21200  0.40290  Biso   1.000  O
  O56      1.0000 0.85924  0.21200  0.09710  Biso   1.000  O
  O57      1.0000 0.30823  0.49140  0.63050  Biso   1.000  O
  O58      1.0000 0.69177  0.49140  0.86950  Biso   1.000  O
  O59      1.0000 0.80823  0.99140  0.63050  Biso   1.000  O
  O60      1.0000 0.19177  0.99140  0.86950  Biso   1.000  O
  O61      1.0000 0.69177  0.50860  0.36950  Biso   1.000  O
  O62      1.0000 0.30823  0.50860  0.13050  Biso   1.000  O
  O63      1.0000 0.19177  0.00860  0.36950  Biso   1.000  O
  O64      1.0000 0.80823  0.00860  0.13050  Biso   1.000  O
  O65      1.0000 0.30795  0.28770  0.56210  Biso   1.000  O
  O66      1.0000 0.69205  0.28770  0.93790  Biso   1.000  O
  O67      1.0000 0.80795  0.78770  0.56210  Biso   1.000  O
  O68      1.0000 0.19205  0.78770  0.93790  Biso   1.000  O
  O69      1.0000 0.69205  0.71230  0.43790  Biso   1.000  O
  O70      1.0000 0.30795  0.71230  0.06210  Biso   1.000  O
  O71      1.0000 0.19205  0.21230  0.43790  Biso   1.000  O
  O72      1.0000 0.80795  0.21230  0.06210  Biso   1.000  O
  O73      1.0000 0.34228  0.46010  0.53780  Biso   1.000  O
  O74      1.0000 0.65772  0.46010  0.96220  Biso   1.000  O
  O75      1.0000 0.84228  0.96010  0.53780  Biso   1.000  O
  O76      1.0000 0.15772  0.96010  0.96220  Biso   1.000  O
  O77      1.0000 0.65772  0.53990  0.46220  Biso   1.000  O
  O78      1.0000 0.34228  0.53990  0.03780  Biso   1.000  O
  O79      1.0000 0.15772  0.03990  0.46220  Biso   1.000  O
  O80      1.0000 0.84228  0.03990  0.03780  Biso   1.000  O
  Ti17     1.0000 0.30438  0.18468  0.63709  Biso   1.000  Ti
  Ti18     1.0000 0.69562  0.18468  0.86291  Biso   1.000  Ti
  Ti19     1.0000 0.80438  0.68468  0.63709  Biso   1.000  Ti
  Ti20     1.0000 0.19562  0.68468  0.86291  Biso   1.000  Ti
  Ti21     1.0000 0.69562  0.81532  0.36291  Biso   1.000  Ti
  Ti22     1.0000 0.30438  0.81532  0.13709  Biso   1.000  Ti
  Ti23     1.0000 0.19562  0.31532  0.36291  Biso   1.000  Ti
  Ti24     1.0000 0.80438  0.31532  0.13709  Biso   1.000  Ti
  C105     1.0000 0.38353  0.15890  0.81475  Biso   1.000  C
  C106     1.0000 0.61647  0.15890  0.68525  Biso   1.000  C
  C107     1.0000 0.88353  0.65890  0.81475  Biso   1.000  C
  C108     1.0000 0.11647  0.65890  0.68525  Biso   1.000  C
  C109     1.0000 0.61647  0.84110  0.18525  Biso   1.000  C
  C110     1.0000 0.38353  0.84110  0.31475  Biso   1.000  C
  C111     1.0000 0.11647  0.34110  0.18525  Biso   1.000  C
  C112     1.0000 0.88353  0.34110  0.31475  Biso   1.000  C
  C113     1.0000 0.30690  0.04040  0.75720  Biso   1.000  C
  C114     1.0000 0.69310  0.04040  0.74280  Biso   1.000  C
  C115     1.0000 0.80690  0.54040  0.75720  Biso   1.000  C
  C116     1.0000 0.19310  0.54040  0.74280  Biso   1.000  C
  C117     1.0000 0.69310  0.95960  0.24280  Biso   1.000  C
  C118     1.0000 0.30690  0.95960  0.25720  Biso   1.000  C
  C119     1.0000 0.19310  0.45960  0.24280  Biso   1.000  C
  C120     1.0000 0.80690  0.45960  0.25720  Biso   1.000  C
  C121     1.0000 0.30670  0.38010  0.87610  Biso   1.000  C
  C122     1.0000 0.69330  0.38010  0.62390  Biso   1.000  C
  C123     1.0000 0.80670  0.88010  0.87610  Biso   1.000  C
  C124     1.0000 0.19330  0.88010  0.62390  Biso   1.000  C
  C125     1.0000 0.69330  0.61990  0.12390  Biso   1.000  C
  C126     1.0000 0.30670  0.61990  0.37610  Biso   1.000  C
  C127     1.0000 0.19330  0.11990  0.12390  Biso   1.000  C
  C128     1.0000 0.80670  0.11990  0.37610  Biso   1.000  C
  O81      1.0000 0.34201  0.13380  0.61140  Biso   1.000  O
  O82      1.0000 0.65799  0.13380  0.88860  Biso   1.000  O
  O83      1.0000 0.84201  0.63380  0.61140  Biso   1.000  O
  O84      1.0000 0.15799  0.63380  0.88860  Biso   1.000  O
  O85      1.0000 0.65799  0.86620  0.38860  Biso   1.000  O
  O86      1.0000 0.34201  0.86620  0.11140  Biso   1.000  O
  O87      1.0000 0.15799  0.36620  0.38860  Biso   1.000  O
  O88      1.0000 0.84201  0.36620  0.11140  Biso   1.000  O
  C129     1.0000 0.35917  0.18960  0.59990  Biso   1.000  C
  C130     1.0000 0.64083  0.18960  0.90010  Biso   1.000  C
  C131     1.0000 0.85917  0.68960  0.59990  Biso   1.000  C
  C132     1.0000 0.14083  0.68960  0.90010  Biso   1.000  C
  C133     1.0000 0.64083  0.81040  0.40010  Biso   1.000  C
  C134     1.0000 0.35917  0.81040  0.09990  Biso   1.000  C
  C135     1.0000 0.14083  0.31040  0.40010  Biso   1.000  C
  C136     1.0000 0.85917  0.31040  0.09990  Biso   1.000  C
  C137     1.0000 0.30430  0.59050  0.62580  Biso   1.000  C
  C138     1.0000 0.69570  0.59050  0.87420  Biso   1.000  C
  C139     1.0000 0.80430  0.09050  0.62580  Biso   1.000  C
  C140     1.0000 0.19570  0.09050  0.87420  Biso   1.000  C
  C141     1.0000 0.69570  0.40950  0.37420  Biso   1.000  C
  C142     1.0000 0.30430  0.40950  0.12580  Biso   1.000  C
  C143     1.0000 0.19570  0.90950  0.37420  Biso   1.000  C
  C144     1.0000 0.80430  0.90950  0.12580  Biso   1.000  C
  C145     1.0000 0.29719  0.28830  0.49230  Biso   1.000  C
  C146     1.0000 0.70281  0.28830  0.00770  Biso   1.000  C
  C147     1.0000 0.79719  0.78830  0.49230  Biso   1.000  C
  C148     1.0000 0.20281  0.78830  0.00770  Biso   1.000  C
  C149     1.0000 0.70281  0.71170  0.50770  Biso   1.000  C
  C150     1.0000 0.29719  0.71170  0.99230  Biso   1.000  C
  C151     1.0000 0.20281  0.21170  0.50770  Biso   1.000  C
  C152     1.0000 0.79719  0.21170  0.99230  Biso   1.000  C
  C153     1.0000 0.36502  0.49680  0.52344  Biso   1.000  C
  C154     1.0000 0.63498  0.49680  0.97656  Biso   1.000  C
  C155     1.0000 0.86502  0.99680  0.52344  Biso   1.000  C
  C156     1.0000 0.13498  0.99680  0.97656  Biso   1.000  C
  C157     1.0000 0.63498  0.50320  0.47656  Biso   1.000  C
  C158     1.0000 0.36502  0.50320  0.02344  Biso   1.000  C
  C159     1.0000 0.13498  0.00320  0.47656  Biso   1.000  C
  C160     1.0000 0.86502  0.00320  0.02344  Biso   1.000  C
  O89      1.0000 0.29512  0.07390  0.59190  Biso   1.000  O
  O90      1.0000 0.70488  0.07390  0.90810  Biso   1.000  O
  O91      1.0000 0.79512  0.57390  0.59190  Biso   1.000  O
  O92      1.0000 0.20488  0.57390  0.90810  Biso   1.000  O
  O93      1.0000 0.70488  0.92610  0.40810  Biso   1.000  O
  O94      1.0000 0.29512  0.92610  0.09190  Biso   1.000  O
  O95      1.0000 0.20488  0.42610  0.40810  Biso   1.000  O
  O96      1.0000 0.79512  0.42610  0.09190  Biso   1.000  O
  O97      1.0000 0.27417  0.22450  0.65780  Biso   1.000  O
  O98      1.0000 0.72583  0.22450  0.84220  Biso   1.000  O
  O99      1.0000 0.77417  0.72450  0.65780  Biso   1.000  O
  O100     1.0000 0.22583  0.72450  0.84220  Biso   1.000  O
  O101     1.0000 0.72583  0.77550  0.34220  Biso   1.000  O
  O102     1.0000 0.27417  0.77550  0.15780  Biso   1.000  O
  O103     1.0000 0.22583  0.27550  0.34220  Biso   1.000  O
  O104     1.0000 0.77417  0.27550  0.15780  Biso   1.000  O
  C161     1.0000 0.39981  0.08910  0.79360  Biso   1.000  C
  C162     1.0000 0.60019  0.08910  0.70640  Biso   1.000  C
  C163     1.0000 0.89981  0.58910  0.79360  Biso   1.000  C
  C164     1.0000 0.10019  0.58910  0.70640  Biso   1.000  C
  C165     1.0000 0.60019  0.91090  0.20640  Biso   1.000  C
  C166     1.0000 0.39981  0.91090  0.29360  Biso   1.000  C
  C167     1.0000 0.10019  0.41090  0.20640  Biso   1.000  C
  C168     1.0000 0.89981  0.41090  0.29360  Biso   1.000  C
  C169     1.0000 0.38314  0.16840  0.88462  Biso   1.000  C
  C170     1.0000 0.61686  0.16840  0.61538  Biso   1.000  C
  C171     1.0000 0.88314  0.66840  0.88462  Biso   1.000  C
  C172     1.0000 0.11686  0.66840  0.61538  Biso   1.000  C
  C173     1.0000 0.61686  0.83160  0.11538  Biso   1.000  C
  C174     1.0000 0.38314  0.83160  0.38462  Biso   1.000  C
  C175     1.0000 0.11686  0.33160  0.11538  Biso   1.000  C
  C176     1.0000 0.88314  0.33160  0.38462  Biso   1.000  C
  C177     1.0000 0.30000  0.04820  0.83250  Biso   1.000  C
  C178     1.0000 0.70000  0.04820  0.66750  Biso   1.000  C
  C179     1.0000 0.80000  0.54820  0.83250  Biso   1.000  C
  C180     1.0000 0.20000  0.54820  0.66750  Biso   1.000  C
  C181     1.0000 0.70000  0.95180  0.16750  Biso   1.000  C
  C182     1.0000 0.30000  0.95180  0.33250  Biso   1.000  C
  C183     1.0000 0.20000  0.45180  0.16750  Biso   1.000  C
  C184     1.0000 0.80000  0.45180  0.33250  Biso   1.000  C
  H73      1.0000 0.29120  0.02080  0.73080  Biso   1.000  H
  H74      1.0000 0.70880  0.02080  0.76920  Biso   1.000  H
  H75      1.0000 0.79120  0.52080  0.73080  Biso   1.000  H
  H76      1.0000 0.20880  0.52080  0.76920  Biso   1.000  H
  H77      1.0000 0.70880  0.97920  0.26920  Biso   1.000  H
  H78      1.0000 0.29120  0.97920  0.23080  Biso   1.000  H
  H79      1.0000 0.20880  0.47920  0.26920  Biso   1.000  H
  H80      1.0000 0.79120  0.47920  0.23080  Biso   1.000  H
  C185     1.0000 0.32649  0.95680  0.74000  Biso   1.000  C
  C186     1.0000 0.67351  0.95680  0.76000  Biso   1.000  C
  C187     1.0000 0.82649  0.45680  0.74000  Biso   1.000  C
  C188     1.0000 0.17351  0.45680  0.76000  Biso   1.000  C
  C189     1.0000 0.67351  0.04320  0.26000  Biso   1.000  C
  C190     1.0000 0.32649  0.04320  0.24000  Biso   1.000  C
  C191     1.0000 0.17351  0.54320  0.26000  Biso   1.000  C
  C192     1.0000 0.82649  0.54320  0.24000  Biso   1.000  C
  C193     1.0000 0.29070  0.33790  0.91280  Biso   1.000  C
  C194     1.0000 0.70930  0.33790  0.58720  Biso   1.000  C
  C195     1.0000 0.79070  0.83790  0.91280  Biso   1.000  C
  C196     1.0000 0.20930  0.83790  0.58720  Biso   1.000  C
  C197     1.0000 0.70930  0.66210  0.08720  Biso   1.000  C
  C198     1.0000 0.29070  0.66210  0.41280  Biso   1.000  C
  C199     1.0000 0.20930  0.16210  0.08720  Biso   1.000  C
  C200     1.0000 0.79070  0.16210  0.41280  Biso   1.000  C
  C201     1.0000 0.30320  0.46120  0.83930  Biso   1.000  C
  C202     1.0000 0.69680  0.46120  0.66070  Biso   1.000  C
  C203     1.0000 0.80320  0.96120  0.83930  Biso   1.000  C
  C204     1.0000 0.19680  0.96120  0.66070  Biso   1.000  C
  C205     1.0000 0.69680  0.53880  0.16070  Biso   1.000  C
  C206     1.0000 0.30320  0.53880  0.33930  Biso   1.000  C
  C207     1.0000 0.19680  0.03880  0.16070  Biso   1.000  C
  C208     1.0000 0.80320  0.03880  0.33930  Biso   1.000  C
  H81      1.0000 0.32010  0.40010  0.91090  Biso   1.000  H
  H82      1.0000 0.67990  0.40010  0.58910  Biso   1.000  H
  H83      1.0000 0.82010  0.90010  0.91090  Biso   1.000  H
  H84      1.0000 0.17990  0.90010  0.58910  Biso   1.000  H
  H85      1.0000 0.67990  0.59990  0.08910  Biso   1.000  H
  H86      1.0000 0.32010  0.59990  0.41090  Biso   1.000  H
  H87      1.0000 0.17990  0.09990  0.08910  Biso   1.000  H
  H88      1.0000 0.82010  0.09990  0.41090  Biso   1.000  H
  C209     1.0000 0.38456  0.14260  0.57720  Biso   1.000  C
  C210     1.0000 0.61544  0.14260  0.92280  Biso   1.000  C
  C211     1.0000 0.88456  0.64260  0.57720  Biso   1.000  C
  C212     1.0000 0.11544  0.64260  0.92280  Biso   1.000  C
  C213     1.0000 0.61544  0.85740  0.42280  Biso   1.000  C
  C214     1.0000 0.38456  0.85740  0.07720  Biso   1.000  C
  C215     1.0000 0.11544  0.35740  0.42280  Biso   1.000  C
  C216     1.0000 0.88456  0.35740  0.07720  Biso   1.000  C
  H89      1.0000 0.31330  0.61230  0.58370  Biso   1.000  H
  H90      1.0000 0.68670  0.61230  0.91630  Biso   1.000  H
  H91      1.0000 0.81330  0.11230  0.58370  Biso   1.000  H
  H92      1.0000 0.18670  0.11230  0.91630  Biso   1.000  H
  H93      1.0000 0.68670  0.38770  0.41630  Biso   1.000  H
  H94      1.0000 0.31330  0.38770  0.08370  Biso   1.000  H
  H95      1.0000 0.18670  0.88770  0.41630  Biso   1.000  H
  H96      1.0000 0.81330  0.88770  0.08370  Biso   1.000  H
  C217     1.0000 0.27790  0.61510  0.60970  Biso   1.000  C
  C218     1.0000 0.72210  0.61510  0.89030  Biso   1.000  C
  C219     1.0000 0.77790  0.11510  0.60970  Biso   1.000  C
  C220     1.0000 0.22210  0.11510  0.89030  Biso   1.000  C
  C221     1.0000 0.72210  0.38490  0.39030  Biso   1.000  C
  C222     1.0000 0.27790  0.38490  0.10970  Biso   1.000  C
  C223     1.0000 0.22210  0.88490  0.39030  Biso   1.000  C
  C224     1.0000 0.77790  0.88490  0.10970  Biso   1.000  C
  C225     1.0000 0.31400  0.63980  0.67470  Biso   1.000  C
  C226     1.0000 0.68600  0.63980  0.82530  Biso   1.000  C
  C227     1.0000 0.81400  0.13980  0.67470  Biso   1.000  C
  C228     1.0000 0.18600  0.13980  0.82530  Biso   1.000  C
  C229     1.0000 0.68600  0.36020  0.32530  Biso   1.000  C
  C230     1.0000 0.31400  0.36020  0.17470  Biso   1.000  C
  C231     1.0000 0.18600  0.86020  0.32530  Biso   1.000  C
  C232     1.0000 0.81400  0.86020  0.17470  Biso   1.000  C
  C233     1.0000 0.27917  0.35960  0.48670  Biso   1.000  C
  C234     1.0000 0.72083  0.35960  0.01330  Biso   1.000  C
  C235     1.0000 0.77917  0.85960  0.48670  Biso   1.000  C
  C236     1.0000 0.22083  0.85960  0.01330  Biso   1.000  C
  C237     1.0000 0.72083  0.64040  0.51330  Biso   1.000  C
  C238     1.0000 0.27917  0.64040  0.98670  Biso   1.000  C
  C239     1.0000 0.22083  0.14040  0.51330  Biso   1.000  C
  C240     1.0000 0.77917  0.14040  0.98670  Biso   1.000  C
  C241     1.0000 0.31254  0.24670  0.44560  Biso   1.000  C
  C242     1.0000 0.68746  0.24670  0.05440  Biso   1.000  C
  C243     1.0000 0.81254  0.74670  0.44560  Biso   1.000  C
  C244     1.0000 0.18746  0.74670  0.05440  Biso   1.000  C
  C245     1.0000 0.68746  0.75330  0.55440  Biso   1.000  C
  C246     1.0000 0.31254  0.75330  0.94560  Biso   1.000  C
  C247     1.0000 0.18746  0.25330  0.55440  Biso   1.000  C
  C248     1.0000 0.81254  0.25330  0.94560  Biso   1.000  C
  C249     1.0000 0.37387  0.44640  0.46840  Biso   1.000  C
  C250     1.0000 0.62613  0.44640  0.03160  Biso   1.000  C
  C251     1.0000 0.87387  0.94640  0.46840  Biso   1.000  C
  C252     1.0000 0.12613  0.94640  0.03160  Biso   1.000  C
  C253     1.0000 0.62613  0.55360  0.53160  Biso   1.000  C
  C254     1.0000 0.37387  0.55360  0.96840  Biso   1.000  C
  C255     1.0000 0.12613  0.05360  0.53160  Biso   1.000  C
  C256     1.0000 0.87387  0.05360  0.96840  Biso   1.000  C
  H97      1.0000 0.37620  0.47900  0.56440  Biso   1.000  H
  H98      1.0000 0.62380  0.47900  0.93560  Biso   1.000  H
  H99      1.0000 0.87620  0.97900  0.56440  Biso   1.000  H
  H100     1.0000 0.12380  0.97900  0.93560  Biso   1.000  H
  H101     1.0000 0.62380  0.52100  0.43560  Biso   1.000  H
  H102     1.0000 0.37620  0.52100  0.06440  Biso   1.000  H
  H103     1.0000 0.12380  0.02100  0.43560  Biso   1.000  H
  H104     1.0000 0.87620  0.02100  0.06440  Biso   1.000  H
  C257     1.0000 0.36550  0.61690  0.51790  Biso   1.000  C
  C258     1.0000 0.63450  0.61690  0.98210  Biso   1.000  C
  C259     1.0000 0.86550  0.11690  0.51790  Biso   1.000  C
  C260     1.0000 0.13450  0.11690  0.98210  Biso   1.000  C
  C261     1.0000 0.63450  0.38310  0.48210  Biso   1.000  C
  C262     1.0000 0.36550  0.38310  0.01790  Biso   1.000  C
  C263     1.0000 0.13450  0.88310  0.48210  Biso   1.000  C
  C264     1.0000 0.86550  0.88310  0.01790  Biso   1.000  C
  C265     1.0000 0.29560  0.99290  0.54750  Biso   1.000  C
  C266     1.0000 0.70440  0.99290  0.95250  Biso   1.000  C
  C267     1.0000 0.79560  0.49290  0.54750  Biso   1.000  C
  C268     1.0000 0.20440  0.49290  0.95250  Biso   1.000  C
  C269     1.0000 0.70440  0.00710  0.45250  Biso   1.000  C
  C270     1.0000 0.29560  0.00710  0.04750  Biso   1.000  C
  C271     1.0000 0.20440  0.50710  0.45250  Biso   1.000  C
  C272     1.0000 0.79560  0.50710  0.04750  Biso   1.000  C
  C273     1.0000 0.25830  0.29750  0.71360  Biso   1.000  C
  C274     1.0000 0.74170  0.29750  0.78640  Biso   1.000  C
  C275     1.0000 0.75830  0.79750  0.71360  Biso   1.000  C
  C276     1.0000 0.24170  0.79750  0.78640  Biso   1.000  C
  C277     1.0000 0.74170  0.70250  0.28640  Biso   1.000  C
  C278     1.0000 0.25830  0.70250  0.21360  Biso   1.000  C
  C279     1.0000 0.24170  0.20250  0.28640  Biso   1.000  C
  C280     1.0000 0.75830  0.20250  0.21360  Biso   1.000  C
  H105     1.0000 0.39380  0.02140  0.80530  Biso   1.000  H
  H106     1.0000 0.60620  0.02140  0.69470  Biso   1.000  H
  H107     1.0000 0.89380  0.52140  0.80530  Biso   1.000  H
  H108     1.0000 0.10620  0.52140  0.69470  Biso   1.000  H
  H109     1.0000 0.60620  0.97860  0.19470  Biso   1.000  H
  H110     1.0000 0.39380  0.97860  0.30530  Biso   1.000  H
  H111     1.0000 0.10620  0.47860  0.19470  Biso   1.000  H
  H112     1.0000 0.89380  0.47860  0.30530  Biso   1.000  H
  H113     1.0000 0.41610  0.10070  0.81720  Biso   1.000  H
  H114     1.0000 0.58390  0.10070  0.68280  Biso   1.000  H
  H115     1.0000 0.91610  0.60070  0.81720  Biso   1.000  H
  H116     1.0000 0.08390  0.60070  0.68280  Biso   1.000  H
  H117     1.0000 0.58390  0.89930  0.18280  Biso   1.000  H
  H118     1.0000 0.41610  0.89930  0.31720  Biso   1.000  H
  H119     1.0000 0.08390  0.39930  0.18280  Biso   1.000  H
  H120     1.0000 0.91610  0.39930  0.31720  Biso   1.000  H
  H121     1.0000 0.40140  0.09440  0.74310  Biso   1.000  H
  H122     1.0000 0.59860  0.09440  0.75690  Biso   1.000  H
  H123     1.0000 0.90140  0.59440  0.74310  Biso   1.000  H
  H124     1.0000 0.09860  0.59440  0.75690  Biso   1.000  H
  H125     1.0000 0.59860  0.90560  0.25690  Biso   1.000  H
  H126     1.0000 0.40140  0.90560  0.24310  Biso   1.000  H
  H127     1.0000 0.09860  0.40560  0.25690  Biso   1.000  H
  H128     1.0000 0.90140  0.40560  0.24310  Biso   1.000  H
  H129     1.0000 0.36860  0.20810  0.89690  Biso   1.000  H
  H130     1.0000 0.63140  0.20810  0.60310  Biso   1.000  H
  H131     1.0000 0.86860  0.70810  0.89690  Biso   1.000  H
  H132     1.0000 0.13140  0.70810  0.60310  Biso   1.000  H
  H133     1.0000 0.63140  0.79190  0.10310  Biso   1.000  H
  H134     1.0000 0.36860  0.79190  0.39690  Biso   1.000  H
  H135     1.0000 0.13140  0.29190  0.10310  Biso   1.000  H
  H136     1.0000 0.86860  0.29190  0.39690  Biso   1.000  H
  H137     1.0000 0.39830  0.20280  0.90180  Biso   1.000  H
  H138     1.0000 0.60170  0.20280  0.59820  Biso   1.000  H
  H139     1.0000 0.89830  0.70280  0.90180  Biso   1.000  H
  H140     1.0000 0.10170  0.70280  0.59820  Biso   1.000  H
  H141     1.0000 0.60170  0.79720  0.09820  Biso   1.000  H
  H142     1.0000 0.39830  0.79720  0.40180  Biso   1.000  H
  H143     1.0000 0.10170  0.29720  0.09820  Biso   1.000  H
  H144     1.0000 0.89830  0.29720  0.40180  Biso   1.000  H
  H145     1.0000 0.38230  0.10110  0.90590  Biso   1.000  H
  H146     1.0000 0.61770  0.10110  0.59410  Biso   1.000  H
  H147     1.0000 0.88230  0.60110  0.90590  Biso   1.000  H
  H148     1.0000 0.11770  0.60110  0.59410  Biso   1.000  H
  H149     1.0000 0.61770  0.89890  0.09410  Biso   1.000  H
  H150     1.0000 0.38230  0.89890  0.40590  Biso   1.000  H
  H151     1.0000 0.11770  0.39890  0.09410  Biso   1.000  H
  H152     1.0000 0.88230  0.39890  0.40590  Biso   1.000  H
  H153     1.0000 0.31490  0.06510  0.86140  Biso   1.000  H
  H154     1.0000 0.68510  0.06510  0.63860  Biso   1.000  H
  H155     1.0000 0.81490  0.56510  0.86140  Biso   1.000  H
  H156     1.0000 0.18510  0.56510  0.63860  Biso   1.000  H
  H157     1.0000 0.68510  0.93490  0.13860  Biso   1.000  H
  H158     1.0000 0.31490  0.93490  0.36140  Biso   1.000  H
  H159     1.0000 0.18510  0.43490  0.13860  Biso   1.000  H
  H160     1.0000 0.81490  0.43490  0.36140  Biso   1.000  H
  H161     1.0000 0.29330  0.98340  0.84780  Biso   1.000  H
  H162     1.0000 0.70670  0.98340  0.65220  Biso   1.000  H
  H163     1.0000 0.79330  0.48340  0.84780  Biso   1.000  H
  H164     1.0000 0.20670  0.48340  0.65220  Biso   1.000  H
  H165     1.0000 0.70670  0.01660  0.15220  Biso   1.000  H
  H166     1.0000 0.29330  0.01660  0.34780  Biso   1.000  H
  H167     1.0000 0.20670  0.51660  0.15220  Biso   1.000  H
  H168     1.0000 0.79330  0.51660  0.34780  Biso   1.000  H
  H169     1.0000 0.28750  0.10130  0.83730  Biso   1.000  H
  H170     1.0000 0.71250  0.10130  0.66270  Biso   1.000  H
  H171     1.0000 0.78750  0.60130  0.83730  Biso   1.000  H
  H172     1.0000 0.21250  0.60130  0.66270  Biso   1.000  H
  H173     1.0000 0.71250  0.89870  0.16270  Biso   1.000  H
  H174     1.0000 0.28750  0.89870  0.33730  Biso   1.000  H
  H175     1.0000 0.21250  0.39870  0.16270  Biso   1.000  H
  H176     1.0000 0.78750  0.39870  0.33730  Biso   1.000  H
  H177     1.0000 0.32610  0.94460  0.68960  Biso   1.000  H
  H178     1.0000 0.67390  0.94460  0.81040  Biso   1.000  H
  H179     1.0000 0.82610  0.44460  0.68960  Biso   1.000  H
  H180     1.0000 0.17390  0.44460  0.81040  Biso   1.000  H
  H181     1.0000 0.67390  0.05540  0.31040  Biso   1.000  H
  H182     1.0000 0.32610  0.05540  0.18960  Biso   1.000  H
  H183     1.0000 0.17390  0.55540  0.31040  Biso   1.000  H
  H184     1.0000 0.82610  0.55540  0.18960  Biso   1.000  H
  H185     1.0000 0.32250  0.89390  0.76430  Biso   1.000  H
  H186     1.0000 0.67750  0.89390  0.73570  Biso   1.000  H
  H187     1.0000 0.82250  0.39390  0.76430  Biso   1.000  H
  H188     1.0000 0.17750  0.39390  0.73570  Biso   1.000  H
  H189     1.0000 0.67750  0.10610  0.23570  Biso   1.000  H
  H190     1.0000 0.32250  0.10610  0.26430  Biso   1.000  H
  H191     1.0000 0.17750  0.60610  0.23570  Biso   1.000  H
  H192     1.0000 0.82250  0.60610  0.26430  Biso   1.000  H
  H193     1.0000 0.34310  0.97970  0.75540  Biso   1.000  H
  H194     1.0000 0.65690  0.97970  0.74460  Biso   1.000  H
  H195     1.0000 0.84310  0.47970  0.75540  Biso   1.000  H
  H196     1.0000 0.15690  0.47970  0.74460  Biso   1.000  H
  H197     1.0000 0.65690  0.02030  0.24460  Biso   1.000  H
  H198     1.0000 0.34310  0.02030  0.25540  Biso   1.000  H
  H199     1.0000 0.15690  0.52030  0.24460  Biso   1.000  H
  H200     1.0000 0.84310  0.52030  0.25540  Biso   1.000  H
  H201     1.0000 0.27440  0.36590  0.91500  Biso   1.000  H
  H202     1.0000 0.72560  0.36590  0.58500  Biso   1.000  H
  H203     1.0000 0.77440  0.86590  0.91500  Biso   1.000  H
  H204     1.0000 0.22560  0.86590  0.58500  Biso   1.000  H
  H205     1.0000 0.72560  0.63410  0.08500  Biso   1.000  H
  H206     1.0000 0.27440  0.63410  0.41500  Biso   1.000  H
  H207     1.0000 0.22560  0.13410  0.08500  Biso   1.000  H
  H208     1.0000 0.77440  0.13410  0.41500  Biso   1.000  H
  H209     1.0000 0.29480  0.27820  0.93830  Biso   1.000  H
  H210     1.0000 0.70520  0.27820  0.56170  Biso   1.000  H
  H211     1.0000 0.79480  0.77820  0.93830  Biso   1.000  H
  H212     1.0000 0.20520  0.77820  0.56170  Biso   1.000  H
  H213     1.0000 0.70520  0.72180  0.06170  Biso   1.000  H
  H214     1.0000 0.29480  0.72180  0.43830  Biso   1.000  H
  H215     1.0000 0.20520  0.22180  0.06170  Biso   1.000  H
  H216     1.0000 0.79480  0.22180  0.43830  Biso   1.000  H
  H217     1.0000 0.31610  0.51100  0.85220  Biso   1.000  H
  H218     1.0000 0.68390  0.51100  0.64780  Biso   1.000  H
  H219     1.0000 0.81610  0.01100  0.85220  Biso   1.000  H
  H220     1.0000 0.18390  0.01100  0.64780  Biso   1.000  H
  H221     1.0000 0.68390  0.48900  0.14780  Biso   1.000  H
  H222     1.0000 0.31610  0.48900  0.35220  Biso   1.000  H
  H223     1.0000 0.18390  0.98900  0.14780  Biso   1.000  H
  H224     1.0000 0.81610  0.98900  0.35220  Biso   1.000  H
  H225     1.0000 0.28680  0.48950  0.84830  Biso   1.000  H
  H226     1.0000 0.71320  0.48950  0.65170  Biso   1.000  H
  H227     1.0000 0.78680  0.98950  0.84830  Biso   1.000  H
  H228     1.0000 0.21320  0.98950  0.65170  Biso   1.000  H
  H229     1.0000 0.71320  0.51050  0.15170  Biso   1.000  H
  H230     1.0000 0.28680  0.51050  0.34830  Biso   1.000  H
  H231     1.0000 0.21320  0.01050  0.15170  Biso   1.000  H
  H232     1.0000 0.78680  0.01050  0.34830  Biso   1.000  H
  H233     1.0000 0.30410  0.44460  0.78970  Biso   1.000  H
  H234     1.0000 0.69590  0.44460  0.71030  Biso   1.000  H
  H235     1.0000 0.80410  0.94460  0.78970  Biso   1.000  H
  H236     1.0000 0.19590  0.94460  0.71030  Biso   1.000  H
  H237     1.0000 0.69590  0.55540  0.21030  Biso   1.000  H
  H238     1.0000 0.30410  0.55540  0.28970  Biso   1.000  H
  H239     1.0000 0.19590  0.05540  0.21030  Biso   1.000  H
  H240     1.0000 0.80410  0.05540  0.28970  Biso   1.000  H
  C281     1.0000 0.38563  0.03800  0.57010  Biso   1.000  C
  C282     1.0000 0.61437  0.03800  0.92990  Biso   1.000  C
  C283     1.0000 0.88563  0.53800  0.57010  Biso   1.000  C
  C284     1.0000 0.11437  0.53800  0.92990  Biso   1.000  C
  C285     1.0000 0.61437  0.96200  0.42990  Biso   1.000  C
  C286     1.0000 0.38563  0.96200  0.07010  Biso   1.000  C
  C287     1.0000 0.11437  0.46200  0.42990  Biso   1.000  C
  C288     1.0000 0.88563  0.46200  0.07010  Biso   1.000  C
  C289     1.0000 0.40408  0.20230  0.55540  Biso   1.000  C
  C290     1.0000 0.59592  0.20230  0.94460  Biso   1.000  C
  C291     1.0000 0.90408  0.70230  0.55540  Biso   1.000  C
  C292     1.0000 0.09592  0.70230  0.94460  Biso   1.000  C
  C293     1.0000 0.59592  0.79770  0.44460  Biso   1.000  C
  C294     1.0000 0.40408  0.79770  0.05540  Biso   1.000  C
  C295     1.0000 0.09592  0.29770  0.44460  Biso   1.000  C
  C296     1.0000 0.90408  0.29770  0.05540  Biso   1.000  C
  H241     1.0000 0.27440  0.60910  0.55940  Biso   1.000  H
  H242     1.0000 0.72560  0.60910  0.94060  Biso   1.000  H
  H243     1.0000 0.77440  0.10910  0.55940  Biso   1.000  H
  H244     1.0000 0.22560  0.10910  0.94060  Biso   1.000  H
  H245     1.0000 0.72560  0.39090  0.44060  Biso   1.000  H
  H246     1.0000 0.27440  0.39090  0.05940  Biso   1.000  H
  H247     1.0000 0.22560  0.89090  0.44060  Biso   1.000  H
  H248     1.0000 0.77440  0.89090  0.05940  Biso   1.000  H
  H249     1.0000 0.27450  0.68450  0.62470  Biso   1.000  H
  H250     1.0000 0.72550  0.68450  0.87530  Biso   1.000  H
  H251     1.0000 0.77450  0.18450  0.62470  Biso   1.000  H
  H252     1.0000 0.22550  0.18450  0.87530  Biso   1.000  H
  H253     1.0000 0.72550  0.31550  0.37530  Biso   1.000  H
  H254     1.0000 0.27450  0.31550  0.12470  Biso   1.000  H
  H255     1.0000 0.22550  0.81550  0.37530  Biso   1.000  H
  H256     1.0000 0.77450  0.81550  0.12470  Biso   1.000  H
  H257     1.0000 0.26720  0.56790  0.63440  Biso   1.000  H
  H258     1.0000 0.73280  0.56790  0.86560  Biso   1.000  H
  H259     1.0000 0.76720  0.06790  0.63440  Biso   1.000  H
  H260     1.0000 0.23280  0.06790  0.86560  Biso   1.000  H
  H261     1.0000 0.73280  0.43210  0.36560  Biso   1.000  H
  H262     1.0000 0.26720  0.43210  0.13440  Biso   1.000  H
  H263     1.0000 0.23280  0.93210  0.36560  Biso   1.000  H
  H264     1.0000 0.76720  0.93210  0.13440  Biso   1.000  H
  H265     1.0000 0.32320  0.60610  0.71100  Biso   1.000  H
  H266     1.0000 0.67680  0.60610  0.78900  Biso   1.000  H
  H267     1.0000 0.82320  0.10610  0.71100  Biso   1.000  H
  H268     1.0000 0.17680  0.10610  0.78900  Biso   1.000  H
  H269     1.0000 0.67680  0.39390  0.28900  Biso   1.000  H
  H270     1.0000 0.32320  0.39390  0.21100  Biso   1.000  H
  H271     1.0000 0.17680  0.89390  0.28900  Biso   1.000  H
  H272     1.0000 0.82320  0.89390  0.21100  Biso   1.000  H
  H273     1.0000 0.31220  0.71130  0.67590  Biso   1.000  H
  H274     1.0000 0.68780  0.71130  0.82410  Biso   1.000  H
  H275     1.0000 0.81220  0.21130  0.67590  Biso   1.000  H
  H276     1.0000 0.18780  0.21130  0.82410  Biso   1.000  H
  H277     1.0000 0.68780  0.28870  0.32410  Biso   1.000  H
  H278     1.0000 0.31220  0.28870  0.17590  Biso   1.000  H
  H279     1.0000 0.18780  0.78870  0.32410  Biso   1.000  H
  H280     1.0000 0.81220  0.78870  0.17590  Biso   1.000  H
  H281     1.0000 0.26780  0.35210  0.52510  Biso   1.000  H
  H282     1.0000 0.73220  0.35210  0.97490  Biso   1.000  H
  H283     1.0000 0.76780  0.85210  0.52510  Biso   1.000  H
  H284     1.0000 0.23220  0.85210  0.97490  Biso   1.000  H
  H285     1.0000 0.73220  0.64790  0.47490  Biso   1.000  H
  H286     1.0000 0.26780  0.64790  0.02510  Biso   1.000  H
  H287     1.0000 0.23220  0.14790  0.47490  Biso   1.000  H
  H288     1.0000 0.76780  0.14790  0.02510  Biso   1.000  H
  H289     1.0000 0.26980  0.35140  0.44210  Biso   1.000  H
  H290     1.0000 0.73020  0.35140  0.05790  Biso   1.000  H
  H291     1.0000 0.76980  0.85140  0.44210  Biso   1.000  H
  H292     1.0000 0.23020  0.85140  0.05790  Biso   1.000  H
  H293     1.0000 0.73020  0.64860  0.55790  Biso   1.000  H
  H294     1.0000 0.26980  0.64860  0.94210  Biso   1.000  H
  H295     1.0000 0.23020  0.14860  0.55790  Biso   1.000  H
  H296     1.0000 0.76980  0.14860  0.94210  Biso   1.000  H
  H297     1.0000 0.28680  0.42700  0.48860  Biso   1.000  H
  H298     1.0000 0.71320  0.42700  0.01140  Biso   1.000  H
  H299     1.0000 0.78680  0.92700  0.48860  Biso   1.000  H
  H300     1.0000 0.21320  0.92700  0.01140  Biso   1.000  H
  H301     1.0000 0.71320  0.57300  0.51140  Biso   1.000  H
  H302     1.0000 0.28680  0.57300  0.98860  Biso   1.000  H
  H303     1.0000 0.21320  0.07300  0.51140  Biso   1.000  H
  H304     1.0000 0.78680  0.07300  0.98860  Biso   1.000  H
  H305     1.0000 0.32980  0.25370  0.46280  Biso   1.000  H
  H306     1.0000 0.67020  0.25370  0.03720  Biso   1.000  H
  H307     1.0000 0.82980  0.75370  0.46280  Biso   1.000  H
  H308     1.0000 0.17020  0.75370  0.03720  Biso   1.000  H
  H309     1.0000 0.67020  0.74630  0.53720  Biso   1.000  H
  H310     1.0000 0.32980  0.74630  0.96280  Biso   1.000  H
  H311     1.0000 0.17020  0.24630  0.53720  Biso   1.000  H
  H312     1.0000 0.82980  0.24630  0.96280  Biso   1.000  H
  H313     1.0000 0.31030  0.28150  0.40080  Biso   1.000  H
  H314     1.0000 0.68970  0.28150  0.09920  Biso   1.000  H
  H315     1.0000 0.81030  0.78150  0.40080  Biso   1.000  H
  H316     1.0000 0.18970  0.78150  0.09920  Biso   1.000  H
  H317     1.0000 0.68970  0.71850  0.59920  Biso   1.000  H
  H318     1.0000 0.31030  0.71850  0.90080  Biso   1.000  H
  H319     1.0000 0.18970  0.21850  0.59920  Biso   1.000  H
  H320     1.0000 0.81030  0.21850  0.90080  Biso   1.000  H
  H321     1.0000 0.30850  0.17470  0.43970  Biso   1.000  H
  H322     1.0000 0.69150  0.17470  0.06030  Biso   1.000  H
  H323     1.0000 0.80850  0.67470  0.43970  Biso   1.000  H
  H324     1.0000 0.19150  0.67470  0.06030  Biso   1.000  H
  H325     1.0000 0.69150  0.82530  0.56030  Biso   1.000  H
  H326     1.0000 0.30850  0.82530  0.93970  Biso   1.000  H
  H327     1.0000 0.19150  0.32530  0.56030  Biso   1.000  H
  H328     1.0000 0.80850  0.32530  0.93970  Biso   1.000  H
  H329     1.0000 0.37680  0.37550  0.48130  Biso   1.000  H
  H330     1.0000 0.62320  0.37550  0.01870  Biso   1.000  H
  H331     1.0000 0.87680  0.87550  0.48130  Biso   1.000  H
  H332     1.0000 0.12320  0.87550  0.01870  Biso   1.000  H
  H333     1.0000 0.62320  0.62450  0.51870  Biso   1.000  H
  H334     1.0000 0.37680  0.62450  0.98130  Biso   1.000  H
  H335     1.0000 0.12320  0.12450  0.51870  Biso   1.000  H
  H336     1.0000 0.87680  0.12450  0.98130  Biso   1.000  H
  H337     1.0000 0.38950  0.47750  0.45490  Biso   1.000  H
  H338     1.0000 0.61050  0.47750  0.04510  Biso   1.000  H
  H339     1.0000 0.88950  0.97750  0.45490  Biso   1.000  H
  H340     1.0000 0.11050  0.97750  0.04510  Biso   1.000  H
  H341     1.0000 0.61050  0.52250  0.54510  Biso   1.000  H
  H342     1.0000 0.38950  0.52250  0.95490  Biso   1.000  H
  H343     1.0000 0.11050  0.02250  0.54510  Biso   1.000  H
  H344     1.0000 0.88950  0.02250  0.95490  Biso   1.000  H
  H345     1.0000 0.36170  0.44970  0.42920  Biso   1.000  H
  H346     1.0000 0.63830  0.44970  0.07080  Biso   1.000  H
  H347     1.0000 0.86170  0.94970  0.42920  Biso   1.000  H
  H348     1.0000 0.13830  0.94970  0.07080  Biso   1.000  H
  H349     1.0000 0.63830  0.55030  0.57080  Biso   1.000  H
  H350     1.0000 0.36170  0.55030  0.92920  Biso   1.000  H
  H351     1.0000 0.13830  0.05030  0.57080  Biso   1.000  H
  H352     1.0000 0.86170  0.05030  0.92920  Biso   1.000  H
  H353     1.0000 0.35830  0.63780  0.47250  Biso   1.000  H
  H354     1.0000 0.64170  0.63780  0.02750  Biso   1.000  H
  H355     1.0000 0.85830  0.13780  0.47250  Biso   1.000  H
  H356     1.0000 0.14170  0.13780  0.02750  Biso   1.000  H
  H357     1.0000 0.64170  0.36220  0.52750  Biso   1.000  H
  H358     1.0000 0.35830  0.36220  0.97250  Biso   1.000  H
  H359     1.0000 0.14170  0.86220  0.52750  Biso   1.000  H
  H360     1.0000 0.85830  0.86220  0.97250  Biso   1.000  H
  H361     1.0000 0.38270  0.64090  0.52260  Biso   1.000  H
  H362     1.0000 0.61730  0.64090  0.97740  Biso   1.000  H
  H363     1.0000 0.88270  0.14090  0.52260  Biso   1.000  H
  H364     1.0000 0.11730  0.14090  0.97740  Biso   1.000  H
  H365     1.0000 0.61730  0.35910  0.47740  Biso   1.000  H
  H366     1.0000 0.38270  0.35910  0.02260  Biso   1.000  H
  H367     1.0000 0.11730  0.85910  0.47740  Biso   1.000  H
  H368     1.0000 0.88270  0.85910  0.02260  Biso   1.000  H
  H369     1.0000 0.35580  0.64620  0.55510  Biso   1.000  H
  H370     1.0000 0.64420  0.64620  0.94490  Biso   1.000  H
  H371     1.0000 0.85580  0.14620  0.55510  Biso   1.000  H
  H372     1.0000 0.14420  0.14620  0.94490  Biso   1.000  H
  H373     1.0000 0.64420  0.35380  0.44490  Biso   1.000  H
  H374     1.0000 0.35580  0.35380  0.05510  Biso   1.000  H
  H375     1.0000 0.14420  0.85380  0.44490  Biso   1.000  H
  H376     1.0000 0.85580  0.85380  0.05510  Biso   1.000  H
  C297     1.0000 0.27570  0.92280  0.56410  Biso   1.000  C
  C298     1.0000 0.72430  0.92280  0.93590  Biso   1.000  C
  C299     1.0000 0.77570  0.42280  0.56410  Biso   1.000  C
  C300     1.0000 0.22430  0.42280  0.93590  Biso   1.000  C
  C301     1.0000 0.72430  0.07720  0.43590  Biso   1.000  C
  C302     1.0000 0.27570  0.07720  0.06410  Biso   1.000  C
  C303     1.0000 0.22430  0.57720  0.43590  Biso   1.000  C
  C304     1.0000 0.77570  0.57720  0.06410  Biso   1.000  C
  C305     1.0000 0.31440  0.96010  0.52080  Biso   1.000  C
  C306     1.0000 0.68560  0.96010  0.97920  Biso   1.000  C
  C307     1.0000 0.81440  0.46010  0.52080  Biso   1.000  C
  C308     1.0000 0.18560  0.46010  0.97920  Biso   1.000  C
  C309     1.0000 0.68560  0.03990  0.47920  Biso   1.000  C
  C310     1.0000 0.31440  0.03990  0.02080  Biso   1.000  C
  C311     1.0000 0.18560  0.53990  0.47920  Biso   1.000  C
  C312     1.0000 0.81440  0.53990  0.02080  Biso   1.000  C
  H377     1.0000 0.28760  0.02530  0.50530  Biso   1.000  H
  H378     1.0000 0.71240  0.02530  0.99470  Biso   1.000  H
  H379     1.0000 0.78760  0.52530  0.50530  Biso   1.000  H
  H380     1.0000 0.21240  0.52530  0.99470  Biso   1.000  H
  H381     1.0000 0.71240  0.97470  0.49470  Biso   1.000  H
  H382     1.0000 0.28760  0.97470  0.00530  Biso   1.000  H
  H383     1.0000 0.21240  0.47470  0.49470  Biso   1.000  H
  H384     1.0000 0.78760  0.47470  0.00530  Biso   1.000  H
  H385     1.0000 0.27040  0.32630  0.74900  Biso   1.000  H
  H386     1.0000 0.72960  0.32630  0.75100  Biso   1.000  H
  H387     1.0000 0.77040  0.82630  0.74900  Biso   1.000  H
  H388     1.0000 0.22960  0.82630  0.75100  Biso   1.000  H
  H389     1.0000 0.72960  0.67370  0.25100  Biso   1.000  H
  H390     1.0000 0.27040  0.67370  0.24900  Biso   1.000  H
  H391     1.0000 0.22960  0.17370  0.25100  Biso   1.000  H
  H392     1.0000 0.77040  0.17370  0.24900  Biso   1.000  H
  C313     1.0000 0.24430  0.24820  0.74220  Biso   1.000  C
  C314     1.0000 0.75570  0.24820  0.75780  Biso   1.000  C
  C315     1.0000 0.74430  0.74820  0.74220  Biso   1.000  C
  C316     1.0000 0.25570  0.74820  0.75780  Biso   1.000  C
  C317     1.0000 0.75570  0.75180  0.25780  Biso   1.000  C
  C318     1.0000 0.24430  0.75180  0.24220  Biso   1.000  C
  C319     1.0000 0.25570  0.25180  0.25780  Biso   1.000  C
  C320     1.0000 0.74430  0.25180  0.24220  Biso   1.000  C
  C321     1.0000 0.25120  0.36880  0.67230  Biso   1.000  C
  C322     1.0000 0.74880  0.36880  0.82770  Biso   1.000  C
  C323     1.0000 0.75120  0.86880  0.67230  Biso   1.000  C
  C324     1.0000 0.24880  0.86880  0.82770  Biso   1.000  C
  C325     1.0000 0.74880  0.63120  0.32770  Biso   1.000  C
  C326     1.0000 0.25120  0.63120  0.17230  Biso   1.000  C
  C327     1.0000 0.24880  0.13120  0.32770  Biso   1.000  C
  C328     1.0000 0.75120  0.13120  0.17230  Biso   1.000  C
  C329     1.0000 0.40620  0.99310  0.54110  Biso   1.000  C
  C330     1.0000 0.59380  0.99310  0.95890  Biso   1.000  C
  C331     1.0000 0.90620  0.49310  0.54110  Biso   1.000  C
  C332     1.0000 0.09380  0.49310  0.95890  Biso   1.000  C
  C333     1.0000 0.59380  0.00690  0.45890  Biso   1.000  C
  C334     1.0000 0.40620  0.00690  0.04110  Biso   1.000  C
  C335     1.0000 0.09380  0.50690  0.45890  Biso   1.000  C
  C336     1.0000 0.90620  0.50690  0.04110  Biso   1.000  C
  H393     1.0000 0.37230  0.99720  0.58500  Biso   1.000  H
  H394     1.0000 0.62770  0.99720  0.91500  Biso   1.000  H
  H395     1.0000 0.87230  0.49720  0.58500  Biso   1.000  H
  H396     1.0000 0.12770  0.49720  0.91500  Biso   1.000  H
  H397     1.0000 0.62770  0.00280  0.41500  Biso   1.000  H
  H398     1.0000 0.37230  0.00280  0.08500  Biso   1.000  H
  H399     1.0000 0.12770  0.50280  0.41500  Biso   1.000  H
  H400     1.0000 0.87230  0.50280  0.08500  Biso   1.000  H
  H401     1.0000 0.40340  0.27380  0.56030  Biso   1.000  H
  H402     1.0000 0.59660  0.27380  0.93970  Biso   1.000  H
  H403     1.0000 0.90340  0.77380  0.56030  Biso   1.000  H
  H404     1.0000 0.09660  0.77380  0.93970  Biso   1.000  H
  H405     1.0000 0.59660  0.72620  0.43970  Biso   1.000  H
  H406     1.0000 0.40340  0.72620  0.06030  Biso   1.000  H
  H407     1.0000 0.09660  0.22620  0.43970  Biso   1.000  H
  H408     1.0000 0.90340  0.22620  0.06030  Biso   1.000  H
  C337     1.0000 0.42465  0.15740  0.52650  Biso   1.000  C
  C338     1.0000 0.57535  0.15740  0.97350  Biso   1.000  C
  C339     1.0000 0.92465  0.65740  0.52650  Biso   1.000  C
  C340     1.0000 0.07535  0.65740  0.97350  Biso   1.000  C
  C341     1.0000 0.57535  0.84260  0.47350  Biso   1.000  C
  C342     1.0000 0.42465  0.84260  0.02650  Biso   1.000  C
  C343     1.0000 0.07535  0.34260  0.47350  Biso   1.000  C
  C344     1.0000 0.92465  0.34260  0.02650  Biso   1.000  C
  H409     1.0000 0.28160  0.87660  0.60110  Biso   1.000  H
  H410     1.0000 0.71840  0.87660  0.89890  Biso   1.000  H
  H411     1.0000 0.78160  0.37660  0.60110  Biso   1.000  H
  H412     1.0000 0.21840  0.37660  0.89890  Biso   1.000  H
  H413     1.0000 0.71840  0.12340  0.39890  Biso   1.000  H
  H414     1.0000 0.28160  0.12340  0.10110  Biso   1.000  H
  H415     1.0000 0.21840  0.62340  0.39890  Biso   1.000  H
  H416     1.0000 0.78160  0.62340  0.10110  Biso   1.000  H
  H417     1.0000 0.27080  0.88370  0.52240  Biso   1.000  H
  H418     1.0000 0.72920  0.88370  0.97760  Biso   1.000  H
  H419     1.0000 0.77080  0.38370  0.52240  Biso   1.000  H
  H420     1.0000 0.22920  0.38370  0.97760  Biso   1.000  H
  H421     1.0000 0.72920  0.11630  0.47760  Biso   1.000  H
  H422     1.0000 0.27080  0.11630  0.02240  Biso   1.000  H
  H423     1.0000 0.22920  0.61630  0.47760  Biso   1.000  H
  H424     1.0000 0.77080  0.61630  0.02240  Biso   1.000  H
  H425     1.0000 0.26140  0.96100  0.57990  Biso   1.000  H
  H426     1.0000 0.73860  0.96100  0.92010  Biso   1.000  H
  H427     1.0000 0.76140  0.46100  0.57990  Biso   1.000  H
  H428     1.0000 0.23860  0.46100  0.92010  Biso   1.000  H
  H429     1.0000 0.73860  0.03900  0.42010  Biso   1.000  H
  H430     1.0000 0.26140  0.03900  0.07990  Biso   1.000  H
  H431     1.0000 0.23860  0.53900  0.42010  Biso   1.000  H
  H432     1.0000 0.76140  0.53900  0.07990  Biso   1.000  H
  H433     1.0000 0.32000  0.00840  0.48600  Biso   1.000  H
  H434     1.0000 0.68000  0.00840  0.01400  Biso   1.000  H
  H435     1.0000 0.82000  0.50840  0.48600  Biso   1.000  H
  H436     1.0000 0.18000  0.50840  0.01400  Biso   1.000  H
  H437     1.0000 0.68000  0.99160  0.51400  Biso   1.000  H
  H438     1.0000 0.32000  0.99160  0.98600  Biso   1.000  H
  H439     1.0000 0.18000  0.49160  0.51400  Biso   1.000  H
  H440     1.0000 0.82000  0.49160  0.98600  Biso   1.000  H
  H441     1.0000 0.31060  0.89510  0.49820  Biso   1.000  H
  H442     1.0000 0.68940  0.89510  0.00180  Biso   1.000  H
  H443     1.0000 0.81060  0.39510  0.49820  Biso   1.000  H
  H444     1.0000 0.18940  0.39510  0.00180  Biso   1.000  H
  H445     1.0000 0.68940  0.10490  0.50180  Biso   1.000  H
  H446     1.0000 0.31060  0.10490  0.99820  Biso   1.000  H
  H447     1.0000 0.18940  0.60490  0.50180  Biso   1.000  H
  H448     1.0000 0.81060  0.60490  0.99820  Biso   1.000  H
  H449     1.0000 0.32760  0.95060  0.55690  Biso   1.000  H
  H450     1.0000 0.67240  0.95060  0.94310  Biso   1.000  H
  H451     1.0000 0.82760  0.45060  0.55690  Biso   1.000  H
  H452     1.0000 0.17240  0.45060  0.94310  Biso   1.000  H
  H453     1.0000 0.67240  0.04940  0.44310  Biso   1.000  H
  H454     1.0000 0.32760  0.04940  0.05690  Biso   1.000  H
  H455     1.0000 0.17240  0.54940  0.44310  Biso   1.000  H
  H456     1.0000 0.82760  0.54940  0.05690  Biso   1.000  H
  H457     1.0000 0.22700  0.25980  0.73560  Biso   1.000  H
  H458     1.0000 0.77300  0.25980  0.76440  Biso   1.000  H
  H459     1.0000 0.72700  0.75980  0.73560  Biso   1.000  H
  H460     1.0000 0.27300  0.75980  0.76440  Biso   1.000  H
  H461     1.0000 0.77300  0.74020  0.26440  Biso   1.000  H
  H462     1.0000 0.22700  0.74020  0.23560  Biso   1.000  H
  H463     1.0000 0.27300  0.24020  0.26440  Biso   1.000  H
  H464     1.0000 0.72700  0.24020  0.23560  Biso   1.000  H
  H465     1.0000 0.25020  0.19580  0.77260  Biso   1.000  H
  H466     1.0000 0.74980  0.19580  0.72740  Biso   1.000  H
  H467     1.0000 0.75020  0.69580  0.77260  Biso   1.000  H
  H468     1.0000 0.24980  0.69580  0.72740  Biso   1.000  H
  H469     1.0000 0.74980  0.80420  0.22740  Biso   1.000  H
  H470     1.0000 0.25020  0.80420  0.27260  Biso   1.000  H
  H471     1.0000 0.24980  0.30420  0.22740  Biso   1.000  H
  H472     1.0000 0.75020  0.30420  0.27260  Biso   1.000  H
  C345     1.0000 0.42571  0.05280  0.51933  Biso   1.000  C
  C346     1.0000 0.57429  0.05280  0.98067  Biso   1.000  C
  C347     1.0000 0.92571  0.55280  0.51933  Biso   1.000  C
  C348     1.0000 0.07429  0.55280  0.98067  Biso   1.000  C
  C349     1.0000 0.57429  0.94720  0.48067  Biso   1.000  C
  C350     1.0000 0.42571  0.94720  0.01933  Biso   1.000  C
  C351     1.0000 0.07429  0.44720  0.48067  Biso   1.000  C
  C352     1.0000 0.92571  0.44720  0.01933  Biso   1.000  C
  H473     1.0000 0.40690  0.92160  0.53620  Biso   1.000  H
  H474     1.0000 0.59310  0.92160  0.96380  Biso   1.000  H
  H475     1.0000 0.90690  0.42160  0.53620  Biso   1.000  H
  H476     1.0000 0.09310  0.42160  0.96380  Biso   1.000  H
  H477     1.0000 0.59310  0.07840  0.46380  Biso   1.000  H
  H478     1.0000 0.40690  0.07840  0.03620  Biso   1.000  H
  H479     1.0000 0.09310  0.57840  0.46380  Biso   1.000  H
  H480     1.0000 0.90690  0.57840  0.03620  Biso   1.000  H
  H481     1.0000 0.43800  0.19820  0.51160  Biso   1.000  H
  H482     1.0000 0.56200  0.19820  0.98840  Biso   1.000  H
  H483     1.0000 0.93800  0.69820  0.51160  Biso   1.000  H
  H484     1.0000 0.06200  0.69820  0.98840  Biso   1.000  H
  H485     1.0000 0.56200  0.80180  0.48840  Biso   1.000  H
  H486     1.0000 0.43800  0.80180  0.01160  Biso   1.000  H
  H487     1.0000 0.06200  0.30180  0.48840  Biso   1.000  H
  H488     1.0000 0.93800  0.30180  0.01160  Biso   1.000  H
  C353     1.0000 0.44644  0.00620  0.48190  Biso   1.000  C
  C354     1.0000 0.55356  0.00620  0.01810  Biso   1.000  C
  C355     1.0000 0.94644  0.50620  0.48190  Biso   1.000  C
  C356     1.0000 0.05356  0.50620  0.01810  Biso   1.000  C
  C357     1.0000 0.55356  0.99380  0.51810  Biso   1.000  C
  C358     1.0000 0.44644  0.99380  0.98190  Biso   1.000  C
  C359     1.0000 0.05356  0.49380  0.51810  Biso   1.000  C
  C360     1.0000 0.94644  0.49380  0.98190  Biso   1.000  C
  C361     1.0000 0.45903  0.06134  0.43270  Biso   1.000  C
  C362     1.0000 0.54097  0.06134  0.06730  Biso   1.000  C
  C363     1.0000 0.95903  0.56134  0.43270  Biso   1.000  C
  C364     1.0000 0.04097  0.56134  0.06730  Biso   1.000  C
  C365     1.0000 0.54097  0.93866  0.56730  Biso   1.000  C
  C366     1.0000 0.45903  0.93866  0.93270  Biso   1.000  C
  C367     1.0000 0.04097  0.43866  0.56730  Biso   1.000  C
  C368     1.0000 0.95903  0.43866  0.93270  Biso   1.000  C
  C369     1.0000 0.45351  0.90720  0.49718  Biso   1.000  C
  C370     1.0000 0.54649  0.90720  0.00282  Biso   1.000  C
  C371     1.0000 0.95351  0.40720  0.49718  Biso   1.000  C
  C372     1.0000 0.04649  0.40720  0.00282  Biso   1.000  C
  C373     1.0000 0.54649  0.09280  0.50282  Biso   1.000  C
  C374     1.0000 0.45351  0.09280  0.99718  Biso   1.000  C
  C375     1.0000 0.04649  0.59280  0.50282  Biso   1.000  C
  C376     1.0000 0.95351  0.59280  0.99718  Biso   1.000  C
  C377     1.0000 0.48575  0.91845  0.41395  Biso   1.000  C
  C378     1.0000 0.51425  0.91845  0.08605  Biso   1.000  C
  C379     1.0000 0.98575  0.41845  0.41395  Biso   1.000  C
  C380     1.0000 0.01425  0.41845  0.08605  Biso   1.000  C
  C381     1.0000 0.51425  0.08155  0.58605  Biso   1.000  C
  C382     1.0000 0.48575  0.08155  0.91395  Biso   1.000  C
  C383     1.0000 0.01425  0.58155  0.58605  Biso   1.000  C
  C384     1.0000 0.98575  0.58155  0.91395  Biso   1.000  C
  H489     1.0000 0.45420  0.12900  0.42220  Biso   1.000  H
  H490     1.0000 0.54580  0.12900  0.07780  Biso   1.000  H
  H491     1.0000 0.95420  0.62900  0.42220  Biso   1.000  H
  H492     1.0000 0.04580  0.62900  0.07780  Biso   1.000  H
  H493     1.0000 0.54580  0.87100  0.57780  Biso   1.000  H
  H494     1.0000 0.45420  0.87100  0.92220  Biso   1.000  H
  H495     1.0000 0.04580  0.37100  0.57780  Biso   1.000  H
  H496     1.0000 0.95420  0.37100  0.92220  Biso   1.000  H
  H497     1.0000 0.44490  0.86950  0.53080  Biso   1.000  H
  H498     1.0000 0.55510  0.86950  0.96920  Biso   1.000  H
  H499     1.0000 0.94490  0.36950  0.53080  Biso   1.000  H
  H500     1.0000 0.05510  0.36950  0.96920  Biso   1.000  H
  H501     1.0000 0.55510  0.13050  0.46920  Biso   1.000  H
  H502     1.0000 0.44490  0.13050  0.03080  Biso   1.000  H
  H503     1.0000 0.05510  0.63050  0.46920  Biso   1.000  H
  H504     1.0000 0.94490  0.63050  0.03080  Biso   1.000  H
  H505     1.0000 0.49920  0.88850  0.39070  Biso   1.000  H
  H506     1.0000 0.50080  0.88850  0.10930  Biso   1.000  H
  H507     1.0000 0.99920  0.38850  0.39070  Biso   1.000  H
  H508     1.0000 0.00080  0.38850  0.10930  Biso   1.000  H
  H509     1.0000 0.50080  0.11150  0.60930  Biso   1.000  H
  H510     1.0000 0.49920  0.11150  0.89070  Biso   1.000  H
  H511     1.0000 0.00080  0.61150  0.60930  Biso   1.000  H
  H512     1.0000 0.99920  0.61150  0.89070  Biso   1.000  H
  O105     1.0000 0.36275  0.17290  0.68190  Biso   1.000  O
  O106     1.0000 0.63725  0.17290  0.81810  Biso   1.000  O
  O107     1.0000 0.86275  0.67290  0.68190  Biso   1.000  O
  O108     1.0000 0.13725  0.67290  0.81810  Biso   1.000  O
  O109     1.0000 0.63725  0.82710  0.31810  Biso   1.000  O
  O110     1.0000 0.36275  0.82710  0.18190  Biso   1.000  O
  O111     1.0000 0.13725  0.32710  0.31810  Biso   1.000  O
  O112     1.0000 0.86275  0.32710  0.18190  Biso   1.000  O
  C385     1.0000 0.41659  0.84860  0.80540  Biso   1.000  C
  C386     1.0000 0.58341  0.84860  0.69460  Biso   1.000  C
  C387     1.0000 0.91659  0.34860  0.80540  Biso   1.000  C
  C388     1.0000 0.08341  0.34860  0.69460  Biso   1.000  C
  C389     1.0000 0.58341  0.15140  0.19460  Biso   1.000  C
  C390     1.0000 0.41659  0.15140  0.30540  Biso   1.000  C
  C391     1.0000 0.08341  0.65140  0.19460  Biso   1.000  C
  C392     1.0000 0.91659  0.65140  0.30540  Biso   1.000  C
  C393     1.0000 0.39670  0.84310  0.78970  Biso   1.000  C
  C394     1.0000 0.60330  0.84310  0.71030  Biso   1.000  C
  C395     1.0000 0.89670  0.34310  0.78970  Biso   1.000  C
  C396     1.0000 0.10330  0.34310  0.71030  Biso   1.000  C
  C397     1.0000 0.60330  0.15690  0.21030  Biso   1.000  C
  C398     1.0000 0.39670  0.15690  0.28970  Biso   1.000  C
  C399     1.0000 0.10330  0.65690  0.21030  Biso   1.000  C
  C400     1.0000 0.89670  0.65690  0.28970  Biso   1.000  C
  C401     1.0000 0.38900  0.82530  0.72350  Biso   1.000  C
  C402     1.0000 0.61100  0.82530  0.77650  Biso   1.000  C
  C403     1.0000 0.88900  0.32530  0.72350  Biso   1.000  C
  C404     1.0000 0.11100  0.32530  0.77650  Biso   1.000  C
  C405     1.0000 0.61100  0.17470  0.27650  Biso   1.000  C
  C406     1.0000 0.38900  0.17470  0.22350  Biso   1.000  C
  C407     1.0000 0.11100  0.67470  0.27650  Biso   1.000  C
  C408     1.0000 0.88900  0.67470  0.22350  Biso   1.000  C
  H513     1.0000 0.38410  0.88930  0.70110  Biso   1.000  H
  H514     1.0000 0.61590  0.88930  0.79890  Biso   1.000  H
  H515     1.0000 0.88410  0.38930  0.70110  Biso   1.000  H
  H516     1.0000 0.11590  0.38930  0.79890  Biso   1.000  H
  H517     1.0000 0.61590  0.11070  0.29890  Biso   1.000  H
  H518     1.0000 0.38410  0.11070  0.20110  Biso   1.000  H
  H519     1.0000 0.11590  0.61070  0.29890  Biso   1.000  H
  H520     1.0000 0.88410  0.61070  0.20110  Biso   1.000  H
  H521     1.0000 0.37470  0.77910  0.72280  Biso   1.000  H
  H522     1.0000 0.62530  0.77910  0.77720  Biso   1.000  H
  H523     1.0000 0.87470  0.27910  0.72280  Biso   1.000  H
  H524     1.0000 0.12530  0.27910  0.77720  Biso   1.000  H
  H525     1.0000 0.62530  0.22090  0.27720  Biso   1.000  H
  H526     1.0000 0.37470  0.22090  0.22280  Biso   1.000  H
  H527     1.0000 0.12530  0.72090  0.27720  Biso   1.000  H
  H528     1.0000 0.87470  0.72090  0.22280  Biso   1.000  H
  H529     1.0000 0.40260  0.79460  0.69820  Biso   1.000  H
  H530     1.0000 0.59740  0.79460  0.80180  Biso   1.000  H
  H531     1.0000 0.90260  0.29460  0.69820  Biso   1.000  H
  H532     1.0000 0.09740  0.29460  0.80180  Biso   1.000  H
  H533     1.0000 0.59740  0.20540  0.30180  Biso   1.000  H
  H534     1.0000 0.40260  0.20540  0.19820  Biso   1.000  H
  H535     1.0000 0.09740  0.70540  0.30180  Biso   1.000  H
  H536     1.0000 0.90260  0.70540  0.19820  Biso   1.000  H
  C409     1.0000 0.38020  0.75110  0.83190  Biso   1.000  C
  C410     1.0000 0.61980  0.75110  0.66810  Biso   1.000  C
  C411     1.0000 0.88020  0.25110  0.83190  Biso   1.000  C
  C412     1.0000 0.11980  0.25110  0.66810  Biso   1.000  C
  C413     1.0000 0.61980  0.24890  0.16810  Biso   1.000  C
  C414     1.0000 0.38020  0.24890  0.33190  Biso   1.000  C
  C415     1.0000 0.11980  0.74890  0.16810  Biso   1.000  C
  C416     1.0000 0.88020  0.74890  0.33190  Biso   1.000  C
  H537     1.0000 0.39030  0.68950  0.83650  Biso   1.000  H
  H538     1.0000 0.60970  0.68950  0.66350  Biso   1.000  H
  H539     1.0000 0.89030  0.18950  0.83650  Biso   1.000  H
  H540     1.0000 0.10970  0.18950  0.66350  Biso   1.000  H
  H541     1.0000 0.60970  0.31050  0.16350  Biso   1.000  H
  H542     1.0000 0.39030  0.31050  0.33650  Biso   1.000  H
  H543     1.0000 0.10970  0.81050  0.16350  Biso   1.000  H
  H544     1.0000 0.89030  0.81050  0.33650  Biso   1.000  H
  H545     1.0000 0.36480  0.73600  0.80480  Biso   1.000  H
  H546     1.0000 0.63520  0.73600  0.69520  Biso   1.000  H
  H547     1.0000 0.86480  0.23600  0.80480  Biso   1.000  H
  H548     1.0000 0.13520  0.23600  0.69520  Biso   1.000  H
  H549     1.0000 0.63520  0.26400  0.19520  Biso   1.000  H
  H550     1.0000 0.36480  0.26400  0.30480  Biso   1.000  H
  H551     1.0000 0.13520  0.76400  0.19520  Biso   1.000  H
  H552     1.0000 0.86480  0.76400  0.30480  Biso   1.000  H
  H553     1.0000 0.37610  0.77540  0.87830  Biso   1.000  H
  H554     1.0000 0.62390  0.77540  0.62170  Biso   1.000  H
  H555     1.0000 0.87610  0.27540  0.87830  Biso   1.000  H
  H556     1.0000 0.12390  0.27540  0.62170  Biso   1.000  H
  H557     1.0000 0.62390  0.22460  0.12170  Biso   1.000  H
  H558     1.0000 0.37610  0.22460  0.37830  Biso   1.000  H
  H559     1.0000 0.12390  0.72460  0.12170  Biso   1.000  H
  H560     1.0000 0.87610  0.72460  0.37830  Biso   1.000  H
