data_image0
_cell_length_a       17.7442
_cell_length_b       25.926
_cell_length_c       27.59
_cell_angle_alpha    67.077
_cell_angle_beta     74.081
_cell_angle_gamma    70.42

_symmetry_space_group_name_H-M    "P 1"
_symmetry_int_tables_number       1

loop_
  _symmetry_equiv_pos_as_xyz
  'x, y, z'

loop_
  _atom_site_label
  _atom_site_occupancy
  _atom_site_fract_x
  _atom_site_fract_y
  _atom_site_fract_z
  _atom_site_thermal_displace_type
  _atom_site_B_iso_or_equiv
  _atom_site_type_symbol
  Ti1      1.0000 0.20311  0.36674  0.08967  Biso   1.000  Ti
  Ti2      1.0000 0.79689  0.63326  0.91033  Biso   1.000  Ti
  Ti3      1.0000 0.35271  0.37424  0.12090  Biso   1.000  Ti
  Ti4      1.0000 0.64729  0.62576  0.87910  Biso   1.000  Ti
  Ti5      1.0000 0.81311  0.12343  0.40669  Biso   1.000  Ti
  Ti6      1.0000 0.18689  0.87657  0.59331  Biso   1.000  Ti
  Ti7      1.0000 0.60939  0.22165  0.41841  Biso   1.000  Ti
  Ti8      1.0000 0.39061  0.77835  0.58159  Biso   1.000  Ti
  Ti9      1.0000 0.76983  0.56340  0.27475  Biso   1.000  Ti
  Ti10     1.0000 0.23017  0.43660  0.72525  Biso   1.000  Ti
  Ti11     1.0000 0.40772  0.26842  0.07823  Biso   1.000  Ti
  Ti12     1.0000 0.59228  0.73158  0.92177  Biso   1.000  Ti
  Ti13     1.0000 0.66291  0.11644  0.37530  Biso   1.000  Ti
  Ti14     1.0000 0.33709  0.88356  0.62470  Biso   1.000  Ti
  Ti15     1.0000 0.75710  0.07386  0.77349  Biso   1.000  Ti
  Ti16     1.0000 0.24290  0.92614  0.22651  Biso   1.000  Ti
  Ti17     1.0000 0.73705  0.10287  0.87495  Biso   1.000  Ti
  Ti18     1.0000 0.26295  0.89713  0.12505  Biso   1.000  Ti
  Ti19     1.0000 0.80867  0.68109  0.24780  Biso   1.000  Ti
  Ti20     1.0000 0.19133  0.31891  0.75220  Biso   1.000  Ti
  Ti21     1.0000 0.81043  0.18822  0.73697  Biso   1.000  Ti
  Ti22     1.0000 0.18957  0.81178  0.26303  Biso   1.000  Ti
  Ti23     1.0000 0.73567  0.58776  0.38052  Biso   1.000  Ti
  Ti24     1.0000 0.26433  0.41224  0.61948  Biso   1.000  Ti
  Cu1      1.0000 0.15915  0.24688  0.39313  Biso   1.000  Cu
  Cu2      1.0000 0.84085  0.75312  0.60687  Biso   1.000  Cu
  Cu3      1.0000 0.85596  0.23612  0.01247  Biso   1.000  Cu
  Cu4      1.0000 0.14404  0.76388  0.98753  Biso   1.000  Cu
  Cu5      1.0000 0.85674  0.24630  0.10243  Biso   1.000  Cu
  Cu6      1.0000 0.14326  0.75370  0.89757  Biso   1.000  Cu
  Cu7      1.0000 0.02417  0.28412  0.45425  Biso   1.000  Cu
  Cu8      1.0000 0.97583  0.71588  0.54575  Biso   1.000  Cu
  Cu9      1.0000 0.89805  0.13812  0.10555  Biso   1.000  Cu
  Cu10     1.0000 0.10195  0.86188  0.89445  Biso   1.000  Cu
  Cu11     1.0000 0.99348  0.20624  0.04376  Biso   1.000  Cu
  Cu12     1.0000 0.00652  0.79376  0.95624  Biso   1.000  Cu
  Cu13     1.0000 0.11536  0.35474  0.39176  Biso   1.000  Cu
  Cu14     1.0000 0.88464  0.64526  0.60824  Biso   1.000  Cu
  Cu15     1.0000 0.16614  0.26034  0.47970  Biso   1.000  Cu
  Cu16     1.0000 0.83386  0.73966  0.52030  Biso   1.000  Cu
  I1       1.0000 0.91281  0.32061  0.01449  Biso   1.000  I
  I2       1.0000 0.08719  0.67939  0.98551  Biso   1.000  I
  I3       1.0000 0.03449  0.32223  0.34524  Biso   1.000  I
  I4       1.0000 0.96551  0.67777  0.65476  Biso   1.000  I
  I5       1.0000 0.11071  0.17262  0.48392  Biso   1.000  I
  I6       1.0000 0.88929  0.82738  0.51608  Biso   1.000  I
  I7       1.0000 0.96994  0.13491  0.00660  Biso   1.000  I
  I8       1.0000 0.03006  0.86509  0.99340  Biso   1.000  I
  I9       1.0000 0.26889  0.30058  0.39551  Biso   1.000  I
  I10      1.0000 0.73111  0.69942  0.60449  Biso   1.000  I
  I11      1.0000 0.74789  0.19704  0.09356  Biso   1.000  I
  I12      1.0000 0.25211  0.80296  0.90644  Biso   1.000  I
  I13      1.0000 0.97973  0.17016  0.15243  Biso   1.000  I
  I14      1.0000 0.02027  0.82984  0.84757  Biso   1.000  I
  I15      1.0000 0.04526  0.35588  0.49220  Biso   1.000  I
  I16      1.0000 0.95474  0.64412  0.50780  Biso   1.000  I
  Br1      1.0000 0.22380  0.56171  0.32561  Biso   1.000  Br
  Br2      1.0000 0.77620  0.43829  0.67439  Biso   1.000  Br
  Br3      1.0000 0.78801  0.93073  0.17531  Biso   1.000  Br
  Br4      1.0000 0.21199  0.06927  0.82469  Biso   1.000  Br
  Br5      1.0000 0.30980  0.12746  0.92887  Biso   1.000  Br
  Br6      1.0000 0.69020  0.87254  0.07113  Biso   1.000  Br
  Br7      1.0000 0.33839  0.03989  0.33761  Biso   1.000  Br
  Br8      1.0000 0.66161  0.96011  0.66239  Biso   1.000  Br
  Br9      1.0000 0.67490  0.45189  0.16033  Biso   1.000  Br
  Br10     1.0000 0.32510  0.54811  0.83967  Biso   1.000  Br
  Br11     1.0000 0.70842  0.36130  0.56843  Biso   1.000  Br
  Br12     1.0000 0.29158  0.63870  0.43157  Biso   1.000  Br
  Br13     1.0000 0.80672  0.42451  0.81729  Biso   1.000  Br
  Br14     1.0000 0.19328  0.57549  0.18271  Biso   1.000  Br
  Br15     1.0000 0.24582  0.07703  0.67224  Biso   1.000  Br
  Br16     1.0000 0.75418  0.92297  0.32776  Biso   1.000  Br
  O1       1.0000 0.63860  0.13406  0.90249  Biso   1.000  O
  O2       1.0000 0.36140  0.86594  0.09751  Biso   1.000  O
  O3       1.0000 0.79250  0.05649  0.92745  Biso   1.000  O
  O4       1.0000 0.20750  0.94351  0.07255  Biso   1.000  O
  O5       1.0000 0.79940  0.54482  0.42721  Biso   1.000  O
  O6       1.0000 0.20060  0.45518  0.57279  Biso   1.000  O
  O7       1.0000 0.75696  0.62370  0.30692  Biso   1.000  O
  O8       1.0000 0.24304  0.37630  0.69308  Biso   1.000  O
  O9       1.0000 0.47969  0.19738  0.09181  Biso   1.000  O
  O10      1.0000 0.52031  0.80262  0.90819  Biso   1.000  O
  O11      1.0000 0.78771  0.00803  0.75744  Biso   1.000  O
  O12      1.0000 0.21229  0.99197  0.24256  Biso   1.000  O
  O13      1.0000 0.75471  0.13605  0.80096  Biso   1.000  O
  O14      1.0000 0.24529  0.86395  0.19904  Biso   1.000  O
  O15      1.0000 0.31478  0.33576  0.08457  Biso   1.000  O
  O16      1.0000 0.68522  0.66424  0.91543  Biso   1.000  O
  O17      1.0000 0.44992  0.31049  0.10691  Biso   1.000  O
  O18      1.0000 0.55008  0.68951  0.89309  Biso   1.000  O
  O19      1.0000 0.56682  0.18170  0.38725  Biso   1.000  O
  O20      1.0000 0.43318  0.81830  0.61275  Biso   1.000  O
  O21      1.0000 0.66610  0.25988  0.33699  Biso   1.000  O
  O22      1.0000 0.33390  0.74012  0.66301  Biso   1.000  O
  O23      1.0000 0.20444  0.30149  0.06363  Biso   1.000  O
  O24      1.0000 0.79556  0.69851  0.93637  Biso   1.000  O
  O25      1.0000 0.70172  0.15420  0.41268  Biso   1.000  O
  O26      1.0000 0.29828  0.84580  0.58732  Biso   1.000  O
  O27      1.0000 0.53971  0.29226  0.40473  Biso   1.000  O
  O28      1.0000 0.46029  0.70774  0.59527  Biso   1.000  O
  O29      1.0000 0.35444  0.23043  0.16027  Biso   1.000  O
  O30      1.0000 0.64556  0.76957  0.83973  Biso   1.000  O
  O31      1.0000 0.23114  0.40850  0.12556  Biso   1.000  O
  O32      1.0000 0.76886  0.59150  0.87444  Biso   1.000  O
  O33      1.0000 0.31825  0.30456  0.19164  Biso   1.000  O
  O34      1.0000 0.68175  0.69544  0.80836  Biso   1.000  O
  O35      1.0000 0.11709  0.95736  0.20955  Biso   1.000  O
  O36      1.0000 0.88291  0.04264  0.79045  Biso   1.000  O
  O37      1.0000 0.17518  0.42316  0.03114  Biso   1.000  O
  O38      1.0000 0.82482  0.57684  0.96886  Biso   1.000  O
  O39      1.0000 0.37627  0.43165  0.06398  Biso   1.000  O
  O40      1.0000 0.62373  0.56835  0.93602  Biso   1.000  O
  O41      1.0000 0.71669  0.24230  0.72382  Biso   1.000  O
  O42      1.0000 0.28331  0.75770  0.27618  Biso   1.000  O
  O43      1.0000 0.32971  0.24106  0.05539  Biso   1.000  O
  O44      1.0000 0.67029  0.75894  0.94461  Biso   1.000  O
  O45      1.0000 0.78370  0.08057  0.37086  Biso   1.000  O
  O46      1.0000 0.21630  0.91943  0.62914  Biso   1.000  O
  O47      1.0000 0.37632  0.39518  0.16874  Biso   1.000  O
  O48      1.0000 0.62368  0.60482  0.83126  Biso   1.000  O
  O49      1.0000 0.80127  0.13048  0.70781  Biso   1.000  O
  O50      1.0000 0.19873  0.86952  0.29219  Biso   1.000  O
  O51      1.0000 0.82147  0.22329  0.78985  Biso   1.000  O
  O52      1.0000 0.17853  0.77671  0.21015  Biso   1.000  O
  O53      1.0000 0.63939  0.09605  0.32739  Biso   1.000  O
  O54      1.0000 0.36061  0.90395  0.67261  Biso   1.000  O
  O55      1.0000 0.19635  0.28554  0.69438  Biso   1.000  O
  O56      1.0000 0.80365  0.71446  0.30562  Biso   1.000  O
  O57      1.0000 0.70124  0.18420  0.30508  Biso   1.000  O
  O58      1.0000 0.29876  0.81580  0.69492  Biso   1.000  O
  O59      1.0000 0.56281  0.19087  0.48630  Biso   1.000  O
  O60      1.0000 0.43719  0.80913  0.51370  Biso   1.000  O
  O61      1.0000 0.63584  0.05869  0.43398  Biso   1.000  O
  O62      1.0000 0.36416  0.94131  0.56602  Biso   1.000  O
  O63      1.0000 0.87712  0.72140  0.19956  Biso   1.000  O
  O64      1.0000 0.12288  0.27860  0.80044  Biso   1.000  O
  O65      1.0000 0.81233  0.62447  0.21376  Biso   1.000  O
  O66      1.0000 0.18767  0.37553  0.78624  Biso   1.000  O
  O67      1.0000 0.08264  0.87301  0.23565  Biso   1.000  O
  O68      1.0000 0.91736  0.12699  0.76435  Biso   1.000  O
  O69      1.0000 0.89181  0.53647  0.29473  Biso   1.000  O
  O70      1.0000 0.10819  0.46353  0.70527  Biso   1.000  O
  O71      1.0000 0.87728  0.22394  0.68344  Biso   1.000  O
  O72      1.0000 0.12272  0.77606  0.31656  Biso   1.000  O
  O73      1.0000 0.91890  0.62065  0.27704  Biso   1.000  O
  O74      1.0000 0.08110  0.37935  0.72296  Biso   1.000  O
  O75      1.0000 0.72611  0.04231  0.85332  Biso   1.000  O
  O76      1.0000 0.27389  0.95769  0.14668  Biso   1.000  O
  O77      1.0000 0.24313  0.34188  0.61346  Biso   1.000  O
  O78      1.0000 0.75687  0.65812  0.38654  Biso   1.000  O
  O79      1.0000 0.73885  0.52549  0.35438  Biso   1.000  O
  O80      1.0000 0.26115  0.47451  0.64562  Biso   1.000  O
  O81      1.0000 0.45205  0.29986  0.01136  Biso   1.000  O
  O82      1.0000 0.54795  0.70014  0.98864  Biso   1.000  O
  O83      1.0000 0.68817  0.24800  0.44217  Biso   1.000  O
  O84      1.0000 0.31183  0.75200  0.55783  Biso   1.000  O
  O85      1.0000 0.65516  0.09528  0.76010  Biso   1.000  O
  O86      1.0000 0.34484  0.90472  0.23990  Biso   1.000  O
  O87      1.0000 0.66949  0.58364  0.25928  Biso   1.000  O
  O88      1.0000 0.33051  0.41636  0.74072  Biso   1.000  O
  O89      1.0000 0.84460  0.06779  0.46447  Biso   1.000  O
  O90      1.0000 0.15540  0.93221  0.53553  Biso   1.000  O
  O91      1.0000 0.78655  0.16540  0.87299  Biso   1.000  O
  O92      1.0000 0.21345  0.83460  0.12701  Biso   1.000  O
  O93      1.0000 0.80621  0.50089  0.25366  Biso   1.000  O
  O94      1.0000 0.19379  0.49911  0.74634  Biso   1.000  O
  O95      1.0000 0.81274  0.18846  0.43230  Biso   1.000  O
  O96      1.0000 0.18726  0.81154  0.56770  Biso   1.000  O
  O97      1.0000 0.71475  0.73097  0.23039  Biso   1.000  O
  O98      1.0000 0.28525  0.26903  0.76961  Biso   1.000  O
  O99      1.0000 0.11632  0.35119  0.13583  Biso   1.000  O
  O100     1.0000 0.88368  0.64881  0.86417  Biso   1.000  O
  O101     1.0000 0.89659  0.14188  0.35849  Biso   1.000  O
  O102     1.0000 0.10341  0.85812  0.64151  Biso   1.000  O
  O103     1.0000 0.63360  0.60553  0.41314  Biso   1.000  O
  O104     1.0000 0.36640  0.39447  0.58686  Biso   1.000  O
  N1       1.0000 0.90720  0.05133  0.14834  Biso   1.000  N
  N2       1.0000 0.09280  0.94867  0.85166  Biso   1.000  N
  N3       1.0000 0.11260  0.20687  0.01580  Biso   1.000  N
  N4       1.0000 0.88740  0.79313  0.98420  Biso   1.000  N
  N5       1.0000 0.78600  0.28688  0.15595  Biso   1.000  N
  N6       1.0000 0.21400  0.71312  0.84405  Biso   1.000  N
  N7       1.0000 0.82200  0.27028  0.93970  Biso   1.000  N
  N8       1.0000 0.17800  0.72972  0.06030  Biso   1.000  N
  N9       1.0000 0.20980  0.23056  0.54889  Biso   1.000  N
  N10      1.0000 0.79020  0.76944  0.45111  Biso   1.000  N
  N11      1.0000 0.22980  0.20605  0.34022  Biso   1.000  N
  N12      1.0000 0.77020  0.79395  0.65978  Biso   1.000  N
  N13      1.0000 0.10230  0.44161  0.35247  Biso   1.000  N
  N14      1.0000 0.89770  0.55839  0.64753  Biso   1.000  N
  N15      1.0000 0.90660  0.28314  0.48117  Biso   1.000  N
  N16      1.0000 0.09340  0.71686  0.51883  Biso   1.000  N
  C1       1.0000 0.76270  0.25365  0.20575  Biso   1.000  C
  C2       1.0000 0.23730  0.74635  0.79425  Biso   1.000  C
  H1       1.0000 0.77920  0.21360  0.21410  Biso   1.000  H
  H2       1.0000 0.22080  0.78640  0.78590  Biso   1.000  H
  C3       1.0000 0.14340  0.23431  0.03516  Biso   1.000  C
  C4       1.0000 0.85660  0.76569  0.96484  Biso   1.000  C
  H3       1.0000 0.10800  0.25730  0.05510  Biso   1.000  H
  H4       1.0000 0.89200  0.74270  0.94490  Biso   1.000  H
  C5       1.0000 0.30340  0.21481  0.25213  Biso   1.000  C
  C6       1.0000 0.69660  0.78519  0.74787  Biso   1.000  C
  C7       1.0000 0.15780  0.46707  0.34945  Biso   1.000  C
  C8       1.0000 0.84220  0.53293  0.65055  Biso   1.000  C
  H5       1.0000 0.20670  0.44450  0.36110  Biso   1.000  H
  H6       1.0000 0.79330  0.55550  0.63890  Biso   1.000  H
  C9       1.0000 0.32710  0.15469  0.26503  Biso   1.000  C
  C10      1.0000 0.67290  0.84531  0.73497  Biso   1.000  C
  H7       1.0000 0.35830  0.13720  0.23980  Biso   1.000  H
  H8       1.0000 0.64170  0.86280  0.76020  Biso   1.000  H
  C11      1.0000 0.75950  0.34439  0.14311  Biso   1.000  C
  C12      1.0000 0.24050  0.65561  0.85689  Biso   1.000  C
  H9       1.0000 0.77250  0.36740  0.10810  Biso   1.000  H
  H10      1.0000 0.22750  0.63260  0.89190  Biso   1.000  H
  C13      1.0000 0.68940  0.33693  0.23290  Biso   1.000  C
  C14      1.0000 0.31060  0.66307  0.76710  Biso   1.000  C
  H11      1.0000 0.65780  0.35360  0.25860  Biso   1.000  H
  H12      1.0000 0.34220  0.64640  0.74140  Biso   1.000  H
  C15      1.0000 0.01460  0.53313  0.31077  Biso   1.000  C
  C16      1.0000 0.98540  0.46687  0.68923  Biso   1.000  C
  C17      1.0000 0.71580  0.27638  0.24452  Biso   1.000  C
  C18      1.0000 0.28420  0.72362  0.75548  Biso   1.000  C
  C19      1.0000 0.48330  0.19908  0.38041  Biso   1.000  C
  C20      1.0000 0.51670  0.80092  0.61959  Biso   1.000  C
  H13      1.0000 0.45250  0.22740  0.39870  Biso   1.000  H
  H14      1.0000 0.54750  0.77260  0.60130  Biso   1.000  H
  C21      1.0000 0.85320  0.02353  0.15108  Biso   1.000  C
  C22      1.0000 0.14680  0.97647  0.84892  Biso   1.000  C
  H15      1.0000 0.80550  0.04480  0.13730  Biso   1.000  H
  H16      1.0000 0.19450  0.95520  0.86270  Biso   1.000  H
  C23      1.0000 0.07030  0.92704  0.21473  Biso   1.000  C
  C24      1.0000 0.92970  0.07296  0.78527  Biso   1.000  C
  C25      1.0000 0.73910  0.29376  0.50297  Biso   1.000  C
  C26      1.0000 0.26090  0.70624  0.49703  Biso   1.000  C
  H17      1.0000 0.68330  0.29850  0.51000  Biso   1.000  H
  H18      1.0000 0.31670  0.70150  0.49000  Biso   1.000  H
  C27      1.0000 0.53910  0.26122  0.17173  Biso   1.000  C
  C28      1.0000 0.46090  0.73878  0.82827  Biso   1.000  C
  H19      1.0000 0.51200  0.28640  0.19260  Biso   1.000  H
  H20      1.0000 0.48800  0.71360  0.80740  Biso   1.000  H
  H21      1.0000 0.59510  0.24580  0.17600  Biso   1.000  H
  H22      1.0000 0.40490  0.75420  0.82400  Biso   1.000  H
  H23      1.0000 0.51390  0.23000  0.18350  Biso   1.000  H
  H24      1.0000 0.48610  0.77000  0.81650  Biso   1.000  H
  C29      1.0000 0.06180  0.31805  0.17204  Biso   1.000  C
  C30      1.0000 0.93820  0.68195  0.82796  Biso   1.000  C
  H25      1.0000 0.03830  0.33240  0.20240  Biso   1.000  H
  H26      1.0000 0.96170  0.66760  0.79760  Biso   1.000  H
  C31      1.0000 0.25860  0.25925  0.04974  Biso   1.000  C
  C32      1.0000 0.74140  0.74075  0.95026  Biso   1.000  C
  C33      1.0000 0.14330  0.52806  0.32871  Biso   1.000  C
  C34      1.0000 0.85670  0.47194  0.67129  Biso   1.000  C
  C35      1.0000 0.25530  0.23745  0.29035  Biso   1.000  C
  C36      1.0000 0.74470  0.76255  0.70965  Biso   1.000  C
  H27      1.0000 0.23890  0.27760  0.28130  Biso   1.000  H
  H28      1.0000 0.76110  0.72240  0.71870  Biso   1.000  H
  C37      1.0000 0.03340  0.47350  0.33355  Biso   1.000  C
  C38      1.0000 0.96660  0.52650  0.66645  Biso   1.000  C
  H29      1.0000 0.99590  0.45440  0.33580  Biso   1.000  H
  H30      1.0000 0.00410  0.54560  0.66420  Biso   1.000  H
  C39      1.0000 0.22580  0.22985  0.02670  Biso   1.000  C
  C40      1.0000 0.77420  0.77015  0.97330  Biso   1.000  C
  C41      1.0000 0.27710  0.19775  0.99450  Biso   1.000  C
  C42      1.0000 0.72290  0.80225  0.00550  Biso   1.000  C
  H31      1.0000 0.33280  0.19360  0.98760  Biso   1.000  H
  H32      1.0000 0.66720  0.80640  0.01240  Biso   1.000  H
  C43      1.0000 0.93590  0.56653  0.29186  Biso   1.000  C
  C44      1.0000 0.06410  0.43347  0.70814  Biso   1.000  C
  C45      1.0000 0.56540  0.34691  0.09178  Biso   1.000  C
  C46      1.0000 0.43460  0.65309  0.90822  Biso   1.000  C
  H33      1.0000 0.55910  0.36590  0.05500  Biso   1.000  H
  H34      1.0000 0.44090  0.63410  0.94500  Biso   1.000  H
  H35      1.0000 0.62180  0.33560  0.09450  Biso   1.000  H
  H36      1.0000 0.37820  0.66440  0.90550  Biso   1.000  H
  H37      1.0000 0.53580  0.37300  0.11150  Biso   1.000  H
  H38      1.0000 0.46420  0.62700  0.88850  Biso   1.000  H
  C47      1.0000 0.24390  0.17238  0.97317  Biso   1.000  C
  C48      1.0000 0.75610  0.82762  0.02683  Biso   1.000  C
  C49      1.0000 0.53350  0.29476  0.11389  Biso   1.000  C
  C50      1.0000 0.46650  0.70524  0.88611  Biso   1.000  C
  H39      1.0000 0.56530  0.26880  0.09330  Biso   1.000  H
  H40      1.0000 0.43470  0.73120  0.90670  Biso   1.000  H
  C51      1.0000 0.32600  0.25404  0.19682  Biso   1.000  C
  C52      1.0000 0.67400  0.74596  0.80318  Biso   1.000  C
  C53      1.0000 0.71340  0.37070  0.18046  Biso   1.000  C
  C54      1.0000 0.28660  0.62930  0.81954  Biso   1.000  C
  C55      1.0000 0.30260  0.12199  0.31696  Biso   1.000  C
  C56      1.0000 0.69740  0.87801  0.68304  Biso   1.000  C
  C57      1.0000 0.49060  0.14044  0.12854  Biso   1.000  C
  C58      1.0000 0.50940  0.85956  0.87146  Biso   1.000  C
  H41      1.0000 0.47980  0.14230  0.16470  Biso   1.000  H
  H42      1.0000 0.52020  0.85770  0.83530  Biso   1.000  H
  C59      1.0000 0.81880  0.32489  0.90944  Biso   1.000  C
  C60      1.0000 0.18120  0.67511  0.09056  Biso   1.000  C
  H43      1.0000 0.82320  0.35000  0.92450  Biso   1.000  H
  H44      1.0000 0.17680  0.65000  0.07550  Biso   1.000  H
  C61      1.0000 0.18040  0.45161  0.15079  Biso   1.000  C
  C62      1.0000 0.81960  0.54839  0.84921  Biso   1.000  C
  H45      1.0000 0.21560  0.47020  0.15650  Biso   1.000  H
  H46      1.0000 0.78440  0.52980  0.84350  Biso   1.000  H
  C63      1.0000 0.69180  0.23717  0.30015  Biso   1.000  C
  C64      1.0000 0.30820  0.76283  0.69985  Biso   1.000  C
  C65      1.0000 0.52790  0.34915  0.36690  Biso   1.000  C
  C66      1.0000 0.47210  0.65085  0.63310  Biso   1.000  C
  H47      1.0000 0.54000  0.34600  0.33110  Biso   1.000  H
  H48      1.0000 0.46000  0.65400  0.66890  Biso   1.000  H
  C67      1.0000 0.16150  0.17617  0.98407  Biso   1.000  C
  C68      1.0000 0.83850  0.82383  0.01593  Biso   1.000  C
  H49      1.0000 0.14050  0.15790  0.96980  Biso   1.000  H
  H50      1.0000 0.85950  0.84210  0.03020  Biso   1.000  H
  C69      1.0000 0.21920  0.29709  0.64550  Biso   1.000  C
  C70      1.0000 0.78080  0.70291  0.35450  Biso   1.000  C
  C71      1.0000 0.85400  0.31287  0.51143  Biso   1.000  C
  C72      1.0000 0.14600  0.68713  0.48857  Biso   1.000  C
  H51      1.0000 0.87390  0.33130  0.52630  Biso   1.000  H
  H52      1.0000 0.12610  0.66870  0.47370  Biso   1.000  H
  C73      1.0000 0.83130  0.03697  0.34672  Biso   1.000  C
  C74      1.0000 0.16870  0.96303  0.65328  Biso   1.000  C
  H53      1.0000 0.79430  0.02150  0.33890  Biso   1.000  H
  H54      1.0000 0.20570  0.97850  0.66110  Biso   1.000  H
  C75      1.0000 0.22450  0.25087  0.62263  Biso   1.000  C
  C76      1.0000 0.77550  0.74913  0.37737  Biso   1.000  C
  C77      1.0000 0.77250  0.31824  0.52223  Biso   1.000  C
  C78      1.0000 0.22750  0.68176  0.47777  Biso   1.000  C
  C79      1.0000 0.76110  0.22997  0.44625  Biso   1.000  C
  C80      1.0000 0.23890  0.77003  0.55375  Biso   1.000  C
  C81      1.0000 0.86760  0.96400  0.17403  Biso   1.000  C
  C82      1.0000 0.13240  0.03600  0.82597  Biso   1.000  C
  C83      1.0000 0.21430  0.26748  0.57035  Biso   1.000  C
  C84      1.0000 0.78570  0.73252  0.42965  Biso   1.000  C
  H55      1.0000 0.21030  0.30600  0.54910  Biso   1.000  H
  H56      1.0000 0.78970  0.69400  0.45090  Biso   1.000  H
  C85      1.0000 0.97770  0.01982  0.17047  Biso   1.000  C
  C86      1.0000 0.02230  0.98018  0.82953  Biso   1.000  C
  H57      1.0000 0.01490  0.03880  0.16890  Biso   1.000  H
  H58      1.0000 0.98510  0.96120  0.83110  Biso   1.000  H
  C87      1.0000 0.80480  0.21012  0.83970  Biso   1.000  C
  C88      1.0000 0.19520  0.78988  0.16030  Biso   1.000  C
  C89      1.0000 0.81490  0.23510  0.91666  Biso   1.000  C
  C90      1.0000 0.18510  0.76490  0.08334  Biso   1.000  C
  H59      1.0000 0.81410  0.19710  0.93760  Biso   1.000  H
  H60      1.0000 0.18590  0.80290  0.06240  Biso   1.000  H
  C91      1.0000 0.38770  0.38624  0.22172  Biso   1.000  C
  C92      1.0000 0.61230  0.61376  0.77828  Biso   1.000  C
  H61      1.0000 0.39160  0.34550  0.24340  Biso   1.000  H
  H62      1.0000 0.60840  0.65450  0.75660  Biso   1.000  H
  C93      1.0000 0.79110  0.25989  0.47108  Biso   1.000  C
  C94      1.0000 0.20890  0.74011  0.52892  Biso   1.000  C
  C95      1.0000 0.22230  0.17419  0.58030  Biso   1.000  C
  C96      1.0000 0.77770  0.82581  0.41970  Biso   1.000  C
  H63      1.0000 0.22330  0.14680  0.56600  Biso   1.000  H
  H64      1.0000 0.77670  0.85320  0.43400  Biso   1.000  H
  C97      1.0000 0.02030  0.16219  0.35308  Biso   1.000  C
  C98      1.0000 0.97970  0.83781  0.64692  Biso   1.000  C
  H65      1.0000 0.99980  0.17550  0.38330  Biso   1.000  H
  H66      1.0000 0.00020  0.82450  0.61670  Biso   1.000  H
  H67      1.0000 0.06020  0.18190  0.32910  Biso   1.000  H
  H68      1.0000 0.93980  0.81810  0.67090  Biso   1.000  H
  H69      1.0000 0.04470  0.12120  0.36490  Biso   1.000  H
  H70      1.0000 0.95530  0.87880  0.63510  Biso   1.000  H
  C99      1.0000 0.80870  0.25281  0.86385  Biso   1.000  C
  C100     1.0000 0.19130  0.74719  0.13615  Biso   1.000  C
  C101     1.0000 0.12480  0.49725  0.11270  Biso   1.000  C
  C102     1.0000 0.87520  0.50275  0.88730  Biso   1.000  C
  H71      1.0000 0.15590  0.50940  0.07770  Biso   1.000  H
  H72      1.0000 0.84410  0.49060  0.92230  Biso   1.000  H
  H73      1.0000 0.09920  0.53000  0.12490  Biso   1.000  H
  H74      1.0000 0.90080  0.47000  0.87510  Biso   1.000  H
  H75      1.0000 0.08410  0.48130  0.11130  Biso   1.000  H
  H76      1.0000 0.91590  0.51870  0.88870  Biso   1.000  H
  C103     1.0000 0.99210  0.96038  0.19473  Biso   1.000  C
  C104     1.0000 0.00790  0.03962  0.80527  Biso   1.000  C
  C105     1.0000 0.71260  0.98447  0.88444  Biso   1.000  C
  C106     1.0000 0.28740  0.01553  0.11556  Biso   1.000  C
  H77      1.0000 0.69260  0.97260  0.86170  Biso   1.000  H
  H78      1.0000 0.30740  0.02740  0.13830  Biso   1.000  H
  C107     1.0000 0.90770  0.23829  0.30519  Biso   1.000  C
  C108     1.0000 0.09230  0.76171  0.69481  Biso   1.000  C
  H79      1.0000 0.86530  0.24260  0.28750  Biso   1.000  H
  H80      1.0000 0.13470  0.75740  0.71250  Biso   1.000  H
  H81      1.0000 0.94490  0.26010  0.28060  Biso   1.000  H
  H82      1.0000 0.05510  0.73990  0.71940  Biso   1.000  H
  H83      1.0000 0.88460  0.25240  0.33490  Biso   1.000  H
  H84      1.0000 0.11540  0.74760  0.66510  Biso   1.000  H
  C109     1.0000 0.57830  0.10619  0.11713  Biso   1.000  C
  C110     1.0000 0.42170  0.89381  0.88287  Biso   1.000  C
  H85      1.0000 0.59260  0.11020  0.07990  Biso   1.000  H
  H86      1.0000 0.40740  0.88980  0.92010  Biso   1.000  H
  H87      1.0000 0.58380  0.06600  0.13800  Biso   1.000  H
  H88      1.0000 0.41620  0.93400  0.86200  Biso   1.000  H
  H89      1.0000 0.61360  0.12090  0.12630  Biso   1.000  H
  H90      1.0000 0.38640  0.87910  0.87370  Biso   1.000  H
  C111     1.0000 0.86790  0.45192  0.24410  Biso   1.000  C
  C112     1.0000 0.13210  0.54808  0.75590  Biso   1.000  C
  H91      1.0000 0.91270  0.44310  0.26280  Biso   1.000  H
  H92      1.0000 0.08730  0.55690  0.73720  Biso   1.000  H
  C113     1.0000 0.95280  0.17437  0.32518  Biso   1.000  C
  C114     1.0000 0.04720  0.82563  0.67482  Biso   1.000  C
  H93      1.0000 0.97580  0.16140  0.29400  Biso   1.000  H
  H94      1.0000 0.02420  0.83860  0.70600  Biso   1.000  H
  C115     1.0000 0.93550  0.93217  0.19688  Biso   1.000  C
  C116     1.0000 0.06450  0.06783  0.80312  Biso   1.000  C
  H95      1.0000 0.94400  0.89230  0.21360  Biso   1.000  H
  H96      1.0000 0.05600  0.10770  0.78640  Biso   1.000  H
  C117     1.0000 0.84970  0.95859  0.75008  Biso   1.000  C
  C118     1.0000 0.15030  0.04141  0.24992  Biso   1.000  C
  H97      1.0000 0.89160  0.94950  0.77110  Biso   1.000  H
  H98      1.0000 0.10840  0.05050  0.22890  Biso   1.000  H
  C119     1.0000 0.73140  0.46820  0.38140  Biso   1.000  C
  C120     1.0000 0.26860  0.53180  0.61860  Biso   1.000  C
  H99      1.0000 0.71760  0.45640  0.35590  Biso   1.000  H
  H100     1.0000 0.28240  0.54360  0.64410  Biso   1.000  H
  C121     1.0000 0.99430  0.32703  0.14372  Biso   1.000  C
  C122     1.0000 0.00570  0.67297  0.85628  Biso   1.000  C
  H101     1.0000 0.96360  0.36680  0.13500  Biso   1.000  H
  H102     1.0000 0.03640  0.63320  0.86500  Biso   1.000  H
  H103     1.0000 0.95930  0.30260  0.16660  Biso   1.000  H
  H104     1.0000 0.04070  0.69740  0.83340  Biso   1.000  H
  H105     1.0000 0.01710  0.31740  0.11160  Biso   1.000  H
  H106     1.0000 0.98290  0.68260  0.88840  Biso   1.000  H
  C123     1.0000 0.58620  0.37941  0.36970  Biso   1.000  C
  C124     1.0000 0.41380  0.62059  0.63030  Biso   1.000  C
  H107     1.0000 0.58230  0.37640  0.40610  Biso   1.000  H
  H108     1.0000 0.41770  0.62360  0.59390  Biso   1.000  H
  H109     1.0000 0.57220  0.41950  0.34830  Biso   1.000  H
  H110     1.0000 0.42780  0.58050  0.65170  Biso   1.000  H
  H111     1.0000 0.64060  0.36140  0.35650  Biso   1.000  H
  H112     1.0000 0.35940  0.63860  0.64350  Biso   1.000  H
  C125     1.0000 0.47890  0.22850  0.31912  Biso   1.000  C
  C126     1.0000 0.52110  0.77150  0.68088  Biso   1.000  C
  H113     1.0000 0.50190  0.26110  0.30490  Biso   1.000  H
  H114     1.0000 0.49810  0.73890  0.69510  Biso   1.000  H
  H115     1.0000 0.42330  0.24140  0.31410  Biso   1.000  H
  H116     1.0000 0.57670  0.75860  0.68590  Biso   1.000  H
  H117     1.0000 0.50870  0.20100  0.30090  Biso   1.000  H
  H118     1.0000 0.49130  0.79900  0.69910  Biso   1.000  H
  C127     1.0000 0.63420  0.25374  0.74557  Biso   1.000  C
  C128     1.0000 0.36580  0.74626  0.25443  Biso   1.000  C
  H119     1.0000 0.61840  0.21710  0.76050  Biso   1.000  H
  H120     1.0000 0.38160  0.78290  0.23950  Biso   1.000  H
  C129     1.0000 0.23330  0.19525  0.65445  Biso   1.000  C
  C130     1.0000 0.76670  0.80475  0.34555  Biso   1.000  C
  H121     1.0000 0.23880  0.18390  0.69000  Biso   1.000  H
  H122     1.0000 0.76120  0.81610  0.31000  Biso   1.000  H
  C131     1.0000 0.44830  0.14710  0.40446  Biso   1.000  C
  C132     1.0000 0.55170  0.85290  0.59554  Biso   1.000  C
  H123     1.0000 0.47360  0.12140  0.38390  Biso   1.000  H
  H124     1.0000 0.52640  0.87860  0.61610  Biso   1.000  H
  H125     1.0000 0.39090  0.15970  0.40420  Biso   1.000  H
  H126     1.0000 0.60910  0.84030  0.59580  Biso   1.000  H
  H127     1.0000 0.45800  0.12720  0.44050  Biso   1.000  H
  H128     1.0000 0.54200  0.87280  0.55950  Biso   1.000  H
  C133     1.0000 0.07070  0.56158  0.31048  Biso   1.000  C
  C134     1.0000 0.92930  0.43842  0.68952  Biso   1.000  C
  H129     1.0000 0.05900  0.60180  0.29830  Biso   1.000  H
  H130     1.0000 0.94100  0.39820  0.70170  Biso   1.000  H
  C135     1.0000 0.80690  0.30927  0.83214  Biso   1.000  C
  C136     1.0000 0.19310  0.69073  0.16786  Biso   1.000  C
  H131     1.0000 0.80430  0.32200  0.79600  Biso   1.000  H
  H132     1.0000 0.19570  0.67800  0.20400  Biso   1.000  H
  C137     1.0000 0.13480  0.42284  0.20421  Biso   1.000  C
  C138     1.0000 0.86520  0.57716  0.79579  Biso   1.000  C
  H133     1.0000 0.10140  0.40330  0.19930  Biso   1.000  H
  H134     1.0000 0.89860  0.59670  0.80070  Biso   1.000  H
  H135     1.0000 0.10120  0.45170  0.22020  Biso   1.000  H
  H136     1.0000 0.89880  0.54830  0.77980  Biso   1.000  H
  H137     1.0000 0.17270  0.39520  0.22710  Biso   1.000  H
  H138     1.0000 0.82730  0.60480  0.77290  Biso   1.000  H
  C139     1.0000 0.80920  0.34623  0.85662  Biso   1.000  C
  C140     1.0000 0.19080  0.65377  0.14338  Biso   1.000  C
  C141     1.0000 0.23360  0.15570  0.63220  Biso   1.000  C
  C142     1.0000 0.76640  0.84430  0.36780  Biso   1.000  C
  C143     1.0000 0.62990  0.73650  0.24497  Biso   1.000  C
  C144     1.0000 0.37010  0.26350  0.75503  Biso   1.000  C
  H139     1.0000 0.62130  0.69740  0.25960  Biso   1.000  H
  H140     1.0000 0.37870  0.30260  0.74040  Biso   1.000  H
  C145     1.0000 0.58860  0.76970  0.19675  Biso   1.000  C
  C146     1.0000 0.41140  0.23030  0.80325  Biso   1.000  C
  H141     1.0000 0.59320  0.80890  0.18310  Biso   1.000  H
  H142     1.0000 0.40680  0.19110  0.81690  Biso   1.000  H
  H143     1.0000 0.53230  0.76970  0.20660  Biso   1.000  H
  H144     1.0000 0.46770  0.23030  0.79340  Biso   1.000  H
  H145     1.0000 0.61380  0.75160  0.16980  Biso   1.000  H
  H146     1.0000 0.38620  0.24840  0.83020  Biso   1.000  H
  C147     1.0000 0.83970  0.62616  0.15893  Biso   1.000  C
  C148     1.0000 0.16030  0.37384  0.84107  Biso   1.000  C
  H147     1.0000 0.82740  0.59380  0.15540  Biso   1.000  H
  H148     1.0000 0.17260  0.40620  0.84460  Biso   1.000  H
  C149     1.0000 0.83300  0.40061  0.26441  Biso   1.000  C
  C150     1.0000 0.16700  0.59939  0.73559  Biso   1.000  C
  H149     1.0000 0.81180  0.39280  0.30180  Biso   1.000  H
  H150     1.0000 0.18820  0.60720  0.69820  Biso   1.000  H
  H151     1.0000 0.87470  0.36740  0.25900  Biso   1.000  H
  H152     1.0000 0.12530  0.63260  0.74100  Biso   1.000  H
  H153     1.0000 0.79020  0.40880  0.24540  Biso   1.000  H
  H154     1.0000 0.20980  0.59120  0.75460  Biso   1.000  H
  C151     1.0000 0.89830  0.46600  0.18620  Biso   1.000  C
  C152     1.0000 0.10170  0.53400  0.81380  Biso   1.000  C
  H155     1.0000 0.85370  0.47810  0.16760  Biso   1.000  H
  H156     1.0000 0.14630  0.52190  0.83240  Biso   1.000  H
  H157     1.0000 0.93630  0.43230  0.17920  Biso   1.000  H
  H158     1.0000 0.06370  0.56770  0.82080  Biso   1.000  H
  H159     1.0000 0.92460  0.49670  0.17430  Biso   1.000  H
  H160     1.0000 0.07540  0.50330  0.82570  Biso   1.000  H
  C153     1.0000 0.39040  0.48540  0.03543  Biso   1.000  C
  C154     1.0000 0.60960  0.51460  0.96457  Biso   1.000  C
  H161     1.0000 0.44600  0.47840  0.01600  Biso   1.000  H
  H162     1.0000 0.55400  0.52160  0.98400  Biso   1.000  H
  C155     1.0000 0.32030  0.42300  0.24810  Biso   1.000  C
  C156     1.0000 0.67970  0.57700  0.75190  Biso   1.000  C
  H163     1.0000 0.31480  0.46300  0.22650  Biso   1.000  H
  H164     1.0000 0.68520  0.53700  0.77350  Biso   1.000  H
  H165     1.0000 0.33120  0.41720  0.28230  Biso   1.000  H
  H166     1.0000 0.66880  0.58280  0.71770  Biso   1.000  H
  H167     1.0000 0.27090  0.41280  0.25270  Biso   1.000  H
  H168     1.0000 0.72910  0.58720  0.74730  Biso   1.000  H
  C157     1.0000 0.43380  0.11081  0.12540  Biso   1.000  C
  C158     1.0000 0.56620  0.88919  0.87460  Biso   1.000  C
  H169     1.0000 0.37920  0.13440  0.12950  Biso   1.000  H
  H170     1.0000 0.62080  0.86560  0.87050  Biso   1.000  H
  H171     1.0000 0.43810  0.07400  0.15340  Biso   1.000  H
  H172     1.0000 0.56190  0.92600  0.84660  Biso   1.000  H
  H173     1.0000 0.44760  0.10500  0.09150  Biso   1.000  H
  H174     1.0000 0.55240  0.89500  0.90850  Biso   1.000  H
  C159     1.0000 0.88600  0.97320  0.69240  Biso   1.000  C
  C160     1.0000 0.11400  0.02680  0.30760  Biso   1.000  C
  H175     1.0000 0.84440  0.98440  0.67140  Biso   1.000  H
  H176     1.0000 0.15560  0.01560  0.32860  Biso   1.000  H
  H177     1.0000 0.92670  0.94000  0.68620  Biso   1.000  H
  H178     1.0000 0.07330  0.06000  0.31380  Biso   1.000  H
  H179     1.0000 0.91020  0.00470  0.68230  Biso   1.000  H
  H180     1.0000 0.08980  0.99530  0.31770  Biso   1.000  H
  C161     1.0000 0.60310  0.06550  0.75710  Biso   1.000  C
  C162     1.0000 0.39690  0.93450  0.24290  Biso   1.000  C
  H181     1.0000 0.63330  0.02490  0.76280  Biso   1.000  H
  H182     1.0000 0.36670  0.97510  0.23720  Biso   1.000  H
  C163     1.0000 0.88380  0.98749  0.38523  Biso   1.000  C
  C164     1.0000 0.11620  0.01251  0.61477  Biso   1.000  C
  H183     1.0000 0.91910  0.00230  0.39430  Biso   1.000  H
  H184     1.0000 0.08090  0.99770  0.60570  Biso   1.000  H
  H185     1.0000 0.91580  0.95890  0.36860  Biso   1.000  H
  H186     1.0000 0.08420  0.04110  0.63140  Biso   1.000  H
  H187     1.0000 0.84970  0.97020  0.41700  Biso   1.000  H
  H188     1.0000 0.15030  0.02980  0.58300  Biso   1.000  H
  C165     1.0000 0.25600  0.14725  0.35326  Biso   1.000  C
  C166     1.0000 0.74400  0.85275  0.64674  Biso   1.000  C
  H189     1.0000 0.24130  0.12410  0.38800  Biso   1.000  H
  H190     1.0000 0.75870  0.87590  0.61200  Biso   1.000  H
  C167     1.0000 0.81370  0.42930  0.39340  Biso   1.000  C
  C168     1.0000 0.18630  0.57070  0.60660  Biso   1.000  C
  H191     1.0000 0.84380  0.41760  0.36310  Biso   1.000  H
  H192     1.0000 0.15620  0.58240  0.63690  Biso   1.000  H
  H193     1.0000 0.80710  0.39560  0.42370  Biso   1.000  H
  H194     1.0000 0.19290  0.60440  0.57630  Biso   1.000  H
  H195     1.0000 0.84250  0.44990  0.40100  Biso   1.000  H
  H196     1.0000 0.15750  0.55010  0.59900  Biso   1.000  H
  C169     1.0000 0.43900  0.38210  0.37710  Biso   1.000  C
  C170     1.0000 0.56100  0.61790  0.62290  Biso   1.000  C
  H197     1.0000 0.40480  0.36000  0.37740  Biso   1.000  H
  H198     1.0000 0.59520  0.64000  0.62260  Biso   1.000  H
  H199     1.0000 0.42910  0.41890  0.34930  Biso   1.000  H
  H200     1.0000 0.57090  0.58110  0.65070  Biso   1.000  H
  H201     1.0000 0.42710  0.38800  0.41090  Biso   1.000  H
  H202     1.0000 0.57290  0.61200  0.58910  Biso   1.000  H
  C171     1.0000 0.92550  0.04184  0.93969  Biso   1.000  C
  C172     1.0000 0.07450  0.95816  0.06031  Biso   1.000  C
  H203     1.0000 0.93830  0.02280  0.91370  Biso   1.000  H
  H204     1.0000 0.06170  0.97720  0.08630  Biso   1.000  H
  H205     1.0000 0.95950  0.01970  0.96650  Biso   1.000  H
  H206     1.0000 0.04050  0.98030  0.03350  Biso   1.000  H
  H207     1.0000 0.93460  0.07980  0.92250  Biso   1.000  H
  H208     1.0000 0.06540  0.92020  0.07750  Biso   1.000  H
  C173     1.0000 0.10780  0.25564  0.19220  Biso   1.000  C
  C174     1.0000 0.89220  0.74436  0.80780  Biso   1.000  C
  H209     1.0000 0.12610  0.23990  0.16350  Biso   1.000  H
  H210     1.0000 0.87390  0.76010  0.83650  Biso   1.000  H
  H211     1.0000 0.07290  0.23410  0.22010  Biso   1.000  H
  H212     1.0000 0.92710  0.76590  0.77990  Biso   1.000  H
  H213     1.0000 0.15370  0.25300  0.20590  Biso   1.000  H
  H214     1.0000 0.84630  0.74700  0.79410  Biso   1.000  H
  C175     1.0000 0.62930  0.10760  0.27368  Biso   1.000  C
  C176     1.0000 0.37070  0.89240  0.72632  Biso   1.000  C
  H215     1.0000 0.61590  0.14970  0.25610  Biso   1.000  H
  H216     1.0000 0.38410  0.85030  0.74390  Biso   1.000  H
  C177     1.0000 0.79350  0.94090  0.89740  Biso   1.000  C
  C178     1.0000 0.20650  0.05910  0.10260  Biso   1.000  C
  H217     1.0000 0.83040  0.93990  0.86480  Biso   1.000  H
  H218     1.0000 0.16960  0.06010  0.13520  Biso   1.000  H
  H219     1.0000 0.78480  0.90310  0.91720  Biso   1.000  H
  H220     1.0000 0.21520  0.09690  0.08280  Biso   1.000  H
  H221     1.0000 0.81610  0.95240  0.91820  Biso   1.000  H
  H222     1.0000 0.18390  0.04760  0.08180  Biso   1.000  H
  C179     1.0000 0.60050  0.76290  0.28980  Biso   1.000  C
  C180     1.0000 0.39950  0.23710  0.71020  Biso   1.000  C
  H223     1.0000 0.62810  0.73780  0.31940  Biso   1.000  H
  H224     1.0000 0.37190  0.26220  0.68060  Biso   1.000  H
  H225     1.0000 0.54310  0.76740  0.30110  Biso   1.000  H
  H226     1.0000 0.45690  0.23260  0.69890  Biso   1.000  H
  H227     1.0000 0.61180  0.80010  0.27710  Biso   1.000  H
  H228     1.0000 0.38820  0.19990  0.72290  Biso   1.000  H
  C181     1.0000 0.58660  0.29340  0.70260  Biso   1.000  C
  C182     1.0000 0.41340  0.70660  0.29740  Biso   1.000  C
  H229     1.0000 0.59800  0.33060  0.68950  Biso   1.000  H
  H230     1.0000 0.40200  0.66940  0.31050  Biso   1.000  H
  H231     1.0000 0.52980  0.29760  0.71650  Biso   1.000  H
  H232     1.0000 0.47020  0.70240  0.28350  Biso   1.000  H
  H233     1.0000 0.60100  0.27770  0.67410  Biso   1.000  H
  H234     1.0000 0.39900  0.72230  0.32590  Biso   1.000  H
  C183     1.0000 0.62150  0.55620  0.24986  Biso   1.000  C
  C184     1.0000 0.37850  0.44380  0.75014  Biso   1.000  C
  H235     1.0000 0.65420  0.51700  0.25110  Biso   1.000  H
  H236     1.0000 0.34580  0.48300  0.74890  Biso   1.000  H
  C185     1.0000 0.09600  0.41830  0.97371  Biso   1.000  C
  C186     1.0000 0.90400  0.58170  0.02629  Biso   1.000  C
  H237     1.0000 0.14290  0.40920  0.94820  Biso   1.000  H
  H238     1.0000 0.85710  0.59080  0.05180  Biso   1.000  H
  H239     1.0000 0.04980  0.43950  0.95590  Biso   1.000  H
  H240     1.0000 0.95020  0.56050  0.04410  Biso   1.000  H
  H241     1.0000 0.08590  0.38310  0.00040  Biso   1.000  H
  H242     1.0000 0.91410  0.61690  0.99960  Biso   1.000  H
  C187     1.0000 0.70420  0.08180  0.24190  Biso   1.000  C
  C188     1.0000 0.29580  0.91820  0.75810  Biso   1.000  C
  C189     1.0000 0.53390  0.34970  0.93100  Biso   1.000  C
  C190     1.0000 0.46610  0.65030  0.06900  Biso   1.000  C
  H243     1.0000 0.57970  0.33140  0.94930  Biso   1.000  H
  H244     1.0000 0.42030  0.66860  0.05070  Biso   1.000  H
  H245     1.0000 0.53730  0.38790  0.90770  Biso   1.000  H
  H246     1.0000 0.46270  0.61210  0.09230  Biso   1.000  H
  H247     1.0000 0.53390  0.32720  0.91030  Biso   1.000  H
  H248     1.0000 0.46610  0.67280  0.08970  Biso   1.000  H
  C191     1.0000 0.79330  0.68210  0.12260  Biso   1.000  C
  C192     1.0000 0.20670  0.31790  0.87740  Biso   1.000  C
  H249     1.0000 0.73620  0.68530  0.13350  Biso   1.000  H
  H250     1.0000 0.26380  0.31470  0.86650  Biso   1.000  H
  H251     1.0000 0.80900  0.68180  0.08650  Biso   1.000  H
  H252     1.0000 0.19100  0.31820  0.91350  Biso   1.000  H
  H253     1.0000 0.80550  0.71450  0.12470  Biso   1.000  H
  H254     1.0000 0.19450  0.28550  0.87530  Biso   1.000  H
  C193     1.0000 0.58200  0.09140  0.70030  Biso   1.000  C
  C194     1.0000 0.41800  0.90860  0.29970  Biso   1.000  C
  H255     1.0000 0.56480  0.13290  0.69030  Biso   1.000  H
  H256     1.0000 0.43520  0.86710  0.30970  Biso   1.000  H
  H257     1.0000 0.53900  0.07720  0.69950  Biso   1.000  H
  H258     1.0000 0.46100  0.92280  0.30050  Biso   1.000  H
  H259     1.0000 0.62900  0.08030  0.67560  Biso   1.000  H
  H260     1.0000 0.37100  0.91970  0.32440  Biso   1.000  H
  C195     1.0000 0.61830  0.27780  0.78930  Biso   1.000  C
  C196     1.0000 0.38170  0.72220  0.21070  Biso   1.000  C
  H261     1.0000 0.64120  0.24830  0.81930  Biso   1.000  H
  H262     1.0000 0.35880  0.75170  0.18070  Biso   1.000  H
  H263     1.0000 0.56080  0.29120  0.79960  Biso   1.000  H
  H264     1.0000 0.43920  0.70880  0.20040  Biso   1.000  H
  H265     1.0000 0.64260  0.30970  0.77710  Biso   1.000  H
  H266     1.0000 0.35740  0.69030  0.22290  Biso   1.000  H
  C197     1.0000 0.60060  0.58810  0.19420  Biso   1.000  C
  C198     1.0000 0.39940  0.41190  0.80580  Biso   1.000  C
  H267     1.0000 0.57560  0.62830  0.19010  Biso   1.000  H
  H268     1.0000 0.42440  0.37170  0.80990  Biso   1.000  H
  H269     1.0000 0.56370  0.57150  0.18890  Biso   1.000  H
  H270     1.0000 0.43630  0.42850  0.81110  Biso   1.000  H
  H271     1.0000 0.64920  0.58450  0.16830  Biso   1.000  H
  H272     1.0000 0.35080  0.41550  0.83170  Biso   1.000  H
  C199     1.0000 0.79970  0.13420  0.65375  Biso   1.000  C
  C200     1.0000 0.20030  0.86580  0.34625  Biso   1.000  C
  H273     1.0000 0.78930  0.09850  0.65590  Biso   1.000  H
  H274     1.0000 0.21070  0.90150  0.34410  Biso   1.000  H
  C201     1.0000 0.11120  0.45622  0.00092  Biso   1.000  C
  C202     1.0000 0.88880  0.54378  0.99908  Biso   1.000  C
  H275     1.0000 0.06180  0.46590  0.02580  Biso   1.000  H
  H276     1.0000 0.93820  0.53410  0.97420  Biso   1.000  H
  C203     1.0000 0.92920  0.61880  0.14360  Biso   1.000  C
  C204     1.0000 0.07080  0.38120  0.85640  Biso   1.000  C
  H277     1.0000 0.94230  0.65160  0.14400  Biso   1.000  H
  H278     1.0000 0.05770  0.34840  0.85600  Biso   1.000  H
  H279     1.0000 0.94640  0.61580  0.10840  Biso   1.000  H
  H280     1.0000 0.05360  0.38420  0.89160  Biso   1.000  H
  H281     1.0000 0.95630  0.58410  0.16850  Biso   1.000  H
  H282     1.0000 0.04370  0.41590  0.83150  Biso   1.000  H
  C205     1.0000 0.46560  0.40070  0.21880  Biso   1.000  C
  C206     1.0000 0.53440  0.59930  0.78120  Biso   1.000  C
  H283     1.0000 0.50850  0.38390  0.19520  Biso   1.000  H
  H284     1.0000 0.49150  0.61610  0.80480  Biso   1.000  H
  H285     1.0000 0.48000  0.38540  0.25380  Biso   1.000  H
  H286     1.0000 0.52000  0.61460  0.74620  Biso   1.000  H
  H287     1.0000 0.45740  0.44210  0.20570  Biso   1.000  H
  H288     1.0000 0.54260  0.55790  0.79430  Biso   1.000  H
  C207     1.0000 0.88300  0.06330  0.29497  Biso   1.000  C
  C208     1.0000 0.11700  0.93670  0.70503  Biso   1.000  C
  H289     1.0000 0.84970  0.08510  0.26770  Biso   1.000  H
  H290     1.0000 0.15030  0.91490  0.73230  Biso   1.000  H
  H291     1.0000 0.92480  0.03290  0.28440  Biso   1.000  H
  H292     1.0000 0.07520  0.96710  0.71560  Biso   1.000  H
  H293     1.0000 0.90720  0.08850  0.29990  Biso   1.000  H
  H294     1.0000 0.09280  0.91150  0.70010  Biso   1.000  H
  C209     1.0000 0.66700  0.46230  0.42700  Biso   1.000  C
  C210     1.0000 0.33300  0.53770  0.57300  Biso   1.000  C
  H295     1.0000 0.68030  0.47000  0.45460  Biso   1.000  H
  H296     1.0000 0.31970  0.53000  0.54540  Biso   1.000  H
  H297     1.0000 0.66060  0.42360  0.44010  Biso   1.000  H
  H298     1.0000 0.33940  0.57640  0.55990  Biso   1.000  H
  H299     1.0000 0.61720  0.48940  0.41660  Biso   1.000  H
  H300     1.0000 0.38280  0.51060  0.58340  Biso   1.000  H
  C211     1.0000 0.45200  0.35390  0.97350  Biso   1.000  C
  C212     1.0000 0.54800  0.64610  0.02650  Biso   1.000  C
  H301     1.0000 0.44740  0.38180  0.99080  Biso   1.000  H
  H302     1.0000 0.55260  0.61820  0.00920  Biso   1.000  H
  C213     1.0000 0.96030  0.77310  0.12994  Biso   1.000  C
  C214     1.0000 0.03970  0.22690  0.87006  Biso   1.000  C
  H303     1.0000 0.96030  0.75470  0.10580  Biso   1.000  H
  H304     1.0000 0.03970  0.24530  0.89420  Biso   1.000  H
  H305     1.0000 0.01010  0.78430  0.12100  Biso   1.000  H
  H306     1.0000 0.98990  0.21570  0.87900  Biso   1.000  H
  H307     1.0000 0.91540  0.80690  0.12720  Biso   1.000  H
  H308     1.0000 0.08460  0.19310  0.87280  Biso   1.000  H
  C215     1.0000 0.53100  0.06700  0.80000  Biso   1.000  C
  C216     1.0000 0.46900  0.93300  0.20000  Biso   1.000  C
  H309     1.0000 0.54110  0.03250  0.83030  Biso   1.000  H
  H310     1.0000 0.45890  0.96750  0.16970  Biso   1.000  H
  H311     1.0000 0.48470  0.06910  0.78710  Biso   1.000  H
  H312     1.0000 0.51530  0.93090  0.21290  Biso   1.000  H
  H313     1.0000 0.52070  0.10040  0.81040  Biso   1.000  H
  H314     1.0000 0.47930  0.89960  0.18960  Biso   1.000  H
  C217     1.0000 0.13180  0.51270  0.96340  Biso   1.000  C
  C218     1.0000 0.86820  0.48730  0.03660  Biso   1.000  C
  H315     1.0000 0.13810  0.53320  0.98390  Biso   1.000  H
  H316     1.0000 0.86190  0.46680  0.01610  Biso   1.000  H
  H317     1.0000 0.08880  0.53620  0.94320  Biso   1.000  H
  H318     1.0000 0.91120  0.46380  0.05680  Biso   1.000  H
  H319     1.0000 0.18150  0.50440  0.93950  Biso   1.000  H
  H320     1.0000 0.81850  0.49560  0.06050  Biso   1.000  H
  C219     1.0000 0.81350  0.90850  0.76890  Biso   1.000  C
  C220     1.0000 0.18650  0.09150  0.23110  Biso   1.000  C
  H321     1.0000 0.77630  0.90830  0.80160  Biso   1.000  H
  H322     1.0000 0.22370  0.09170  0.19840  Biso   1.000  H
  H323     1.0000 0.85580  0.87310  0.77490  Biso   1.000  H
  H324     1.0000 0.14420  0.12690  0.22510  Biso   1.000  H
  H325     1.0000 0.78520  0.91180  0.74230  Biso   1.000  H
  H326     1.0000 0.21480  0.08820  0.25770  Biso   1.000  H
  C221     1.0000 0.54770  0.55070  0.29070  Biso   1.000  C
  C222     1.0000 0.45230  0.44930  0.70930  Biso   1.000  C
  H327     1.0000 0.55300  0.51080  0.31240  Biso   1.000  H
  H328     1.0000 0.44700  0.48920  0.68760  Biso   1.000  H
  H329     1.0000 0.50120  0.56440  0.27350  Biso   1.000  H
  H330     1.0000 0.49880  0.43560  0.72650  Biso   1.000  H
  H331     1.0000 0.54100  0.57340  0.31280  Biso   1.000  H
  H332     1.0000 0.45900  0.42660  0.68720  Biso   1.000  H
  C223     1.0000 0.38750  0.51910  0.06800  Biso   1.000  C
  C224     1.0000 0.61250  0.48090  0.93200  Biso   1.000  C
  H333     1.0000 0.33230  0.53210  0.08390  Biso   1.000  H
  H334     1.0000 0.66770  0.46790  0.91610  Biso   1.000  H
  H335     1.0000 0.40850  0.55200  0.04600  Biso   1.000  H
  H336     1.0000 0.59150  0.44800  0.95400  Biso   1.000  H
  H337     1.0000 0.41960  0.49530  0.09560  Biso   1.000  H
  H338     1.0000 0.58040  0.50470  0.90440  Biso   1.000  H
  C225     1.0000 0.64840  0.98670  0.93230  Biso   1.000  C
  C226     1.0000 0.35160  0.01330  0.06770  Biso   1.000  C
  H339     1.0000 0.67120  0.98750  0.95980  Biso   1.000  H
  H340     1.0000 0.32880  0.01250  0.04020  Biso   1.000  H
  H341     1.0000 0.62780  0.95310  0.94530  Biso   1.000  H
  H342     1.0000 0.37220  0.04690  0.05470  Biso   1.000  H
  H343     1.0000 0.60510  0.02100  0.92280  Biso   1.000  H
  H344     1.0000 0.39490  0.97900  0.07720  Biso   1.000  H
  C227     1.0000 0.55860  0.08780  0.27920  Biso   1.000  C
  C228     1.0000 0.44140  0.91220  0.72080  Biso   1.000  C
  H345     1.0000 0.56480  0.04890  0.30360  Biso   1.000  H
  H346     1.0000 0.43520  0.95110  0.69640  Biso   1.000  H
  H347     1.0000 0.55370  0.08880  0.24500  Biso   1.000  H
  H348     1.0000 0.44630  0.91120  0.75500  Biso   1.000  H
  H349     1.0000 0.51080  0.11270  0.29260  Biso   1.000  H
  H350     1.0000 0.48920  0.88730  0.70740  Biso   1.000  H
  C229     1.0000 0.58540  0.14620  0.95000  Biso   1.000  C
  C230     1.0000 0.41460  0.85380  0.05000  Biso   1.000  C
  H351     1.0000 0.57720  0.11110  0.97960  Biso   1.000  H
  H352     1.0000 0.42280  0.88890  0.02040  Biso   1.000  H
  C231     1.0000 0.33510  0.52050  0.99260  Biso   1.000  C
  C232     1.0000 0.66490  0.47950  0.00740  Biso   1.000  C
  H353     1.0000 0.33290  0.49560  0.97500  Biso   1.000  H
  H354     1.0000 0.66710  0.50440  0.02500  Biso   1.000  H
  H355     1.0000 0.35660  0.55190  0.96680  Biso   1.000  H
  H356     1.0000 0.64340  0.44810  0.03320  Biso   1.000  H
  H357     1.0000 0.28150  0.53570  0.00920  Biso   1.000  H
  H358     1.0000 0.71850  0.46430  0.99080  Biso   1.000  H
  C233     1.0000 0.84210  0.04670  0.96420  Biso   1.000  C
  C234     1.0000 0.15790  0.95330  0.03580  Biso   1.000  C
  C235     1.0000 0.72940  0.18540  0.63150  Biso   1.000  C
  C236     1.0000 0.27060  0.81460  0.36850  Biso   1.000  C
  H359     1.0000 0.67950  0.18100  0.65550  Biso   1.000  H
  H360     1.0000 0.32050  0.81900  0.34450  Biso   1.000  H
  H361     1.0000 0.72560  0.18610  0.59720  Biso   1.000  H
  H362     1.0000 0.27440  0.81390  0.40280  Biso   1.000  H
  H363     1.0000 0.73920  0.22100  0.62790  Biso   1.000  H
  H364     1.0000 0.26080  0.77900  0.37210  Biso   1.000  H
  C237     1.0000 0.86330  0.98170  0.53930  Biso   1.000  C
  C238     1.0000 0.13670  0.01830  0.46070  Biso   1.000  C
  C239     1.0000 0.94720  0.24190  0.65670  Biso   1.000  C
  C240     1.0000 0.05280  0.75810  0.34330  Biso   1.000  C
  C241     1.0000 0.93360  0.30450  0.65440  Biso   1.000  C
  C242     1.0000 0.06640  0.69550  0.34560  Biso   1.000  C
  H365     1.0000 0.87800  0.32520  0.65130  Biso   1.000  H
  H366     1.0000 0.12200  0.67480  0.34870  Biso   1.000  H
  H367     1.0000 0.96850  0.32320  0.62400  Biso   1.000  H
  H368     1.0000 0.03150  0.67680  0.37600  Biso   1.000  H
  H369     1.0000 0.94560  0.30420  0.68640  Biso   1.000  H
  H370     1.0000 0.05440  0.69580  0.31360  Biso   1.000  H
  C243     1.0000 0.88110  0.13570  0.62400  Biso   1.000  C
  C244     1.0000 0.11890  0.86430  0.37600  Biso   1.000  C
  H371     1.0000 0.88860  0.17360  0.61490  Biso   1.000  H
  H372     1.0000 0.11140  0.82640  0.38510  Biso   1.000  H
  H373     1.0000 0.88790  0.12720  0.59190  Biso   1.000  H
  H374     1.0000 0.11210  0.87280  0.40810  Biso   1.000  H
  H375     1.0000 0.92040  0.10740  0.64550  Biso   1.000  H
  H376     1.0000 0.07960  0.89260  0.35450  Biso   1.000  H
  C245     1.0000 0.62720  0.18640  0.96590  Biso   1.000  C
  C246     1.0000 0.37280  0.81360  0.03410  Biso   1.000  C
  H377     1.0000 0.68330  0.16720  0.96820  Biso   1.000  H
  H378     1.0000 0.31670  0.83280  0.03180  Biso   1.000  H
  H379     1.0000 0.59900  0.19100  0.99970  Biso   1.000  H
  H380     1.0000 0.40100  0.80900  0.00030  Biso   1.000  H
  H381     1.0000 0.62290  0.22380  0.93890  Biso   1.000  H
  H382     1.0000 0.37710  0.77620  0.06110  Biso   1.000  H
  C247     1.0000 0.81930  0.00720  0.01380  Biso   1.000  C
  C248     1.0000 0.18070  0.99280  0.98620  Biso   1.000  C
  H383     1.0000 0.76920  0.00040  0.01410  Biso   1.000  H
  H384     1.0000 0.23080  0.99960  0.98590  Biso   1.000  H
  H385     1.0000 0.81240  0.02290  0.04150  Biso   1.000  H
  H386     1.0000 0.18760  0.97710  0.95850  Biso   1.000  H
  H387     1.0000 0.86080  0.97130  0.01970  Biso   1.000  H
  H388     1.0000 0.13920  0.02870  0.98030  Biso   1.000  H
  C249     1.0000 0.37840  0.37450  0.94280  Biso   1.000  C
  C250     1.0000 0.62160  0.62550  0.05720  Biso   1.000  C
  H389     1.0000 0.38580  0.34880  0.92350  Biso   1.000  H
  H390     1.0000 0.61420  0.65120  0.07650  Biso   1.000  H
  H391     1.0000 0.37580  0.41320  0.91820  Biso   1.000  H
  H392     1.0000 0.62420  0.58680  0.08180  Biso   1.000  H
  H393     1.0000 0.32880  0.37420  0.96790  Biso   1.000  H
  H394     1.0000 0.67120  0.62580  0.03210  Biso   1.000  H
  C251     1.0000 0.92640  0.54180  0.44120  Biso   1.000  C
  C252     1.0000 0.07360  0.45820  0.55880  Biso   1.000  C
  H395     1.0000 0.94900  0.50940  0.42820  Biso   1.000  H
  H396     1.0000 0.05100  0.49060  0.57180  Biso   1.000  H
  H397     1.0000 0.95610  0.53730  0.46750  Biso   1.000  H
  H398     1.0000 0.04390  0.46270  0.53250  Biso   1.000  H
  H399     1.0000 0.92980  0.57700  0.41210  Biso   1.000  H
  H400     1.0000 0.07020  0.42300  0.58790  Biso   1.000  H
  C253     1.0000 0.83610  0.49450  0.51100  Biso   1.000  C
  C254     1.0000 0.16390  0.50550  0.48900  Biso   1.000  C
  H401     1.0000 0.78490  0.48630  0.51630  Biso   1.000  H
  H402     1.0000 0.21510  0.51370  0.48370  Biso   1.000  H
  H403     1.0000 0.83990  0.50170  0.54170  Biso   1.000  H
  H404     1.0000 0.16010  0.49830  0.45830  Biso   1.000  H
  H405     1.0000 0.87940  0.46190  0.50600  Biso   1.000  H
  H406     1.0000 0.12060  0.53810  0.49400  Biso   1.000  H
  C255     1.0000 0.84190  0.54420  0.46510  Biso   1.000  C
  C256     1.0000 0.15810  0.45580  0.53490  Biso   1.000  C
  H407     1.0000 0.81710  0.57930  0.47520  Biso   1.000  H
  H408     1.0000 0.18290  0.42070  0.52480  Biso   1.000  H
  C257     1.0000 0.50270  0.18680  0.92530  Biso   1.000  C
  C258     1.0000 0.49730  0.81320  0.07470  Biso   1.000  C
  H409     1.0000 0.46590  0.20490  0.95030  Biso   1.000  H
  H410     1.0000 0.53410  0.79510  0.04970  Biso   1.000  H
  H411     1.0000 0.47760  0.16320  0.91860  Biso   1.000  H
  H412     1.0000 0.52240  0.83680  0.08140  Biso   1.000  H
  H413     1.0000 0.51620  0.21610  0.89250  Biso   1.000  H
  H414     1.0000 0.48380  0.78390  0.10750  Biso   1.000  H
  C259     1.0000 0.91100  0.06940  0.52440  Biso   1.000  C
  C260     1.0000 0.08900  0.93060  0.47560  Biso   1.000  C
  C261     1.0000 0.50458  0.21335  0.52312  Biso   1.000  C
  C262     1.0000 0.49542  0.78665  0.47688  Biso   1.000  C
  C263     1.0000 0.44694  0.18445  0.53770  Biso   1.000  C
  C264     1.0000 0.55306  0.81555  0.46230  Biso   1.000  C
  C265     1.0000 0.87260  0.25512  0.46143  Biso   1.000  C
  C266     1.0000 0.12740  0.74488  0.53857  Biso   1.000  C
  H415     1.0000 0.90680  0.23240  0.44100  Biso   1.000  H
  H416     1.0000 0.09320  0.76760  0.55900  Biso   1.000  H
  C267     1.0000 0.95290  0.73240  0.18490  Biso   1.000  C
  C268     1.0000 0.04710  0.26760  0.81510  Biso   1.000  C
  H417     1.0000 0.99500  0.69610  0.18680  Biso   1.000  H
  H418     1.0000 0.00500  0.30390  0.81320  Biso   1.000  H
  C269     1.0000 0.96150  0.75960  0.22710  Biso   1.000  C
  C270     1.0000 0.03850  0.24040  0.77290  Biso   1.000  C
  H419     1.0000 0.92460  0.79740  0.22220  Biso   1.000  H
  H420     1.0000 0.07540  0.20260  0.77780  Biso   1.000  H
  H421     1.0000 0.01600  0.76260  0.22080  Biso   1.000  H
  H422     1.0000 0.98400  0.23740  0.77920  Biso   1.000  H
  H423     1.0000 0.94880  0.73480  0.26290  Biso   1.000  H
  H424     1.0000 0.05120  0.26520  0.73710  Biso   1.000  H
  C271     1.0000 0.89400  0.03680  0.50120  Biso   1.000  C
  C272     1.0000 0.10600  0.96320  0.49880  Biso   1.000  C
  C273     1.0000 0.56790  0.62380  0.45430  Biso   1.000  C
  C274     1.0000 0.43210  0.37620  0.54570  Biso   1.000  C
  C275     1.0000 0.53950  0.18580  0.57130  Biso   1.000  C
  C276     1.0000 0.46050  0.81420  0.42870  Biso   1.000  C
  C277     1.0000 0.01860  0.20870  0.64560  Biso   1.000  C
  C278     1.0000 0.98140  0.79130  0.35440  Biso   1.000  C
  C279     1.0000 0.63710  0.98010  0.45870  Biso   1.000  C
  C280     1.0000 0.36290  0.01990  0.54130  Biso   1.000  C
  C281     1.0000 0.63900  0.00150  0.50120  Biso   1.000  C
  C282     1.0000 0.36100  0.99850  0.49880  Biso   1.000  C
