data_image0
_cell_length_a       21.533
_cell_length_b       36.312
_cell_length_c       22.02
_cell_angle_alpha    90
_cell_angle_beta     102.93
_cell_angle_gamma    90

_symmetry_space_group_name_H-M    "P 1"
_symmetry_int_tables_number       1

loop_
  _symmetry_equiv_pos_as_xyz
  'x, y, z'

loop_
  _atom_site_label
  _atom_site_occupancy
  _atom_site_fract_x
  _atom_site_fract_y
  _atom_site_fract_z
  _atom_site_thermal_displace_type
  _atom_site_B_iso_or_equiv
  _atom_site_type_symbol
  I1       1.0000 0.21768  0.16082  0.72599  Biso   1.000  I
  I2       1.0000 0.78232  0.66082  0.77401  Biso   1.000  I
  I3       1.0000 0.78232  0.83918  0.27401  Biso   1.000  I
  I4       1.0000 0.21768  0.33918  0.22599  Biso   1.000  I
  Cu1      1.0000 0.11523  0.14406  0.77047  Biso   1.000  Cu
  Cu2      1.0000 0.88477  0.64406  0.72953  Biso   1.000  Cu
  Cu3      1.0000 0.88477  0.85594  0.22953  Biso   1.000  Cu
  Cu4      1.0000 0.11523  0.35594  0.27047  Biso   1.000  Cu
  Cu5      1.0000 0.11146  0.20528  0.71115  Biso   1.000  Cu
  Cu6      1.0000 0.88854  0.70528  0.78885  Biso   1.000  Cu
  Cu7      1.0000 0.88854  0.79472  0.28885  Biso   1.000  Cu
  Cu8      1.0000 0.11146  0.29472  0.21115  Biso   1.000  Cu
  Cu9      1.0000 0.10694  0.14372  0.64805  Biso   1.000  Cu
  Cu10     1.0000 0.89306  0.64372  0.85195  Biso   1.000  Cu
  Cu11     1.0000 0.89306  0.85628  0.35195  Biso   1.000  Cu
  Cu12     1.0000 0.10694  0.35628  0.14805  Biso   1.000  Cu
  I5       1.0000 0.04881  0.20381  0.79927  Biso   1.000  I
  I6       1.0000 0.95119  0.70381  0.70073  Biso   1.000  I
  I7       1.0000 0.95119  0.79619  0.20073  Biso   1.000  I
  I8       1.0000 0.04881  0.29619  0.29927  Biso   1.000  I
  I9       1.0000 0.04343  0.09369  0.70488  Biso   1.000  I
  I10      1.0000 0.95657  0.59369  0.79512  Biso   1.000  I
  I11      1.0000 0.95657  0.90631  0.29512  Biso   1.000  I
  I12      1.0000 0.04343  0.40631  0.20488  Biso   1.000  I
  N1       1.0000 0.15556  0.37221  0.35979  Biso   1.000  N
  N2       1.0000 0.84444  0.87221  0.14021  Biso   1.000  N
  N3       1.0000 0.84444  0.62779  0.64021  Biso   1.000  N
  N4       1.0000 0.15556  0.12779  0.85979  Biso   1.000  N
  I13      1.0000 0.04225  0.19940  0.59174  Biso   1.000  I
  I14      1.0000 0.95775  0.69940  0.90826  Biso   1.000  I
  I15      1.0000 0.95775  0.80060  0.40826  Biso   1.000  I
  I16      1.0000 0.04225  0.30060  0.09174  Biso   1.000  I
  N5       1.0000 0.15710  0.25530  0.71267  Biso   1.000  N
  N6       1.0000 0.84290  0.75530  0.78733  Biso   1.000  N
  N7       1.0000 0.84290  0.74470  0.28733  Biso   1.000  N
  N8       1.0000 0.15710  0.24470  0.21267  Biso   1.000  N
  N9       1.0000 0.13823  0.39112  0.08722  Biso   1.000  N
  N10      1.0000 0.86177  0.89112  0.41278  Biso   1.000  N
  N11      1.0000 0.86177  0.60888  0.91278  Biso   1.000  N
  N12      1.0000 0.13823  0.10888  0.58722  Biso   1.000  N
  Cu13     1.0000 0.01144  0.16606  0.68916  Biso   1.000  Cu
  Cu14     1.0000 0.98856  0.66606  0.81084  Biso   1.000  Cu
  Cu15     1.0000 0.98856  0.83394  0.31084  Biso   1.000  Cu
  Cu16     1.0000 0.01144  0.33394  0.18916  Biso   1.000  Cu
  C1       1.0000 0.14850  0.28475  0.74822  Biso   1.000  C
  C2       1.0000 0.85150  0.78475  0.75178  Biso   1.000  C
  C3       1.0000 0.85150  0.71525  0.25178  Biso   1.000  C
  C4       1.0000 0.14850  0.21525  0.24822  Biso   1.000  C
  C5       1.0000 0.20120  0.25821  0.67984  Biso   1.000  C
  C6       1.0000 0.79880  0.75821  0.82016  Biso   1.000  C
  C7       1.0000 0.79880  0.74179  0.32016  Biso   1.000  C
  C8       1.0000 0.20120  0.24179  0.17984  Biso   1.000  C
  N13      1.0000 0.08290  0.66530  0.81670  Biso   1.000  N
  N14      1.0000 0.91710  0.16530  0.68330  Biso   1.000  N
  N15      1.0000 0.91710  0.33470  0.18330  Biso   1.000  N
  N16      1.0000 0.08290  0.83470  0.31670  Biso   1.000  N
  N17      1.0000 0.17847  0.31562  0.75338  Biso   1.000  N
  N18      1.0000 0.82153  0.81562  0.74662  Biso   1.000  N
  N19      1.0000 0.82153  0.68438  0.24662  Biso   1.000  N
  N20      1.0000 0.17847  0.18438  0.25338  Biso   1.000  N
  H1       1.0000 0.11740  0.28230  0.77130  Biso   1.000  H
  H2       1.0000 0.88260  0.78230  0.72870  Biso   1.000  H
  H3       1.0000 0.88260  0.71770  0.22870  Biso   1.000  H
  H4       1.0000 0.11740  0.21770  0.27130  Biso   1.000  H
  C9       1.0000 0.23569  0.28965  0.68325  Biso   1.000  C
  C10      1.0000 0.76431  0.78965  0.81675  Biso   1.000  C
  C11      1.0000 0.76431  0.71035  0.31675  Biso   1.000  C
  C12      1.0000 0.23569  0.21035  0.18325  Biso   1.000  C
  H5       1.0000 0.20860  0.23890  0.65460  Biso   1.000  H
  H6       1.0000 0.79140  0.73890  0.84540  Biso   1.000  H
  H7       1.0000 0.79140  0.76110  0.34540  Biso   1.000  H
  H8       1.0000 0.20860  0.26110  0.15460  Biso   1.000  H
  Cu17     1.0000 0.15247  0.35965  0.79743  Biso   1.000  Cu
  Cu18     1.0000 0.84753  0.85965  0.70257  Biso   1.000  Cu
  Cu19     1.0000 0.84753  0.64035  0.20257  Biso   1.000  Cu
  Cu20     1.0000 0.15247  0.14035  0.29743  Biso   1.000  Cu
  C13      1.0000 0.22309  0.31711  0.72129  Biso   1.000  C
  C14      1.0000 0.77691  0.81711  0.77871  Biso   1.000  C
  C15      1.0000 0.77691  0.68289  0.27871  Biso   1.000  C
  C16      1.0000 0.22309  0.18289  0.22129  Biso   1.000  C
  C17      1.0000 0.28514  0.29192  0.64596  Biso   1.000  C
  C18      1.0000 0.71486  0.79192  0.85404  Biso   1.000  C
  C19      1.0000 0.71486  0.70808  0.35404  Biso   1.000  C
  C20      1.0000 0.28514  0.20808  0.14596  Biso   1.000  C
  I17      1.0000 0.13302  0.40616  0.69402  Biso   1.000  I
  I18      1.0000 0.86698  0.90616  0.80598  Biso   1.000  I
  I19      1.0000 0.86698  0.59384  0.30598  Biso   1.000  I
  I20      1.0000 0.13302  0.09384  0.19402  Biso   1.000  I
  I21      1.0000 0.05049  0.34831  0.84372  Biso   1.000  I
  I22      1.0000 0.94951  0.84831  0.65628  Biso   1.000  I
  I23      1.0000 0.94951  0.65169  0.15628  Biso   1.000  I
  I24      1.0000 0.05049  0.15169  0.34372  Biso   1.000  I
  I25      1.0000 0.25478  0.37645  0.88414  Biso   1.000  I
  I26      1.0000 0.74522  0.87645  0.61586  Biso   1.000  I
  I27      1.0000 0.74522  0.62355  0.11586  Biso   1.000  I
  I28      1.0000 0.25478  0.12355  0.38414  Biso   1.000  I
  H9       1.0000 0.24780  0.33830  0.72470  Biso   1.000  H
  H10      1.0000 0.75220  0.83830  0.77530  Biso   1.000  H
  H11      1.0000 0.75220  0.66170  0.27530  Biso   1.000  H
  H12      1.0000 0.24780  0.16170  0.22470  Biso   1.000  H
  O1       1.0000 0.32060  0.32096  0.65334  Biso   1.000  O
  O2       1.0000 0.67940  0.82096  0.84666  Biso   1.000  O
  O3       1.0000 0.67940  0.67904  0.34666  Biso   1.000  O
  O4       1.0000 0.32060  0.17904  0.15334  Biso   1.000  O
  O5       1.0000 0.28781  0.26514  0.61008  Biso   1.000  O
  O6       1.0000 0.71219  0.76514  0.88992  Biso   1.000  O
  O7       1.0000 0.71219  0.73486  0.38992  Biso   1.000  O
  O8       1.0000 0.28781  0.23486  0.11008  Biso   1.000  O
  Cu21     1.0000 0.19196  0.42800  0.80974  Biso   1.000  Cu
  Cu22     1.0000 0.80804  0.92800  0.69026  Biso   1.000  Cu
  Cu23     1.0000 0.80804  0.57200  0.19026  Biso   1.000  Cu
  Cu24     1.0000 0.19196  0.07200  0.30974  Biso   1.000  Cu
  Cu25     1.0000 0.06625  0.41008  0.77994  Biso   1.000  Cu
  Cu26     1.0000 0.93375  0.91008  0.72006  Biso   1.000  Cu
  Cu27     1.0000 0.93375  0.58992  0.22006  Biso   1.000  Cu
  Cu28     1.0000 0.06625  0.08992  0.27994  Biso   1.000  Cu
  Cu29     1.0000 0.13476  0.39827  0.89244  Biso   1.000  Cu
  Cu30     1.0000 0.86524  0.89827  0.60756  Biso   1.000  Cu
  Cu31     1.0000 0.86524  0.60173  0.10756  Biso   1.000  Cu
  Cu32     1.0000 0.13476  0.10173  0.39244  Biso   1.000  Cu
  Ti1      1.0000 0.39217  0.33908  0.61077  Biso   1.000  Ti
  Ti2      1.0000 0.60783  0.83908  0.88923  Biso   1.000  Ti
  Ti3      1.0000 0.60783  0.66092  0.38923  Biso   1.000  Ti
  Ti4      1.0000 0.39217  0.16092  0.11077  Biso   1.000  Ti
  Ti5      1.0000 0.32068  0.25664  0.52971  Biso   1.000  Ti
  Ti6      1.0000 0.67932  0.75664  0.97029  Biso   1.000  Ti
  Ti7      1.0000 0.67932  0.74336  0.47029  Biso   1.000  Ti
  Ti8      1.0000 0.32068  0.24336  0.02971  Biso   1.000  Ti
  I29      1.0000 0.10752  0.46809  0.85429  Biso   1.000  I
  I30      1.0000 0.89248  0.96809  0.64571  Biso   1.000  I
  I31      1.0000 0.89248  0.53191  0.14571  Biso   1.000  I
  I32      1.0000 0.10752  0.03191  0.35429  Biso   1.000  I
  N21      1.0000 0.26060  0.46437  0.79698  Biso   1.000  N
  N22      1.0000 0.73940  0.96437  0.70302  Biso   1.000  N
  N23      1.0000 0.73940  0.53563  0.20302  Biso   1.000  N
  N24      1.0000 0.26060  0.03563  0.29698  Biso   1.000  N
  N25      1.0000 0.97548  0.42630  0.74078  Biso   1.000  N
  N26      1.0000 0.02452  0.92630  0.75922  Biso   1.000  N
  N27      1.0000 0.02452  0.57370  0.25922  Biso   1.000  N
  N28      1.0000 0.97548  0.07370  0.24078  Biso   1.000  N
  N29      1.0000 0.14906  0.40712  0.98649  Biso   1.000  N
  N30      1.0000 0.85094  0.90712  0.51351  Biso   1.000  N
  N31      1.0000 0.85094  0.59288  0.01351  Biso   1.000  N
  N32      1.0000 0.14906  0.09288  0.48649  Biso   1.000  N
  O9       1.0000 0.30830  0.35715  0.54514  Biso   1.000  O
  O10      1.0000 0.69170  0.85715  0.95486  Biso   1.000  O
  O11      1.0000 0.69170  0.64285  0.45486  Biso   1.000  O
  O12      1.0000 0.30830  0.14285  0.04514  Biso   1.000  O
  O13      1.0000 0.37686  0.29393  0.55729  Biso   1.000  O
  O14      1.0000 0.62314  0.79393  0.94271  Biso   1.000  O
  O15      1.0000 0.62314  0.70607  0.44271  Biso   1.000  O
  O16      1.0000 0.37686  0.20607  0.05729  Biso   1.000  O
  O17      1.0000 0.38997  0.38452  0.64217  Biso   1.000  O
  O18      1.0000 0.61003  0.88452  0.85783  Biso   1.000  O
  O19      1.0000 0.61003  0.61548  0.35783  Biso   1.000  O
  O20      1.0000 0.38997  0.11548  0.14217  Biso   1.000  O
  O21      1.0000 0.44082  0.34973  0.54538  Biso   1.000  O
  O22      1.0000 0.55918  0.84973  0.95462  Biso   1.000  O
  O23      1.0000 0.55918  0.65027  0.45462  Biso   1.000  O
  O24      1.0000 0.44082  0.15027  0.04538  Biso   1.000  O
  O25      1.0000 0.45326  0.31992  0.67084  Biso   1.000  O
  O26      1.0000 0.54674  0.81992  0.82916  Biso   1.000  O
  O27      1.0000 0.54674  0.68008  0.32916  Biso   1.000  O
  O28      1.0000 0.45326  0.18008  0.17084  Biso   1.000  O
  O29      1.0000 0.36364  0.26130  0.45911  Biso   1.000  O
  O30      1.0000 0.63636  0.76130  0.04089  Biso   1.000  O
  O31      1.0000 0.63636  0.73870  0.54089  Biso   1.000  O
  O32      1.0000 0.36364  0.23870  0.95911  Biso   1.000  O
  O33      1.0000 0.24255  0.26505  0.48673  Biso   1.000  O
  O34      1.0000 0.75745  0.76505  0.01327  Biso   1.000  O
  O35      1.0000 0.75745  0.73495  0.51327  Biso   1.000  O
  O36      1.0000 0.24255  0.23495  0.98673  Biso   1.000  O
  O37      1.0000 0.33597  0.20999  0.54974  Biso   1.000  O
  O38      1.0000 0.66403  0.70999  0.95026  Biso   1.000  O
  O39      1.0000 0.66403  0.79001  0.45026  Biso   1.000  O
  O40      1.0000 0.33597  0.29001  0.04974  Biso   1.000  O
  C21      1.0000 0.32130  0.46224  0.82840  Biso   1.000  C
  C22      1.0000 0.67870  0.96224  0.67160  Biso   1.000  C
  C23      1.0000 0.67870  0.53776  0.17160  Biso   1.000  C
  C24      1.0000 0.32130  0.03776  0.32840  Biso   1.000  C
  C25      1.0000 0.24643  0.49109  0.75609  Biso   1.000  C
  C26      1.0000 0.75357  0.99109  0.74391  Biso   1.000  C
  C27      1.0000 0.75357  0.50891  0.24391  Biso   1.000  C
  C28      1.0000 0.24643  0.00891  0.25609  Biso   1.000  C
  C29      1.0000 0.96170  0.44009  0.68478  Biso   1.000  C
  C30      1.0000 0.03830  0.94009  0.81522  Biso   1.000  C
  C31      1.0000 0.03830  0.55991  0.31522  Biso   1.000  C
  C32      1.0000 0.96170  0.05991  0.18478  Biso   1.000  C
  C33      1.0000 0.93040  0.42827  0.77380  Biso   1.000  C
  C34      1.0000 0.06960  0.92827  0.72620  Biso   1.000  C
  C35      1.0000 0.06960  0.57173  0.22620  Biso   1.000  C
  C36      1.0000 0.93040  0.07173  0.27380  Biso   1.000  C
  C37      1.0000 0.18580  0.43542  0.00969  Biso   1.000  C
  C38      1.0000 0.81420  0.93542  0.49031  Biso   1.000  C
  C39      1.0000 0.81420  0.56458  0.99031  Biso   1.000  C
  C40      1.0000 0.18580  0.06458  0.50969  Biso   1.000  C
  C41      1.0000 0.12808  0.38468  0.02542  Biso   1.000  C
  C42      1.0000 0.87192  0.88468  0.47458  Biso   1.000  C
  C43      1.0000 0.87192  0.61532  0.97458  Biso   1.000  C
  C44      1.0000 0.12808  0.11532  0.52542  Biso   1.000  C
  C45      1.0000 0.29437  0.35247  0.48692  Biso   1.000  C
  C46      1.0000 0.70563  0.85247  0.01308  Biso   1.000  C
  C47      1.0000 0.70563  0.64753  0.51308  Biso   1.000  C
  C48      1.0000 0.29437  0.14753  0.98692  Biso   1.000  C
  Ti9      1.0000 0.41881  0.30565  0.48738  Biso   1.000  Ti
  Ti10     1.0000 0.58119  0.80565  0.01262  Biso   1.000  Ti
  Ti11     1.0000 0.58119  0.69435  0.51262  Biso   1.000  Ti
  Ti12     1.0000 0.41881  0.19435  0.98738  Biso   1.000  Ti
  C49      1.0000 0.35588  0.41912  0.63492  Biso   1.000  C
  C50      1.0000 0.64412  0.91912  0.86508  Biso   1.000  C
  C51      1.0000 0.64412  0.58088  0.36508  Biso   1.000  C
  C52      1.0000 0.35588  0.08088  0.13492  Biso   1.000  C
  C53      1.0000 0.47670  0.38388  0.54090  Biso   1.000  C
  C54      1.0000 0.52330  0.88388  0.95910  Biso   1.000  C
  C55      1.0000 0.52330  0.61612  0.45910  Biso   1.000  C
  C56      1.0000 0.47670  0.11612  0.04090  Biso   1.000  C
  C57      1.0000 0.47590  0.30990  0.73690  Biso   1.000  C
  C58      1.0000 0.52410  0.80990  0.76310  Biso   1.000  C
  C59      1.0000 0.52410  0.69010  0.26310  Biso   1.000  C
  C60      1.0000 0.47590  0.19010  0.23690  Biso   1.000  C
  C61      1.0000 0.35575  0.24330  0.39989  Biso   1.000  C
  C62      1.0000 0.64425  0.74330  0.10011  Biso   1.000  C
  C63      1.0000 0.64425  0.75670  0.60011  Biso   1.000  C
  C64      1.0000 0.35575  0.25670  0.89989  Biso   1.000  C
  C65      1.0000 0.17820  0.26241  0.46550  Biso   1.000  C
  C66      1.0000 0.82180  0.76241  0.03450  Biso   1.000  C
  C67      1.0000 0.82180  0.73759  0.53450  Biso   1.000  C
  C68      1.0000 0.17820  0.23759  0.96550  Biso   1.000  C
  C69      1.0000 0.34890  0.17766  0.58290  Biso   1.000  C
  C70      1.0000 0.65110  0.67766  0.91710  Biso   1.000  C
  C71      1.0000 0.65110  0.82234  0.41710  Biso   1.000  C
  C72      1.0000 0.34890  0.32234  0.08290  Biso   1.000  C
  N33      1.0000 0.36480  0.48488  0.82530  Biso   1.000  N
  N34      1.0000 0.63520  0.98488  0.67470  Biso   1.000  N
  N35      1.0000 0.63520  0.51512  0.17470  Biso   1.000  N
  N36      1.0000 0.36480  0.01512  0.32530  Biso   1.000  N
  H13      1.0000 0.33250  0.44220  0.85500  Biso   1.000  H
  H14      1.0000 0.66750  0.94220  0.64500  Biso   1.000  H
  H15      1.0000 0.66750  0.55780  0.14500  Biso   1.000  H
  H16      1.0000 0.33250  0.05780  0.35500  Biso   1.000  H
  C73      1.0000 0.29023  0.51740  0.74990  Biso   1.000  C
  C74      1.0000 0.70977  0.01740  0.75010  Biso   1.000  C
  C75      1.0000 0.70977  0.48260  0.25010  Biso   1.000  C
  C76      1.0000 0.29023  0.98260  0.24990  Biso   1.000  C
  H17      1.0000 0.20570  0.49220  0.73070  Biso   1.000  H
  H18      1.0000 0.79430  0.99220  0.76930  Biso   1.000  H
  H19      1.0000 0.79430  0.50780  0.26930  Biso   1.000  H
  H20      1.0000 0.20570  0.00780  0.23070  Biso   1.000  H
  N37      1.0000 0.90561  0.45496  0.65756  Biso   1.000  N
  N38      1.0000 0.09439  0.95496  0.84244  Biso   1.000  N
  N39      1.0000 0.09439  0.54504  0.34244  Biso   1.000  N
  N40      1.0000 0.90561  0.04504  0.15756  Biso   1.000  N
  H21      1.0000 0.99320  0.43950  0.66200  Biso   1.000  H
  H22      1.0000 0.00680  0.93950  0.83800  Biso   1.000  H
  H23      1.0000 0.00680  0.56050  0.33800  Biso   1.000  H
  H24      1.0000 0.99320  0.06050  0.16200  Biso   1.000  H
  H25      1.0000 0.93920  0.41850  0.81390  Biso   1.000  H
  H26      1.0000 0.06080  0.91850  0.68610  Biso   1.000  H
  H27      1.0000 0.06080  0.58150  0.18610  Biso   1.000  H
  H28      1.0000 0.93920  0.08150  0.31390  Biso   1.000  H
  C77      1.0000 0.87280  0.44381  0.75168  Biso   1.000  C
  C78      1.0000 0.12720  0.94381  0.74832  Biso   1.000  C
  C79      1.0000 0.12720  0.55619  0.24832  Biso   1.000  C
  C80      1.0000 0.87280  0.05619  0.25168  Biso   1.000  C
  C81      1.0000 0.19620  0.44223  0.07462  Biso   1.000  C
  C82      1.0000 0.80380  0.94223  0.42538  Biso   1.000  C
  C83      1.0000 0.80380  0.55777  0.92538  Biso   1.000  C
  C84      1.0000 0.19620  0.05777  0.57462  Biso   1.000  C
  H29      1.0000 0.10550  0.36370  0.00930  Biso   1.000  H
  H30      1.0000 0.89450  0.86370  0.49070  Biso   1.000  H
  H31      1.0000 0.89450  0.63630  0.99070  Biso   1.000  H
  H32      1.0000 0.10550  0.13630  0.50930  Biso   1.000  H
  O41      1.0000 0.32912  0.33549  0.45550  Biso   1.000  O
  O42      1.0000 0.67088  0.83549  0.04450  Biso   1.000  O
  O43      1.0000 0.67088  0.66451  0.54450  Biso   1.000  O
  O44      1.0000 0.32912  0.16451  0.95550  Biso   1.000  O
  C85      1.0000 0.23321  0.36864  0.45154  Biso   1.000  C
  C86      1.0000 0.76679  0.86864  0.04846  Biso   1.000  C
  C87      1.0000 0.76679  0.63136  0.54846  Biso   1.000  C
  C88      1.0000 0.23321  0.13136  0.95154  Biso   1.000  C
  O45      1.0000 0.43595  0.32092  0.41672  Biso   1.000  O
  O46      1.0000 0.56405  0.82092  0.08328  Biso   1.000  O
  O47      1.0000 0.56405  0.67908  0.58328  Biso   1.000  O
  O48      1.0000 0.43595  0.17908  0.91672  Biso   1.000  O
  O49      1.0000 0.48916  0.28188  0.51282  Biso   1.000  O
  O50      1.0000 0.51084  0.78188  0.98718  Biso   1.000  O
  O51      1.0000 0.51084  0.71812  0.48718  Biso   1.000  O
  O52      1.0000 0.48916  0.21812  0.01282  Biso   1.000  O
  H33      1.0000 0.33870  0.42290  0.59020  Biso   1.000  H
  H34      1.0000 0.66130  0.92290  0.90980  Biso   1.000  H
  H35      1.0000 0.66130  0.57710  0.40980  Biso   1.000  H
  H36      1.0000 0.33870  0.07710  0.09020  Biso   1.000  H
  C89      1.0000 0.39930  0.45178  0.65870  Biso   1.000  C
  C90      1.0000 0.60070  0.95178  0.84130  Biso   1.000  C
  C91      1.0000 0.60070  0.54822  0.34130  Biso   1.000  C
  C92      1.0000 0.39930  0.04822  0.15870  Biso   1.000  C
  C93      1.0000 0.30596  0.41276  0.66146  Biso   1.000  C
  C94      1.0000 0.69404  0.91276  0.83854  Biso   1.000  C
  C95      1.0000 0.69404  0.58724  0.33854  Biso   1.000  C
  C96      1.0000 0.30596  0.08724  0.16146  Biso   1.000  C
  C97      1.0000 0.54090  0.37338  0.53680  Biso   1.000  C
  C98      1.0000 0.45910  0.87338  0.96320  Biso   1.000  C
  C99      1.0000 0.45910  0.62662  0.46320  Biso   1.000  C
  C100     1.0000 0.54090  0.12662  0.03680  Biso   1.000  C
  C101     1.0000 0.44010  0.40863  0.49870  Biso   1.000  C
  C102     1.0000 0.55990  0.90863  0.00130  Biso   1.000  C
  C103     1.0000 0.55990  0.59137  0.50130  Biso   1.000  C
  C104     1.0000 0.44010  0.09137  0.99870  Biso   1.000  C
  C105     1.0000 0.45895  0.26832  0.72080  Biso   1.000  C
  C106     1.0000 0.54105  0.76832  0.77920  Biso   1.000  C
  C107     1.0000 0.54105  0.73168  0.27920  Biso   1.000  C
  C108     1.0000 0.45895  0.23168  0.22080  Biso   1.000  C
  H37      1.0000 0.46220  0.32290  0.77050  Biso   1.000  H
  H38      1.0000 0.53780  0.82290  0.72950  Biso   1.000  H
  H39      1.0000 0.53780  0.67710  0.22950  Biso   1.000  H
  H40      1.0000 0.46220  0.17710  0.27050  Biso   1.000  H
  C109     1.0000 0.54919  0.29714  0.74200  Biso   1.000  C
  C110     1.0000 0.45081  0.79714  0.75800  Biso   1.000  C
  C111     1.0000 0.45081  0.70286  0.25800  Biso   1.000  C
  C112     1.0000 0.54919  0.20286  0.24200  Biso   1.000  C
  C113     1.0000 0.29790  0.25195  0.35820  Biso   1.000  C
  C114     1.0000 0.70210  0.75195  0.14180  Biso   1.000  C
  C115     1.0000 0.70210  0.74805  0.64180  Biso   1.000  C
  C116     1.0000 0.29790  0.24805  0.85820  Biso   1.000  C
  H41      1.0000 0.38780  0.25520  0.38110  Biso   1.000  H
  H42      1.0000 0.61220  0.75520  0.11890  Biso   1.000  H
  H43      1.0000 0.61220  0.74480  0.61890  Biso   1.000  H
  H44      1.0000 0.38780  0.24480  0.88110  Biso   1.000  H
  C117     1.0000 0.37747  0.20546  0.40820  Biso   1.000  C
  C118     1.0000 0.62253  0.70546  0.09180  Biso   1.000  C
  C119     1.0000 0.62253  0.79454  0.59180  Biso   1.000  C
  C120     1.0000 0.37747  0.29454  0.90820  Biso   1.000  C
  C121     1.0000 0.14210  0.28518  0.49560  Biso   1.000  C
  C122     1.0000 0.85790  0.78518  0.00440  Biso   1.000  C
  C123     1.0000 0.85790  0.71482  0.50440  Biso   1.000  C
  C124     1.0000 0.14210  0.21482  0.99560  Biso   1.000  C
  C125     1.0000 0.15720  0.22597  0.45310  Biso   1.000  C
  C126     1.0000 0.84280  0.72597  0.04690  Biso   1.000  C
  C127     1.0000 0.84280  0.77403  0.54690  Biso   1.000  C
  C128     1.0000 0.15720  0.27403  0.95310  Biso   1.000  C
  C129     1.0000 0.28720  0.15817  0.56870  Biso   1.000  C
  C130     1.0000 0.71280  0.65817  0.93130  Biso   1.000  C
  C131     1.0000 0.71280  0.84183  0.43130  Biso   1.000  C
  C132     1.0000 0.28720  0.34183  0.06870  Biso   1.000  C
  H45      1.0000 0.35980  0.18350  0.62750  Biso   1.000  H
  H46      1.0000 0.64020  0.68350  0.87250  Biso   1.000  H
  H47      1.0000 0.64020  0.81650  0.37250  Biso   1.000  H
  H48      1.0000 0.35980  0.31650  0.12750  Biso   1.000  H
  C133     1.0000 0.40400  0.15320  0.56690  Biso   1.000  C
  C134     1.0000 0.59600  0.65320  0.93310  Biso   1.000  C
  C135     1.0000 0.59600  0.84680  0.43310  Biso   1.000  C
  C136     1.0000 0.40400  0.34680  0.06690  Biso   1.000  C
  C137     1.0000 0.34720  0.51337  0.78610  Biso   1.000  C
  C138     1.0000 0.65280  0.01337  0.71390  Biso   1.000  C
  C139     1.0000 0.65280  0.48663  0.21390  Biso   1.000  C
  C140     1.0000 0.34720  0.98663  0.28610  Biso   1.000  C
  C141     1.0000 0.27553  0.54980  0.70595  Biso   1.000  C
  C142     1.0000 0.72447  0.04980  0.79405  Biso   1.000  C
  C143     1.0000 0.72447  0.45020  0.29405  Biso   1.000  C
  C144     1.0000 0.27553  0.95020  0.20595  Biso   1.000  C
  C145     1.0000 0.86230  0.45821  0.69085  Biso   1.000  C
  C146     1.0000 0.13770  0.95821  0.80915  Biso   1.000  C
  C147     1.0000 0.13770  0.54179  0.30915  Biso   1.000  C
  C148     1.0000 0.86230  0.04179  0.19085  Biso   1.000  C
  C149     1.0000 0.82330  0.44860  0.78758  Biso   1.000  C
  C150     1.0000 0.17670  0.94860  0.71242  Biso   1.000  C
  C151     1.0000 0.17670  0.55140  0.21242  Biso   1.000  C
  C152     1.0000 0.82330  0.05140  0.28758  Biso   1.000  C
  C153     1.0000 0.17200  0.42117  0.10928  Biso   1.000  C
  C154     1.0000 0.82800  0.92117  0.39072  Biso   1.000  C
  C155     1.0000 0.82800  0.57883  0.89072  Biso   1.000  C
  C156     1.0000 0.17200  0.07883  0.60928  Biso   1.000  C
  C157     1.0000 0.23980  0.47624  0.10050  Biso   1.000  C
  C158     1.0000 0.76020  0.97624  0.39950  Biso   1.000  C
  C159     1.0000 0.76020  0.52376  0.89950  Biso   1.000  C
  C160     1.0000 0.23980  0.02376  0.60050  Biso   1.000  C
  C161     1.0000 0.20963  0.36019  0.39098  Biso   1.000  C
  C162     1.0000 0.79037  0.86019  0.10902  Biso   1.000  C
  C163     1.0000 0.79037  0.63981  0.60902  Biso   1.000  C
  C164     1.0000 0.20963  0.13981  0.89098  Biso   1.000  C
  C165     1.0000 0.19880  0.39175  0.47780  Biso   1.000  C
  C166     1.0000 0.80120  0.89175  0.02220  Biso   1.000  C
  C167     1.0000 0.80120  0.60825  0.52220  Biso   1.000  C
  C168     1.0000 0.19880  0.10825  0.97780  Biso   1.000  C
  C169     1.0000 0.45060  0.34120  0.36130  Biso   1.000  C
  C170     1.0000 0.54940  0.84120  0.13870  Biso   1.000  C
  C171     1.0000 0.54940  0.65880  0.63870  Biso   1.000  C
  C172     1.0000 0.45060  0.15880  0.86130  Biso   1.000  C
  C173     1.0000 0.52310  0.26240  0.55220  Biso   1.000  C
  C174     1.0000 0.47690  0.76240  0.94780  Biso   1.000  C
  C175     1.0000 0.47690  0.73760  0.44780  Biso   1.000  C
  C176     1.0000 0.52310  0.23760  0.05220  Biso   1.000  C
  H49      1.0000 0.41400  0.45000  0.70310  Biso   1.000  H
  H50      1.0000 0.58600  0.95000  0.79690  Biso   1.000  H
  H51      1.0000 0.58600  0.55000  0.29690  Biso   1.000  H
  H52      1.0000 0.41400  0.05000  0.20310  Biso   1.000  H
  H53      1.0000 0.37600  0.47430  0.64830  Biso   1.000  H
  H54      1.0000 0.62400  0.97430  0.85170  Biso   1.000  H
  H55      1.0000 0.62400  0.52570  0.35170  Biso   1.000  H
  H56      1.0000 0.37600  0.02570  0.14830  Biso   1.000  H
  H57      1.0000 0.43520  0.45150  0.63950  Biso   1.000  H
  H58      1.0000 0.56480  0.95150  0.86050  Biso   1.000  H
  H59      1.0000 0.56480  0.54850  0.36050  Biso   1.000  H
  H60      1.0000 0.43520  0.04850  0.13950  Biso   1.000  H
  H61      1.0000 0.27970  0.39370  0.63890  Biso   1.000  H
  H62      1.0000 0.72030  0.89370  0.86110  Biso   1.000  H
  H63      1.0000 0.72030  0.60630  0.36110  Biso   1.000  H
  H64      1.0000 0.27970  0.10630  0.13890  Biso   1.000  H
  H65      1.0000 0.28130  0.43490  0.66030  Biso   1.000  H
  H66      1.0000 0.71870  0.93490  0.83970  Biso   1.000  H
  H67      1.0000 0.71870  0.56510  0.33970  Biso   1.000  H
  H68      1.0000 0.28130  0.06510  0.16030  Biso   1.000  H
  H69      1.0000 0.32140  0.40520  0.70390  Biso   1.000  H
  H70      1.0000 0.67860  0.90520  0.79610  Biso   1.000  H
  H71      1.0000 0.67860  0.59480  0.29610  Biso   1.000  H
  H72      1.0000 0.32140  0.09480  0.20390  Biso   1.000  H
  H73      1.0000 0.55550  0.35350  0.56520  Biso   1.000  H
  H74      1.0000 0.44450  0.85350  0.93480  Biso   1.000  H
  H75      1.0000 0.44450  0.64650  0.43480  Biso   1.000  H
  H76      1.0000 0.55550  0.14650  0.06520  Biso   1.000  H
  H77      1.0000 0.56900  0.39410  0.54760  Biso   1.000  H
  H78      1.0000 0.43100  0.89410  0.95240  Biso   1.000  H
  H79      1.0000 0.43100  0.60590  0.45240  Biso   1.000  H
  H80      1.0000 0.56900  0.10590  0.04760  Biso   1.000  H
  H81      1.0000 0.54070  0.36560  0.49510  Biso   1.000  H
  H82      1.0000 0.45930  0.86560  0.00490  Biso   1.000  H
  H83      1.0000 0.45930  0.63440  0.50490  Biso   1.000  H
  H84      1.0000 0.54070  0.13440  0.99510  Biso   1.000  H
  H85      1.0000 0.43090  0.39800  0.45770  Biso   1.000  H
  H86      1.0000 0.56910  0.89800  0.04230  Biso   1.000  H
  H87      1.0000 0.56910  0.60200  0.54230  Biso   1.000  H
  H88      1.0000 0.43090  0.10200  0.95770  Biso   1.000  H
  H89      1.0000 0.46340  0.43110  0.49840  Biso   1.000  H
  H90      1.0000 0.53660  0.93110  0.00160  Biso   1.000  H
  H91      1.0000 0.53660  0.56890  0.50160  Biso   1.000  H
  H92      1.0000 0.46340  0.06890  0.99840  Biso   1.000  H
  H93      1.0000 0.40100  0.41370  0.51110  Biso   1.000  H
  H94      1.0000 0.59900  0.91370  0.98890  Biso   1.000  H
  H95      1.0000 0.59900  0.58630  0.48890  Biso   1.000  H
  H96      1.0000 0.40100  0.08630  0.01110  Biso   1.000  H
  H97      1.0000 0.41520  0.26390  0.72190  Biso   1.000  H
  H98      1.0000 0.58480  0.76390  0.77810  Biso   1.000  H
  H99      1.0000 0.58480  0.73610  0.27810  Biso   1.000  H
  H100     1.0000 0.41520  0.23610  0.22190  Biso   1.000  H
  H101     1.0000 0.48600  0.25280  0.75090  Biso   1.000  H
  H102     1.0000 0.51400  0.75280  0.74910  Biso   1.000  H
  H103     1.0000 0.51400  0.74720  0.24910  Biso   1.000  H
  H104     1.0000 0.48600  0.24720  0.25090  Biso   1.000  H
  H105     1.0000 0.46530  0.26280  0.68000  Biso   1.000  H
  H106     1.0000 0.53470  0.76280  0.82000  Biso   1.000  H
  H107     1.0000 0.53470  0.73720  0.32000  Biso   1.000  H
  H108     1.0000 0.46530  0.23720  0.18000  Biso   1.000  H
  H109     1.0000 0.55260  0.28470  0.70440  Biso   1.000  H
  H110     1.0000 0.44740  0.78470  0.79560  Biso   1.000  H
  H111     1.0000 0.44740  0.71530  0.29560  Biso   1.000  H
  H112     1.0000 0.55260  0.21530  0.20440  Biso   1.000  H
  H113     1.0000 0.56200  0.28080  0.77680  Biso   1.000  H
  H114     1.0000 0.43800  0.78080  0.72320  Biso   1.000  H
  H115     1.0000 0.43800  0.71920  0.22320  Biso   1.000  H
  H116     1.0000 0.56200  0.21920  0.27680  Biso   1.000  H
  H117     1.0000 0.57640  0.31840  0.74790  Biso   1.000  H
  H118     1.0000 0.42360  0.81840  0.75210  Biso   1.000  H
  H119     1.0000 0.42360  0.68160  0.25210  Biso   1.000  H
  H120     1.0000 0.57640  0.18160  0.24790  Biso   1.000  H
  H121     1.0000 0.26290  0.24500  0.37630  Biso   1.000  H
  H122     1.0000 0.73710  0.74500  0.12370  Biso   1.000  H
  H123     1.0000 0.73710  0.75500  0.62370  Biso   1.000  H
  H124     1.0000 0.26290  0.25500  0.87630  Biso   1.000  H
  H125     1.0000 0.29510  0.23880  0.31990  Biso   1.000  H
  H126     1.0000 0.70490  0.73880  0.18010  Biso   1.000  H
  H127     1.0000 0.70490  0.76120  0.68010  Biso   1.000  H
  H128     1.0000 0.29510  0.26120  0.81990  Biso   1.000  H
  H129     1.0000 0.29610  0.27790  0.35000  Biso   1.000  H
  H130     1.0000 0.70390  0.77790  0.15000  Biso   1.000  H
  H131     1.0000 0.70390  0.72210  0.65000  Biso   1.000  H
  H132     1.0000 0.29610  0.22210  0.85000  Biso   1.000  H
  H133     1.0000 0.40300  0.20230  0.44960  Biso   1.000  H
  H134     1.0000 0.59700  0.70230  0.05040  Biso   1.000  H
  H135     1.0000 0.59700  0.79770  0.55040  Biso   1.000  H
  H136     1.0000 0.40300  0.29770  0.94960  Biso   1.000  H
  H137     1.0000 0.40240  0.19970  0.37840  Biso   1.000  H
  H138     1.0000 0.59760  0.69970  0.12160  Biso   1.000  H
  H139     1.0000 0.59760  0.80030  0.62160  Biso   1.000  H
  H140     1.0000 0.40240  0.30030  0.87840  Biso   1.000  H
  H141     1.0000 0.34130  0.18930  0.40220  Biso   1.000  H
  H142     1.0000 0.65870  0.68930  0.09780  Biso   1.000  H
  H143     1.0000 0.65870  0.81070  0.59780  Biso   1.000  H
  H144     1.0000 0.34130  0.31070  0.90220  Biso   1.000  H
  H145     1.0000 0.14060  0.27470  0.53530  Biso   1.000  H
  H146     1.0000 0.85940  0.77470  0.96470  Biso   1.000  H
  H147     1.0000 0.85940  0.72530  0.46470  Biso   1.000  H
  H148     1.0000 0.14060  0.22530  0.03530  Biso   1.000  H
  H149     1.0000 0.09970  0.28730  0.47060  Biso   1.000  H
  H150     1.0000 0.90030  0.78730  0.02940  Biso   1.000  H
  H151     1.0000 0.90030  0.71270  0.52940  Biso   1.000  H
  H152     1.0000 0.09970  0.21270  0.97060  Biso   1.000  H
  H153     1.0000 0.16140  0.30910  0.50170  Biso   1.000  H
  H154     1.0000 0.83860  0.80910  0.99830  Biso   1.000  H
  H155     1.0000 0.83860  0.69090  0.49830  Biso   1.000  H
  H156     1.0000 0.16140  0.19090  0.00170  Biso   1.000  H
  H157     1.0000 0.17580  0.21590  0.42100  Biso   1.000  H
  H158     1.0000 0.82420  0.71590  0.07900  Biso   1.000  H
  H159     1.0000 0.82420  0.78410  0.57900  Biso   1.000  H
  H160     1.0000 0.17580  0.28410  0.92100  Biso   1.000  H
  H161     1.0000 0.11160  0.22570  0.43950  Biso   1.000  H
  H162     1.0000 0.88840  0.72570  0.06050  Biso   1.000  H
  H163     1.0000 0.88840  0.77430  0.56050  Biso   1.000  H
  H164     1.0000 0.11160  0.27430  0.93950  Biso   1.000  H
  H165     1.0000 0.16980  0.21150  0.49030  Biso   1.000  H
  H166     1.0000 0.83020  0.71150  0.00970  Biso   1.000  H
  H167     1.0000 0.83020  0.78850  0.50970  Biso   1.000  H
  H168     1.0000 0.16980  0.28850  0.99030  Biso   1.000  H
  H169     1.0000 0.25510  0.17340  0.58000  Biso   1.000  H
  H170     1.0000 0.74490  0.67340  0.92000  Biso   1.000  H
  H171     1.0000 0.74490  0.82660  0.42000  Biso   1.000  H
  H172     1.0000 0.25510  0.32660  0.08000  Biso   1.000  H
  H173     1.0000 0.29090  0.13560  0.59200  Biso   1.000  H
  H174     1.0000 0.70910  0.63560  0.90800  Biso   1.000  H
  H175     1.0000 0.70910  0.86440  0.40800  Biso   1.000  H
  H176     1.0000 0.29090  0.36440  0.09200  Biso   1.000  H
  H177     1.0000 0.27550  0.15280  0.52500  Biso   1.000  H
  H178     1.0000 0.72450  0.65280  0.97500  Biso   1.000  H
  H179     1.0000 0.72450  0.84720  0.47500  Biso   1.000  H
  H180     1.0000 0.27550  0.34720  0.02500  Biso   1.000  H
  H181     1.0000 0.39180  0.14530  0.52420  Biso   1.000  H
  H182     1.0000 0.60820  0.64530  0.97580  Biso   1.000  H
  H183     1.0000 0.60820  0.85470  0.47580  Biso   1.000  H
  H184     1.0000 0.39180  0.35470  0.02420  Biso   1.000  H
  H185     1.0000 0.41100  0.13210  0.59370  Biso   1.000  H
  H186     1.0000 0.58900  0.63210  0.90630  Biso   1.000  H
  H187     1.0000 0.58900  0.86790  0.40630  Biso   1.000  H
  H188     1.0000 0.41100  0.36790  0.09370  Biso   1.000  H
  H189     1.0000 0.44240  0.16750  0.57290  Biso   1.000  H
  H190     1.0000 0.55760  0.66750  0.92710  Biso   1.000  H
  H191     1.0000 0.55760  0.83250  0.42710  Biso   1.000  H
  H192     1.0000 0.44240  0.33250  0.07290  Biso   1.000  H
  H193     1.0000 0.37750  0.53140  0.78460  Biso   1.000  H
  H194     1.0000 0.62250  0.03140  0.71540  Biso   1.000  H
  H195     1.0000 0.62250  0.46860  0.21540  Biso   1.000  H
  H196     1.0000 0.37750  0.96860  0.28460  Biso   1.000  H
  O53      1.0000 0.31502  0.57389  0.70845  Biso   1.000  O
  O54      1.0000 0.68498  0.07389  0.79155  Biso   1.000  O
  O55      1.0000 0.68498  0.42611  0.29155  Biso   1.000  O
  O56      1.0000 0.31502  0.92611  0.20845  Biso   1.000  O
  O57      1.0000 0.22111  0.54714  0.66941  Biso   1.000  O
  O58      1.0000 0.77889  0.04714  0.83059  Biso   1.000  O
  O59      1.0000 0.77889  0.45286  0.33059  Biso   1.000  O
  O60      1.0000 0.22111  0.95286  0.16941  Biso   1.000  O
  H197     1.0000 0.82420  0.47020  0.67400  Biso   1.000  H
  H198     1.0000 0.17580  0.97020  0.82600  Biso   1.000  H
  H199     1.0000 0.17580  0.52980  0.32600  Biso   1.000  H
  H200     1.0000 0.82420  0.02980  0.17400  Biso   1.000  H
  O61      1.0000 0.77393  0.46642  0.76256  Biso   1.000  O
  O62      1.0000 0.22607  0.96642  0.73744  Biso   1.000  O
  O63      1.0000 0.22607  0.53358  0.23744  Biso   1.000  O
  O64      1.0000 0.77393  0.03358  0.26256  Biso   1.000  O
  O65      1.0000 0.83459  0.43435  0.83876  Biso   1.000  O
  O66      1.0000 0.16541  0.93435  0.66124  Biso   1.000  O
  O67      1.0000 0.16541  0.56565  0.16124  Biso   1.000  O
  O68      1.0000 0.83459  0.06565  0.33876  Biso   1.000  O
  H201     1.0000 0.17800  0.42680  0.15140  Biso   1.000  H
  H202     1.0000 0.82200  0.92680  0.34860  Biso   1.000  H
  H203     1.0000 0.82200  0.57320  0.84860  Biso   1.000  H
  H204     1.0000 0.17800  0.07320  0.65140  Biso   1.000  H
  O69      1.0000 0.24732  0.48016  0.15693  Biso   1.000  O
  O70      1.0000 0.75268  0.98016  0.34307  Biso   1.000  O
  O71      1.0000 0.75268  0.51984  0.84307  Biso   1.000  O
  O72      1.0000 0.24732  0.01984  0.65693  Biso   1.000  O
  O73      1.0000 0.27480  0.48802  0.06340  Biso   1.000  O
  O74      1.0000 0.72520  0.98802  0.43660  Biso   1.000  O
  O75      1.0000 0.72520  0.51198  0.93660  Biso   1.000  O
  O76      1.0000 0.27480  0.01198  0.56340  Biso   1.000  O
  H205     1.0000 0.23350  0.34500  0.37090  Biso   1.000  H
  H206     1.0000 0.76650  0.84500  0.12910  Biso   1.000  H
  H207     1.0000 0.76650  0.65500  0.62910  Biso   1.000  H
  H208     1.0000 0.23350  0.15500  0.87090  Biso   1.000  H
  N41      1.0000 0.14350  0.40525  0.44805  Biso   1.000  N
  N42      1.0000 0.85650  0.90525  0.05195  Biso   1.000  N
  N43      1.0000 0.85650  0.59475  0.55195  Biso   1.000  N
  N44      1.0000 0.14350  0.09475  0.94805  Biso   1.000  N
  H209     1.0000 0.21460  0.39870  0.51910  Biso   1.000  H
  H210     1.0000 0.78540  0.89870  0.98090  Biso   1.000  H
  H211     1.0000 0.78540  0.60130  0.48090  Biso   1.000  H
  H212     1.0000 0.21460  0.10130  0.01910  Biso   1.000  H
  H213     1.0000 0.45350  0.36810  0.36520  Biso   1.000  H
  H214     1.0000 0.54650  0.86810  0.13480  Biso   1.000  H
  H215     1.0000 0.54650  0.63190  0.63480  Biso   1.000  H
  H216     1.0000 0.45350  0.13190  0.86520  Biso   1.000  H
  C177     1.0000 0.40590  0.32772  0.30920  Biso   1.000  C
  C178     1.0000 0.59410  0.82772  0.19080  Biso   1.000  C
  C179     1.0000 0.59410  0.67228  0.69080  Biso   1.000  C
  C180     1.0000 0.40590  0.17228  0.80920  Biso   1.000  C
  H217     1.0000 0.49950  0.25410  0.58290  Biso   1.000  H
  H218     1.0000 0.50050  0.75410  0.91710  Biso   1.000  H
  H219     1.0000 0.50050  0.74590  0.41710  Biso   1.000  H
  H220     1.0000 0.49950  0.24590  0.08290  Biso   1.000  H
  C181     1.0000 0.54480  0.22533  0.51320  Biso   1.000  C
  C182     1.0000 0.45520  0.72533  0.98680  Biso   1.000  C
  C183     1.0000 0.45520  0.77467  0.48680  Biso   1.000  C
  C184     1.0000 0.54480  0.27467  0.01320  Biso   1.000  C
  C185     1.0000 0.58370  0.27990  0.58400  Biso   1.000  C
  C186     1.0000 0.41630  0.77990  0.91600  Biso   1.000  C
  C187     1.0000 0.41630  0.72010  0.41600  Biso   1.000  C
  C188     1.0000 0.58370  0.22010  0.08400  Biso   1.000  C
  Ti13     1.0000 0.31521  0.62495  0.66708  Biso   1.000  Ti
  Ti14     1.0000 0.68479  0.12495  0.83292  Biso   1.000  Ti
  Ti15     1.0000 0.68479  0.37505  0.33292  Biso   1.000  Ti
  Ti16     1.0000 0.31521  0.87505  0.16708  Biso   1.000  Ti
  Ti17     1.0000 0.16197  0.57944  0.60316  Biso   1.000  Ti
  Ti18     1.0000 0.83803  0.07944  0.89684  Biso   1.000  Ti
  Ti19     1.0000 0.83803  0.42056  0.39684  Biso   1.000  Ti
  Ti20     1.0000 0.16197  0.92056  0.10316  Biso   1.000  Ti
  Ti21     1.0000 0.69112  0.48332  0.78510  Biso   1.000  Ti
  Ti22     1.0000 0.30888  0.98332  0.71490  Biso   1.000  Ti
  Ti23     1.0000 0.30888  0.51668  0.21490  Biso   1.000  Ti
  Ti24     1.0000 0.69112  0.01668  0.28510  Biso   1.000  Ti
  Ti25     1.0000 0.78820  0.43257  0.91634  Biso   1.000  Ti
  Ti26     1.0000 0.21180  0.93257  0.58366  Biso   1.000  Ti
  Ti27     1.0000 0.21180  0.56743  0.08366  Biso   1.000  Ti
  Ti28     1.0000 0.78820  0.06743  0.41634  Biso   1.000  Ti
  Ti29     1.0000 0.34115  0.53567  0.08781  Biso   1.000  Ti
  Ti30     1.0000 0.65885  0.03567  0.41219  Biso   1.000  Ti
  Ti31     1.0000 0.65885  0.46433  0.91219  Biso   1.000  Ti
  Ti32     1.0000 0.34115  0.96433  0.58781  Biso   1.000  Ti
  C189     1.0000 0.12710  0.39460  0.39020  Biso   1.000  C
  C190     1.0000 0.87290  0.89460  0.10980  Biso   1.000  C
  C191     1.0000 0.87290  0.60540  0.60980  Biso   1.000  C
  C192     1.0000 0.12710  0.10540  0.89020  Biso   1.000  C
  H221     1.0000 0.41540  0.30250  0.30190  Biso   1.000  H
  H222     1.0000 0.58460  0.80250  0.19810  Biso   1.000  H
  H223     1.0000 0.58460  0.69750  0.69810  Biso   1.000  H
  H224     1.0000 0.41540  0.19750  0.80190  Biso   1.000  H
  H225     1.0000 0.40800  0.34220  0.27320  Biso   1.000  H
  H226     1.0000 0.59200  0.84220  0.22680  Biso   1.000  H
  H227     1.0000 0.59200  0.65780  0.72680  Biso   1.000  H
  H228     1.0000 0.40800  0.15780  0.77320  Biso   1.000  H
  H229     1.0000 0.36380  0.32930  0.31690  Biso   1.000  H
  H230     1.0000 0.63620  0.82930  0.18310  Biso   1.000  H
  H231     1.0000 0.63620  0.67070  0.68310  Biso   1.000  H
  H232     1.0000 0.36380  0.17070  0.81690  Biso   1.000  H
  H233     1.0000 0.51350  0.22150  0.47520  Biso   1.000  H
  H234     1.0000 0.48650  0.72150  0.02480  Biso   1.000  H
  H235     1.0000 0.48650  0.77850  0.52480  Biso   1.000  H
  H236     1.0000 0.51350  0.27850  0.97520  Biso   1.000  H
  H237     1.0000 0.54770  0.20380  0.53890  Biso   1.000  H
  H238     1.0000 0.45230  0.70380  0.96110  Biso   1.000  H
  H239     1.0000 0.45230  0.79620  0.46110  Biso   1.000  H
  H240     1.0000 0.54770  0.29620  0.03890  Biso   1.000  H
  H241     1.0000 0.58550  0.23000  0.50360  Biso   1.000  H
  H242     1.0000 0.41450  0.73000  0.99640  Biso   1.000  H
  H243     1.0000 0.41450  0.77000  0.49640  Biso   1.000  H
  H244     1.0000 0.58550  0.27000  0.00360  Biso   1.000  H
  H245     1.0000 0.61890  0.26530  0.57750  Biso   1.000  H
  H246     1.0000 0.38110  0.76530  0.92250  Biso   1.000  H
  H247     1.0000 0.38110  0.73470  0.42250  Biso   1.000  H
  H248     1.0000 0.61890  0.23470  0.07750  Biso   1.000  H
  H249     1.0000 0.58540  0.28150  0.62790  Biso   1.000  H
  H250     1.0000 0.41460  0.78150  0.87210  Biso   1.000  H
  H251     1.0000 0.41460  0.71850  0.37210  Biso   1.000  H
  H252     1.0000 0.58540  0.21850  0.12790  Biso   1.000  H
  H253     1.0000 0.58630  0.30410  0.56750  Biso   1.000  H
  H254     1.0000 0.41370  0.80410  0.93250  Biso   1.000  H
  H255     1.0000 0.41370  0.69590  0.43250  Biso   1.000  H
  H256     1.0000 0.58630  0.19590  0.06750  Biso   1.000  H
  O77      1.0000 0.23263  0.61192  0.61014  Biso   1.000  O
  O78      1.0000 0.76737  0.11192  0.88986  Biso   1.000  O
  O79      1.0000 0.76737  0.38808  0.38986  Biso   1.000  O
  O80      1.0000 0.23263  0.88808  0.11014  Biso   1.000  O
  O81      1.0000 0.37523  0.64215  0.72899  Biso   1.000  O
  O82      1.0000 0.62477  0.14215  0.77101  Biso   1.000  O
  O83      1.0000 0.62477  0.35785  0.27101  Biso   1.000  O
  O84      1.0000 0.37523  0.85785  0.22899  Biso   1.000  O
  O85      1.0000 0.36274  0.60856  0.61863  Biso   1.000  O
  O86      1.0000 0.63726  0.10856  0.88137  Biso   1.000  O
  O87      1.0000 0.63726  0.39144  0.38137  Biso   1.000  O
  O88      1.0000 0.36274  0.89144  0.11863  Biso   1.000  O
  O89      1.0000 0.25488  0.63577  0.73150  Biso   1.000  O
  O90      1.0000 0.74512  0.13577  0.76850  Biso   1.000  O
  O91      1.0000 0.74512  0.36423  0.26850  Biso   1.000  O
  O92      1.0000 0.25488  0.86423  0.23150  Biso   1.000  O
  O93      1.0000 0.28321  0.67217  0.62534  Biso   1.000  O
  O94      1.0000 0.71679  0.17217  0.87466  Biso   1.000  O
  O95      1.0000 0.71679  0.32783  0.37466  Biso   1.000  O
  O96      1.0000 0.28321  0.82783  0.12534  Biso   1.000  O
  O97      1.0000 0.12433  0.62354  0.55529  Biso   1.000  O
  O98      1.0000 0.87567  0.12354  0.94471  Biso   1.000  O
  O99      1.0000 0.87567  0.37646  0.44471  Biso   1.000  O
  O100     1.0000 0.12433  0.87646  0.05529  Biso   1.000  O
  O101     1.0000 0.16688  0.54850  0.54146  Biso   1.000  O
  O102     1.0000 0.83312  0.04850  0.95854  Biso   1.000  O
  O103     1.0000 0.83312  0.45150  0.45854  Biso   1.000  O
  O104     1.0000 0.16688  0.95150  0.04146  Biso   1.000  O
  O105     1.0000 0.09659  0.56379  0.63005  Biso   1.000  O
  O106     1.0000 0.90341  0.06379  0.86995  Biso   1.000  O
  O107     1.0000 0.90341  0.43621  0.36995  Biso   1.000  O
  O108     1.0000 0.09659  0.93621  0.13005  Biso   1.000  O
  O109     1.0000 0.28661  0.54784  0.14404  Biso   1.000  O
  O110     1.0000 0.71339  0.04784  0.35596  Biso   1.000  O
  O111     1.0000 0.71339  0.45216  0.85596  Biso   1.000  O
  O112     1.0000 0.28661  0.95216  0.64404  Biso   1.000  O
  O113     1.0000 0.37810  0.50102  0.17168  Biso   1.000  O
  O114     1.0000 0.62190  0.00102  0.32832  Biso   1.000  O
  O115     1.0000 0.62190  0.49898  0.82832  Biso   1.000  O
  O116     1.0000 0.37810  0.99898  0.67168  Biso   1.000  O
  O117     1.0000 0.26950  0.56145  0.02734  Biso   1.000  O
  O118     1.0000 0.73050  0.06145  0.47266  Biso   1.000  O
  O119     1.0000 0.73050  0.43855  0.97266  Biso   1.000  O
  O120     1.0000 0.26950  0.93855  0.52734  Biso   1.000  O
  O121     1.0000 0.37890  0.51242  0.03250  Biso   1.000  O
  O122     1.0000 0.62110  0.01242  0.46750  Biso   1.000  O
  O123     1.0000 0.62110  0.48758  0.96750  Biso   1.000  O
  O124     1.0000 0.37890  0.98758  0.53250  Biso   1.000  O
  O125     1.0000 0.40420  0.57587  0.10840  Biso   1.000  O
  O126     1.0000 0.59580  0.07587  0.39160  Biso   1.000  O
  O127     1.0000 0.59580  0.42413  0.89160  Biso   1.000  O
  O128     1.0000 0.40420  0.92413  0.60840  Biso   1.000  O
  H257     1.0000 0.08920  0.40460  0.36740  Biso   1.000  H
  H258     1.0000 0.91080  0.90460  0.13260  Biso   1.000  H
  H259     1.0000 0.91080  0.59540  0.63260  Biso   1.000  H
  H260     1.0000 0.08920  0.09540  0.86740  Biso   1.000  H
  Ti33     1.0000 0.19614  0.65875  0.57523  Biso   1.000  Ti
  Ti34     1.0000 0.80386  0.15875  0.92477  Biso   1.000  Ti
  Ti35     1.0000 0.80386  0.34125  0.42477  Biso   1.000  Ti
  Ti36     1.0000 0.19614  0.84125  0.07523  Biso   1.000  Ti
  C193     1.0000 0.38790  0.65352  0.78950  Biso   1.000  C
  C194     1.0000 0.61210  0.15352  0.71050  Biso   1.000  C
  C195     1.0000 0.61210  0.34648  0.21050  Biso   1.000  C
  C196     1.0000 0.38790  0.84648  0.28950  Biso   1.000  C
  C197     1.0000 0.40020  0.58336  0.59940  Biso   1.000  C
  C198     1.0000 0.59980  0.08336  0.90060  Biso   1.000  C
  C199     1.0000 0.59980  0.41664  0.40060  Biso   1.000  C
  C200     1.0000 0.40020  0.91664  0.09940  Biso   1.000  C
  C201     1.0000 0.19970  0.64126  0.72520  Biso   1.000  C
  C202     1.0000 0.80030  0.14126  0.77480  Biso   1.000  C
  C203     1.0000 0.80030  0.35874  0.27480  Biso   1.000  C
  C204     1.0000 0.19970  0.85874  0.22520  Biso   1.000  C
  C205     1.0000 0.32460  0.71052  0.64044  Biso   1.000  C
  C206     1.0000 0.67540  0.21052  0.85956  Biso   1.000  C
  C207     1.0000 0.67540  0.28948  0.35956  Biso   1.000  C
  C208     1.0000 0.32460  0.78948  0.14044  Biso   1.000  C
  C209     1.0000 0.06210  0.63068  0.52230  Biso   1.000  C
  C210     1.0000 0.93790  0.13068  0.97770  Biso   1.000  C
  C211     1.0000 0.93790  0.36932  0.47770  Biso   1.000  C
  C212     1.0000 0.06210  0.86932  0.02230  Biso   1.000  C
  C213     1.0000 0.14960  0.51344  0.50870  Biso   1.000  C
  C214     1.0000 0.85040  0.01344  0.99130  Biso   1.000  C
  C215     1.0000 0.85040  0.48656  0.49130  Biso   1.000  C
  C216     1.0000 0.14960  0.98656  0.00870  Biso   1.000  C
  C217     1.0000 0.04680  0.55480  0.66280  Biso   1.000  C
  C218     1.0000 0.95320  0.05480  0.83720  Biso   1.000  C
  C219     1.0000 0.95320  0.44520  0.33720  Biso   1.000  C
  C220     1.0000 0.04680  0.94520  0.16280  Biso   1.000  C
  C221     1.0000 0.25760  0.56740  0.95950  Biso   1.000  C
  C222     1.0000 0.74240  0.06740  0.54050  Biso   1.000  C
  C223     1.0000 0.74240  0.43260  0.04050  Biso   1.000  C
  C224     1.0000 0.25760  0.93260  0.45950  Biso   1.000  C
  O129     1.0000 0.15200  0.69900  0.57640  Biso   1.000  O
  O130     1.0000 0.84800  0.19900  0.92360  Biso   1.000  O
  O131     1.0000 0.84800  0.30100  0.42360  Biso   1.000  O
  O132     1.0000 0.15200  0.80100  0.07640  Biso   1.000  O
  O133     1.0000 0.16780  0.66261  0.67250  Biso   1.000  O
  O134     1.0000 0.83220  0.16261  0.82750  Biso   1.000  O
  O135     1.0000 0.83220  0.33739  0.32750  Biso   1.000  O
  O136     1.0000 0.16780  0.83739  0.17250  Biso   1.000  O
  O137     1.0000 0.21370  0.65893  0.49894  Biso   1.000  O
  O138     1.0000 0.78630  0.15893  0.00106  Biso   1.000  O
  O139     1.0000 0.78630  0.34107  0.50106  Biso   1.000  O
  O140     1.0000 0.21370  0.84107  0.99894  Biso   1.000  O
  H261     1.0000 0.35020  0.66610  0.79750  Biso   1.000  H
  H262     1.0000 0.64980  0.16610  0.70250  Biso   1.000  H
  H263     1.0000 0.64980  0.33390  0.20250  Biso   1.000  H
  H264     1.0000 0.35020  0.83390  0.29750  Biso   1.000  H
  C225     1.0000 0.40240  0.62435  0.82960  Biso   1.000  C
  C226     1.0000 0.59760  0.12435  0.67040  Biso   1.000  C
  C227     1.0000 0.59760  0.37565  0.17040  Biso   1.000  C
  C228     1.0000 0.40240  0.87565  0.32960  Biso   1.000  C
  C229     1.0000 0.44320  0.67960  0.80300  Biso   1.000  C
  C230     1.0000 0.55680  0.17960  0.69700  Biso   1.000  C
  C231     1.0000 0.55680  0.32040  0.19700  Biso   1.000  C
  C232     1.0000 0.44320  0.82040  0.30300  Biso   1.000  C
  H265     1.0000 0.42270  0.59580  0.57110  Biso   1.000  H
  H266     1.0000 0.57730  0.09580  0.92890  Biso   1.000  H
  H267     1.0000 0.57730  0.40420  0.42890  Biso   1.000  H
  H268     1.0000 0.42270  0.90420  0.07110  Biso   1.000  H
  C233     1.0000 0.36100  0.55105  0.56250  Biso   1.000  C
  C234     1.0000 0.63900  0.05105  0.93750  Biso   1.000  C
  C235     1.0000 0.63900  0.44895  0.43750  Biso   1.000  C
  C236     1.0000 0.36100  0.94895  0.06250  Biso   1.000  C
  C237     1.0000 0.45090  0.57150  0.65820  Biso   1.000  C
  C238     1.0000 0.54910  0.07150  0.84180  Biso   1.000  C
  C239     1.0000 0.54910  0.42850  0.34180  Biso   1.000  C
  C240     1.0000 0.45090  0.92850  0.15820  Biso   1.000  C
  C241     1.0000 0.17130  0.65313  0.77470  Biso   1.000  C
  C242     1.0000 0.82870  0.15313  0.72530  Biso   1.000  C
  C243     1.0000 0.82870  0.34687  0.22530  Biso   1.000  C
  C244     1.0000 0.17130  0.84687  0.27470  Biso   1.000  C
  C245     1.0000 0.30100  0.72892  0.69060  Biso   1.000  C
  C246     1.0000 0.69900  0.22892  0.80940  Biso   1.000  C
  C247     1.0000 0.69900  0.27108  0.30940  Biso   1.000  C
  C248     1.0000 0.30100  0.77108  0.19060  Biso   1.000  C
  H269     1.0000 0.36990  0.70460  0.65520  Biso   1.000  H
  H270     1.0000 0.63010  0.20460  0.84480  Biso   1.000  H
  H271     1.0000 0.63010  0.29540  0.34480  Biso   1.000  H
  H272     1.0000 0.36990  0.79540  0.15520  Biso   1.000  H
  C249     1.0000 0.31470  0.72863  0.58035  Biso   1.000  C
  C250     1.0000 0.68530  0.22863  0.91965  Biso   1.000  C
  C251     1.0000 0.68530  0.27137  0.41965  Biso   1.000  C
  C252     1.0000 0.31470  0.77137  0.08035  Biso   1.000  C
  C253     1.0000 0.01720  0.63869  0.55950  Biso   1.000  C
  C254     1.0000 0.98280  0.13869  0.94050  Biso   1.000  C
  C255     1.0000 0.98280  0.36131  0.44050  Biso   1.000  C
  C256     1.0000 0.01720  0.86131  0.05950  Biso   1.000  C
  H273     1.0000 0.06420  0.65270  0.49700  Biso   1.000  H
  H274     1.0000 0.93580  0.15270  0.00300  Biso   1.000  H
  H275     1.0000 0.93580  0.34730  0.50300  Biso   1.000  H
  H276     1.0000 0.06420  0.84730  0.99700  Biso   1.000  H
  C257     1.0000 0.04160  0.59945  0.47740  Biso   1.000  C
  C258     1.0000 0.95840  0.09945  0.02260  Biso   1.000  C
  C259     1.0000 0.95840  0.40055  0.52260  Biso   1.000  C
  C260     1.0000 0.04160  0.90055  0.97740  Biso   1.000  C
  H277     1.0000 0.11130  0.51750  0.47580  Biso   1.000  H
  H278     1.0000 0.88870  0.01750  0.02420  Biso   1.000  H
  H279     1.0000 0.88870  0.48250  0.52420  Biso   1.000  H
  H280     1.0000 0.11130  0.98250  0.97580  Biso   1.000  H
  C261     1.0000 0.20520  0.50513  0.47750  Biso   1.000  C
  C262     1.0000 0.79480  0.00513  0.02250  Biso   1.000  C
  C263     1.0000 0.79480  0.49487  0.52250  Biso   1.000  C
  C264     1.0000 0.20520  0.99487  0.97750  Biso   1.000  C
  C265     1.0000 0.13490  0.48705  0.55110  Biso   1.000  C
  C266     1.0000 0.86510  0.98705  0.94890  Biso   1.000  C
  C267     1.0000 0.86510  0.51295  0.44890  Biso   1.000  C
  C268     1.0000 0.13490  0.01295  0.05110  Biso   1.000  C
  C269     1.0000 0.06340  0.52797  0.70130  Biso   1.000  C
  C270     1.0000 0.93660  0.02797  0.79870  Biso   1.000  C
  C271     1.0000 0.93660  0.47203  0.29870  Biso   1.000  C
  C272     1.0000 0.06340  0.97203  0.20130  Biso   1.000  C
  H281     1.0000 0.02810  0.57600  0.67980  Biso   1.000  H
  H282     1.0000 0.97190  0.07600  0.82020  Biso   1.000  H
  H283     1.0000 0.97190  0.42400  0.32020  Biso   1.000  H
  H284     1.0000 0.02810  0.92400  0.17980  Biso   1.000  H
  C273     1.0000 0.99570  0.52950  0.61310  Biso   1.000  C
  C274     1.0000 0.00430  0.02950  0.88690  Biso   1.000  C
  C275     1.0000 0.00430  0.47050  0.38690  Biso   1.000  C
  C276     1.0000 0.99570  0.97050  0.11310  Biso   1.000  C
  H285     1.0000 0.22690  0.58760  0.94980  Biso   1.000  H
  H286     1.0000 0.77310  0.08760  0.55020  Biso   1.000  H
  H287     1.0000 0.77310  0.41240  0.05020  Biso   1.000  H
  H288     1.0000 0.22690  0.91240  0.44980  Biso   1.000  H
  C277     1.0000 0.32020  0.58160  0.94700  Biso   1.000  C
  C278     1.0000 0.67980  0.08160  0.55300  Biso   1.000  C
  C279     1.0000 0.67980  0.41840  0.05300  Biso   1.000  C
  C280     1.0000 0.32020  0.91840  0.44700  Biso   1.000  C
  C281     1.0000 0.22920  0.53680  0.92480  Biso   1.000  C
  C282     1.0000 0.77080  0.03680  0.57520  Biso   1.000  C
  C283     1.0000 0.77080  0.46320  0.07520  Biso   1.000  C
  C284     1.0000 0.22920  0.96320  0.42480  Biso   1.000  C
  H289     1.0000 0.44200  0.61360  0.82540  Biso   1.000  H
  H290     1.0000 0.55800  0.11360  0.67460  Biso   1.000  H
  H291     1.0000 0.55800  0.38640  0.17460  Biso   1.000  H
  H292     1.0000 0.44200  0.88640  0.32540  Biso   1.000  H
  H293     1.0000 0.36910  0.60630  0.81980  Biso   1.000  H
  H294     1.0000 0.63090  0.10630  0.68020  Biso   1.000  H
  H295     1.0000 0.63090  0.39370  0.18020  Biso   1.000  H
  H296     1.0000 0.36910  0.89370  0.31980  Biso   1.000  H
  H297     1.0000 0.40630  0.63270  0.87160  Biso   1.000  H
  H298     1.0000 0.59370  0.13270  0.62840  Biso   1.000  H
  H299     1.0000 0.59370  0.36730  0.12840  Biso   1.000  H
  H300     1.0000 0.40630  0.86730  0.37160  Biso   1.000  H
  H301     1.0000 0.43340  0.70100  0.77700  Biso   1.000  H
  H302     1.0000 0.56660  0.20100  0.72300  Biso   1.000  H
  H303     1.0000 0.56660  0.29900  0.22300  Biso   1.000  H
  H304     1.0000 0.43340  0.79900  0.27700  Biso   1.000  H
  H305     1.0000 0.48020  0.66760  0.79460  Biso   1.000  H
  H306     1.0000 0.51980  0.16760  0.70540  Biso   1.000  H
  H307     1.0000 0.51980  0.33240  0.20540  Biso   1.000  H
  H308     1.0000 0.48020  0.83240  0.29460  Biso   1.000  H
  H309     1.0000 0.45160  0.68680  0.84600  Biso   1.000  H
  H310     1.0000 0.54840  0.18680  0.65400  Biso   1.000  H
  H311     1.0000 0.54840  0.31320  0.15400  Biso   1.000  H
  H312     1.0000 0.45160  0.81320  0.34600  Biso   1.000  H
  H313     1.0000 0.33320  0.56050  0.52550  Biso   1.000  H
  H314     1.0000 0.66680  0.06050  0.97450  Biso   1.000  H
  H315     1.0000 0.66680  0.43950  0.47450  Biso   1.000  H
  H316     1.0000 0.33320  0.93950  0.02550  Biso   1.000  H
  H317     1.0000 0.33610  0.53940  0.58820  Biso   1.000  H
  H318     1.0000 0.66390  0.03940  0.91180  Biso   1.000  H
  H319     1.0000 0.66390  0.46060  0.41180  Biso   1.000  H
  H320     1.0000 0.33610  0.96060  0.08820  Biso   1.000  H
  H321     1.0000 0.38960  0.53340  0.55110  Biso   1.000  H
  H322     1.0000 0.61040  0.03340  0.94890  Biso   1.000  H
  H323     1.0000 0.61040  0.46660  0.44890  Biso   1.000  H
  H324     1.0000 0.38960  0.96660  0.05110  Biso   1.000  H
  H325     1.0000 0.43860  0.54840  0.67330  Biso   1.000  H
  H326     1.0000 0.56140  0.04840  0.82670  Biso   1.000  H
  H327     1.0000 0.56140  0.45160  0.32670  Biso   1.000  H
  H328     1.0000 0.43860  0.95160  0.17330  Biso   1.000  H
  H329     1.0000 0.45360  0.58990  0.69000  Biso   1.000  H
  H330     1.0000 0.54640  0.08990  0.81000  Biso   1.000  H
  H331     1.0000 0.54640  0.41010  0.31000  Biso   1.000  H
  H332     1.0000 0.45360  0.91010  0.19000  Biso   1.000  H
  H333     1.0000 0.49160  0.56900  0.64770  Biso   1.000  H
  H334     1.0000 0.50840  0.06900  0.85230  Biso   1.000  H
  H335     1.0000 0.50840  0.43100  0.35230  Biso   1.000  H
  H336     1.0000 0.49160  0.93100  0.14770  Biso   1.000  H
  C285     1.0000 0.10980  0.65479  0.77288  Biso   1.000  C
  C286     1.0000 0.89020  0.15479  0.72712  Biso   1.000  C
  C287     1.0000 0.89020  0.34521  0.22712  Biso   1.000  C
  C288     1.0000 0.10980  0.84521  0.27288  Biso   1.000  C
  C289     1.0000 0.21060  0.65997  0.83060  Biso   1.000  C
  C290     1.0000 0.78940  0.15997  0.66940  Biso   1.000  C
  C291     1.0000 0.78940  0.34003  0.16940  Biso   1.000  C
  C292     1.0000 0.21060  0.84003  0.33060  Biso   1.000  C
  H337     1.0000 0.30550  0.71260  0.72570  Biso   1.000  H
  H338     1.0000 0.69450  0.21260  0.77430  Biso   1.000  H
  H339     1.0000 0.69450  0.28740  0.27430  Biso   1.000  H
  H340     1.0000 0.30550  0.78740  0.22570  Biso   1.000  H
  H341     1.0000 0.25690  0.73520  0.67580  Biso   1.000  H
  H342     1.0000 0.74310  0.23520  0.82420  Biso   1.000  H
  H343     1.0000 0.74310  0.26480  0.32420  Biso   1.000  H
  H344     1.0000 0.25690  0.76480  0.17580  Biso   1.000  H
  H345     1.0000 0.32530  0.75090  0.70300  Biso   1.000  H
  H346     1.0000 0.67470  0.25090  0.79700  Biso   1.000  H
  H347     1.0000 0.67470  0.24910  0.29700  Biso   1.000  H
  H348     1.0000 0.32530  0.74910  0.20300  Biso   1.000  H
  H349     1.0000 0.32350  0.75450  0.58630  Biso   1.000  H
  H350     1.0000 0.67650  0.25450  0.91370  Biso   1.000  H
  H351     1.0000 0.67650  0.24550  0.41370  Biso   1.000  H
  H352     1.0000 0.32350  0.74550  0.08630  Biso   1.000  H
  H353     1.0000 0.27140  0.72530  0.55820  Biso   1.000  H
  H354     1.0000 0.72860  0.22530  0.94180  Biso   1.000  H
  H355     1.0000 0.72860  0.27470  0.44180  Biso   1.000  H
  H356     1.0000 0.27140  0.77470  0.05820  Biso   1.000  H
  H357     1.0000 0.34280  0.71820  0.55670  Biso   1.000  H
  H358     1.0000 0.65720  0.21820  0.94330  Biso   1.000  H
  H359     1.0000 0.65720  0.28180  0.44330  Biso   1.000  H
  H360     1.0000 0.34280  0.78180  0.05670  Biso   1.000  H
  H361     1.0000 0.01930  0.66440  0.56990  Biso   1.000  H
  H362     1.0000 0.98070  0.16440  0.93010  Biso   1.000  H
  H363     1.0000 0.98070  0.33560  0.43010  Biso   1.000  H
  H364     1.0000 0.01930  0.83560  0.06990  Biso   1.000  H
  H365     1.0000 0.02720  0.62430  0.59700  Biso   1.000  H
  H366     1.0000 0.97280  0.12430  0.90300  Biso   1.000  H
  H367     1.0000 0.97280  0.37570  0.40300  Biso   1.000  H
  H368     1.0000 0.02720  0.87570  0.09700  Biso   1.000  H
  H369     1.0000 0.97510  0.63270  0.53650  Biso   1.000  H
  H370     1.0000 0.02490  0.13270  0.96350  Biso   1.000  H
  H371     1.0000 0.02490  0.36730  0.46350  Biso   1.000  H
  H372     1.0000 0.97510  0.86730  0.03650  Biso   1.000  H
  H373     1.0000 0.01320  0.58360  0.49310  Biso   1.000  H
  H374     1.0000 0.98680  0.08360  0.00690  Biso   1.000  H
  H375     1.0000 0.98680  0.41640  0.50690  Biso   1.000  H
  H376     1.0000 0.01320  0.91640  0.99310  Biso   1.000  H
  H377     1.0000 0.07840  0.58570  0.47280  Biso   1.000  H
  H378     1.0000 0.92160  0.08570  0.02720  Biso   1.000  H
  H379     1.0000 0.92160  0.41430  0.52720  Biso   1.000  H
  H380     1.0000 0.07840  0.91430  0.97280  Biso   1.000  H
  H381     1.0000 0.02020  0.60910  0.43760  Biso   1.000  H
  H382     1.0000 0.97980  0.10910  0.06240  Biso   1.000  H
  H383     1.0000 0.97980  0.39090  0.56240  Biso   1.000  H
  H384     1.0000 0.02020  0.89090  0.93760  Biso   1.000  H
  H385     1.0000 0.24450  0.51270  0.50450  Biso   1.000  H
  H386     1.0000 0.75550  0.01270  0.99550  Biso   1.000  H
  H387     1.0000 0.75550  0.48730  0.49550  Biso   1.000  H
  H388     1.0000 0.24450  0.98730  0.00450  Biso   1.000  H
  H389     1.0000 0.19910  0.51830  0.43880  Biso   1.000  H
  H390     1.0000 0.80090  0.01830  0.06120  Biso   1.000  H
  H391     1.0000 0.80090  0.48170  0.56120  Biso   1.000  H
  H392     1.0000 0.19910  0.98170  0.93880  Biso   1.000  H
  H393     1.0000 0.20660  0.47920  0.46960  Biso   1.000  H
  H394     1.0000 0.79340  0.97920  0.03040  Biso   1.000  H
  H395     1.0000 0.79340  0.52080  0.53040  Biso   1.000  H
  H396     1.0000 0.20660  0.02080  0.96960  Biso   1.000  H
  H397     1.0000 0.09170  0.49040  0.55480  Biso   1.000  H
  H398     1.0000 0.90830  0.99040  0.94520  Biso   1.000  H
  H399     1.0000 0.90830  0.50960  0.44520  Biso   1.000  H
  H400     1.0000 0.09170  0.00960  0.05480  Biso   1.000  H
  H401     1.0000 0.16320  0.49030  0.59120  Biso   1.000  H
  H402     1.0000 0.83680  0.99030  0.90880  Biso   1.000  H
  H403     1.0000 0.83680  0.50970  0.40880  Biso   1.000  H
  H404     1.0000 0.16320  0.00970  0.09120  Biso   1.000  H
  H405     1.0000 0.14000  0.46270  0.53600  Biso   1.000  H
  H406     1.0000 0.86000  0.96270  0.96400  Biso   1.000  H
  H407     1.0000 0.86000  0.53730  0.46400  Biso   1.000  H
  H408     1.0000 0.14000  0.03730  0.03600  Biso   1.000  H
  H409     1.0000 0.01760  0.50890  0.60010  Biso   1.000  H
  H410     1.0000 0.98240  0.00890  0.89990  Biso   1.000  H
  H411     1.0000 0.98240  0.49110  0.39990  Biso   1.000  H
  H412     1.0000 0.01760  0.99110  0.10010  Biso   1.000  H
  H413     1.0000 0.97680  0.54410  0.57740  Biso   1.000  H
  H414     1.0000 0.02320  0.04410  0.92260  Biso   1.000  H
  H415     1.0000 0.02320  0.45590  0.42260  Biso   1.000  H
  H416     1.0000 0.97680  0.95590  0.07740  Biso   1.000  H
  H417     1.0000 0.96300  0.52070  0.63270  Biso   1.000  H
  H418     1.0000 0.03700  0.02070  0.86730  Biso   1.000  H
  H419     1.0000 0.03700  0.47930  0.36730  Biso   1.000  H
  H420     1.0000 0.96300  0.97930  0.13270  Biso   1.000  H
  H421     1.0000 0.31160  0.60140  0.91750  Biso   1.000  H
  H422     1.0000 0.68840  0.10140  0.58250  Biso   1.000  H
  H423     1.0000 0.68840  0.39860  0.08250  Biso   1.000  H
  H424     1.0000 0.31160  0.89860  0.41750  Biso   1.000  H
  H425     1.0000 0.34140  0.56210  0.93040  Biso   1.000  H
  H426     1.0000 0.65860  0.06210  0.56960  Biso   1.000  H
  H427     1.0000 0.65860  0.43790  0.06960  Biso   1.000  H
  H428     1.0000 0.34140  0.93790  0.43040  Biso   1.000  H
  H429     1.0000 0.34680  0.59030  0.98520  Biso   1.000  H
  H430     1.0000 0.65320  0.09030  0.51480  Biso   1.000  H
  H431     1.0000 0.65320  0.40970  0.01480  Biso   1.000  H
  H432     1.0000 0.34680  0.90970  0.48520  Biso   1.000  H
  H433     1.0000 0.25750  0.51610  0.93300  Biso   1.000  H
  H434     1.0000 0.74250  0.01610  0.56700  Biso   1.000  H
  H435     1.0000 0.74250  0.48390  0.06700  Biso   1.000  H
  H436     1.0000 0.25750  0.98390  0.43300  Biso   1.000  H
  H437     1.0000 0.22060  0.54260  0.88110  Biso   1.000  H
  H438     1.0000 0.77940  0.04260  0.61890  Biso   1.000  H
  H439     1.0000 0.77940  0.45740  0.11890  Biso   1.000  H
  H440     1.0000 0.22060  0.95740  0.38110  Biso   1.000  H
  H441     1.0000 0.19000  0.53080  0.93650  Biso   1.000  H
  H442     1.0000 0.81000  0.03080  0.56350  Biso   1.000  H
  H443     1.0000 0.81000  0.46920  0.06350  Biso   1.000  H
  H444     1.0000 0.19000  0.96920  0.43650  Biso   1.000  H
  H445     1.0000 0.25290  0.65250  0.83830  Biso   1.000  H
  H446     1.0000 0.74710  0.15250  0.66170  Biso   1.000  H
  H447     1.0000 0.74710  0.34750  0.16170  Biso   1.000  H
  H448     1.0000 0.25290  0.84750  0.33830  Biso   1.000  H
  N45      1.0000 0.18720  0.67855  0.87750  Biso   1.000  N
  N46      1.0000 0.81280  0.17855  0.62250  Biso   1.000  N
  N47      1.0000 0.81280  0.32145  0.12250  Biso   1.000  N
  N48      1.0000 0.18720  0.82145  0.37750  Biso   1.000  N
  C293     1.0000 0.12110  0.67369  0.87190  Biso   1.000  C
  C294     1.0000 0.87890  0.17369  0.62810  Biso   1.000  C
  C295     1.0000 0.87890  0.32631  0.12810  Biso   1.000  C
  C296     1.0000 0.12110  0.82631  0.37190  Biso   1.000  C
  H449     1.0000 0.10390  0.67630  0.90680  Biso   1.000  H
  H450     1.0000 0.89610  0.17630  0.59320  Biso   1.000  H
  H451     1.0000 0.89610  0.32370  0.09320  Biso   1.000  H
  H452     1.0000 0.10390  0.82370  0.40680  Biso   1.000  H
  C297     1.0000 0.52660  0.31680  0.36430  Biso   1.000  C
  C298     1.0000 0.47340  0.81680  0.13570  Biso   1.000  C
  C299     1.0000 0.47340  0.68320  0.63570  Biso   1.000  C
  C300     1.0000 0.52660  0.18320  0.86430  Biso   1.000  C
  H453     1.0000 0.55240  0.31790  0.40590  Biso   1.000  H
  H454     1.0000 0.44760  0.81790  0.09410  Biso   1.000  H
  H455     1.0000 0.44760  0.68210  0.59410  Biso   1.000  H
  H456     1.0000 0.55240  0.18210  0.90590  Biso   1.000  H
  H457     1.0000 0.54870  0.32830  0.33610  Biso   1.000  H
  H458     1.0000 0.45130  0.82830  0.16390  Biso   1.000  H
  H459     1.0000 0.45130  0.67170  0.66390  Biso   1.000  H
  H460     1.0000 0.54870  0.17170  0.83610  Biso   1.000  H
  H461     1.0000 0.51800  0.29150  0.35250  Biso   1.000  H
  H462     1.0000 0.48200  0.79150  0.14750  Biso   1.000  H
  H463     1.0000 0.48200  0.70850  0.64750  Biso   1.000  H
  H464     1.0000 0.51800  0.20850  0.85250  Biso   1.000  H
  O141     1.0000 0.68133  0.51847  0.72674  Biso   1.000  O
  O142     1.0000 0.31867  0.01847  0.77326  Biso   1.000  O
  O143     1.0000 0.31867  0.48153  0.27326  Biso   1.000  O
  O144     1.0000 0.68133  0.98153  0.22674  Biso   1.000  O
  C301     1.0000 0.70820  0.55143  0.71220  Biso   1.000  C
  C302     1.0000 0.29180  0.05143  0.78780  Biso   1.000  C
  C303     1.0000 0.29180  0.44857  0.28780  Biso   1.000  C
  C304     1.0000 0.70820  0.94857  0.21220  Biso   1.000  C
  C305     1.0000 0.76920  0.55112  0.69960  Biso   1.000  C
  C306     1.0000 0.23080  0.05112  0.80040  Biso   1.000  C
  C307     1.0000 0.23080  0.44888  0.30040  Biso   1.000  C
  C308     1.0000 0.76920  0.94888  0.19960  Biso   1.000  C
  H465     1.0000 0.71210  0.56690  0.74940  Biso   1.000  H
  H466     1.0000 0.28790  0.06690  0.75060  Biso   1.000  H
  H467     1.0000 0.28790  0.43310  0.25060  Biso   1.000  H
  H468     1.0000 0.71210  0.93310  0.24940  Biso   1.000  H
  C309     1.0000 0.66020  0.57400  0.65650  Biso   1.000  C
  C310     1.0000 0.33980  0.07400  0.84350  Biso   1.000  C
  C311     1.0000 0.33980  0.42600  0.34350  Biso   1.000  C
  C312     1.0000 0.66020  0.92600  0.15650  Biso   1.000  C
  H469     1.0000 0.76730  0.53990  0.65970  Biso   1.000  H
  H470     1.0000 0.23270  0.03990  0.84030  Biso   1.000  H
  H471     1.0000 0.23270  0.46010  0.34030  Biso   1.000  H
  H472     1.0000 0.76730  0.96010  0.15970  Biso   1.000  H
  H473     1.0000 0.78460  0.57590  0.69920  Biso   1.000  H
  H474     1.0000 0.21540  0.07590  0.80080  Biso   1.000  H
  H475     1.0000 0.21540  0.42410  0.30080  Biso   1.000  H
  H476     1.0000 0.78460  0.92410  0.19920  Biso   1.000  H
  H477     1.0000 0.79770  0.53730  0.73120  Biso   1.000  H
  H478     1.0000 0.20230  0.03730  0.76880  Biso   1.000  H
  H479     1.0000 0.20230  0.46270  0.26880  Biso   1.000  H
  H480     1.0000 0.79770  0.96270  0.23120  Biso   1.000  H
  H481     1.0000 0.61950  0.57700  0.66690  Biso   1.000  H
  H482     1.0000 0.38050  0.07700  0.83310  Biso   1.000  H
  H483     1.0000 0.38050  0.42300  0.33310  Biso   1.000  H
  H484     1.0000 0.61950  0.92300  0.16690  Biso   1.000  H
  H485     1.0000 0.67790  0.59780  0.65170  Biso   1.000  H
  H486     1.0000 0.32210  0.09780  0.84830  Biso   1.000  H
  H487     1.0000 0.32210  0.40220  0.34830  Biso   1.000  H
  H488     1.0000 0.67790  0.90220  0.15170  Biso   1.000  H
  H489     1.0000 0.65500  0.56050  0.61820  Biso   1.000  H
  H490     1.0000 0.34500  0.06050  0.88180  Biso   1.000  H
  H491     1.0000 0.34500  0.43950  0.38180  Biso   1.000  H
  H492     1.0000 0.65500  0.93950  0.11820  Biso   1.000  H
  O145     1.0000 0.64758  0.44615  0.73938  Biso   1.000  O
  O146     1.0000 0.35242  0.94615  0.76062  Biso   1.000  O
  O147     1.0000 0.35242  0.55385  0.26062  Biso   1.000  O
  O148     1.0000 0.64758  0.05385  0.23938  Biso   1.000  O
  O149     1.0000 0.85850  0.46420  0.95520  Biso   1.000  O
  O150     1.0000 0.14150  0.96420  0.54480  Biso   1.000  O
  O151     1.0000 0.14150  0.53580  0.04480  Biso   1.000  O
  O152     1.0000 0.85850  0.03580  0.45520  Biso   1.000  O
  O153     1.0000 0.81020  0.38800  0.93050  Biso   1.000  O
  O154     1.0000 0.18980  0.88800  0.56950  Biso   1.000  O
  O155     1.0000 0.18980  0.61200  0.06950  Biso   1.000  O
  O156     1.0000 0.81020  0.11200  0.43050  Biso   1.000  O
  O157     1.0000 0.15420  0.61445  0.68750  Biso   1.000  O
  O158     1.0000 0.84580  0.11445  0.81250  Biso   1.000  O
  O159     1.0000 0.84580  0.38555  0.31250  Biso   1.000  O
  O160     1.0000 0.15420  0.88555  0.18750  Biso   1.000  O
  C313     1.0000 0.32730  0.59342  0.18350  Biso   1.000  C
  C314     1.0000 0.67270  0.09342  0.31650  Biso   1.000  C
  C315     1.0000 0.67270  0.40658  0.81650  Biso   1.000  C
  C316     1.0000 0.32730  0.90658  0.68350  Biso   1.000  C
