data_image0
_cell_length_a       35.0208
_cell_length_b       23.201
_cell_length_c       33.745
_cell_angle_alpha    90
_cell_angle_beta     111.975
_cell_angle_gamma    90

_symmetry_space_group_name_H-M    "P 1"
_symmetry_int_tables_number       1

loop_
  _symmetry_equiv_pos_as_xyz
  'x, y, z'

loop_
  _atom_site_label
  _atom_site_occupancy
  _atom_site_fract_x
  _atom_site_fract_y
  _atom_site_fract_z
  _atom_site_thermal_displace_type
  _atom_site_B_iso_or_equiv
  _atom_site_type_symbol
  I1       1.0000 0.56088  0.73935  0.35009  Biso   1.000  I
  I2       1.0000 0.43912  0.73935  0.14991  Biso   1.000  I
  I3       1.0000 0.06088  0.23935  0.35009  Biso   1.000  I
  I4       1.0000 0.93912  0.23935  0.14991  Biso   1.000  I
  I5       1.0000 0.43912  0.26065  0.64991  Biso   1.000  I
  I6       1.0000 0.56088  0.26065  0.85009  Biso   1.000  I
  I7       1.0000 0.93912  0.76065  0.64991  Biso   1.000  I
  I8       1.0000 0.06088  0.76065  0.85009  Biso   1.000  I
  Cu1      1.0000 0.61741  0.68317  0.32947  Biso   1.000  Cu
  Cu2      1.0000 0.38259  0.68317  0.17053  Biso   1.000  Cu
  Cu3      1.0000 0.11741  0.18317  0.32947  Biso   1.000  Cu
  Cu4      1.0000 0.88259  0.18317  0.17053  Biso   1.000  Cu
  Cu5      1.0000 0.38259  0.31683  0.67053  Biso   1.000  Cu
  Cu6      1.0000 0.61741  0.31683  0.82947  Biso   1.000  Cu
  Cu7      1.0000 0.88259  0.81683  0.67053  Biso   1.000  Cu
  Cu8      1.0000 0.11741  0.81683  0.82947  Biso   1.000  Cu
  Cu9      1.0000 0.57900  0.62477  0.36876  Biso   1.000  Cu
  Cu10     1.0000 0.42100  0.62477  0.13124  Biso   1.000  Cu
  Cu11     1.0000 0.07900  0.12477  0.36876  Biso   1.000  Cu
  Cu12     1.0000 0.92100  0.12477  0.13124  Biso   1.000  Cu
  Cu13     1.0000 0.42100  0.37523  0.63124  Biso   1.000  Cu
  Cu14     1.0000 0.57900  0.37523  0.86876  Biso   1.000  Cu
  Cu15     1.0000 0.92100  0.87523  0.63124  Biso   1.000  Cu
  Cu16     1.0000 0.07900  0.87523  0.86876  Biso   1.000  Cu
  Cu17     1.0000 0.63246  0.70662  0.40836  Biso   1.000  Cu
  Cu18     1.0000 0.36754  0.70662  0.09164  Biso   1.000  Cu
  Cu19     1.0000 0.13246  0.20662  0.40836  Biso   1.000  Cu
  Cu20     1.0000 0.86754  0.20662  0.09164  Biso   1.000  Cu
  Cu21     1.0000 0.36754  0.29338  0.59164  Biso   1.000  Cu
  Cu22     1.0000 0.63246  0.29338  0.90836  Biso   1.000  Cu
  Cu23     1.0000 0.86754  0.79338  0.59164  Biso   1.000  Cu
  Cu24     1.0000 0.13246  0.79338  0.90836  Biso   1.000  Cu
  I9       1.0000 0.69446  0.70516  0.37929  Biso   1.000  I
  I10      1.0000 0.30554  0.70516  0.12071  Biso   1.000  I
  I11      1.0000 0.19446  0.20516  0.37929  Biso   1.000  I
  I12      1.0000 0.80554  0.20516  0.12071  Biso   1.000  I
  I13      1.0000 0.30554  0.29484  0.62071  Biso   1.000  I
  I14      1.0000 0.69446  0.29484  0.87929  Biso   1.000  I
  I15      1.0000 0.80554  0.79484  0.62071  Biso   1.000  I
  I16      1.0000 0.19446  0.79484  0.87929  Biso   1.000  I
  I17      1.0000 0.60170  0.56564  0.31354  Biso   1.000  I
  I18      1.0000 0.39830  0.56564  0.18646  Biso   1.000  I
  I19      1.0000 0.10170  0.06564  0.31354  Biso   1.000  I
  I20      1.0000 0.89830  0.06564  0.18646  Biso   1.000  I
  I21      1.0000 0.39830  0.43436  0.68646  Biso   1.000  I
  I22      1.0000 0.60170  0.43436  0.81354  Biso   1.000  I
  I23      1.0000 0.89830  0.93436  0.68646  Biso   1.000  I
  I24      1.0000 0.10170  0.93436  0.81354  Biso   1.000  I
  Cu25     1.0000 0.65658  0.60672  0.38632  Biso   1.000  Cu
  Cu26     1.0000 0.34342  0.60672  0.11368  Biso   1.000  Cu
  Cu27     1.0000 0.15658  0.10672  0.38632  Biso   1.000  Cu
  Cu28     1.0000 0.84342  0.10672  0.11368  Biso   1.000  Cu
  Cu29     1.0000 0.34342  0.39328  0.61368  Biso   1.000  Cu
  Cu30     1.0000 0.65658  0.39328  0.88632  Biso   1.000  Cu
  Cu31     1.0000 0.84342  0.89328  0.61368  Biso   1.000  Cu
  Cu32     1.0000 0.15658  0.89328  0.88632  Biso   1.000  Cu
  N1       1.0000 0.60653  0.70729  0.26961  Biso   1.000  N
  N2       1.0000 0.39347  0.70729  0.23039  Biso   1.000  N
  N3       1.0000 0.10653  0.20729  0.26961  Biso   1.000  N
  N4       1.0000 0.89347  0.20729  0.23039  Biso   1.000  N
  N5       1.0000 0.39347  0.29271  0.73039  Biso   1.000  N
  N6       1.0000 0.60653  0.29271  0.76961  Biso   1.000  N
  N7       1.0000 0.89347  0.79271  0.73039  Biso   1.000  N
  N8       1.0000 0.10653  0.79271  0.76961  Biso   1.000  N
  I25      1.0000 0.62671  0.60994  0.45034  Biso   1.000  I
  I26      1.0000 0.37329  0.60994  0.04966  Biso   1.000  I
  I27      1.0000 0.12671  0.10994  0.45034  Biso   1.000  I
  I28      1.0000 0.87329  0.10994  0.04966  Biso   1.000  I
  I29      1.0000 0.37329  0.39006  0.54966  Biso   1.000  I
  I30      1.0000 0.62671  0.39006  0.95034  Biso   1.000  I
  I31      1.0000 0.87329  0.89006  0.54966  Biso   1.000  I
  I32      1.0000 0.12671  0.89006  0.95034  Biso   1.000  I
  N9       1.0000 0.52204  0.59842  0.36168  Biso   1.000  N
  N10      1.0000 0.47796  0.59842  0.13832  Biso   1.000  N
  N11      1.0000 0.02204  0.09842  0.36168  Biso   1.000  N
  N12      1.0000 0.97796  0.09842  0.13832  Biso   1.000  N
  N13      1.0000 0.47796  0.40158  0.63832  Biso   1.000  N
  N14      1.0000 0.52204  0.40158  0.86168  Biso   1.000  N
  N15      1.0000 0.97796  0.90158  0.63832  Biso   1.000  N
  N16      1.0000 0.02204  0.90158  0.86168  Biso   1.000  N
  N17      1.0000 0.64756  0.76325  0.45726  Biso   1.000  N
  N18      1.0000 0.35244  0.76325  0.04274  Biso   1.000  N
  N19      1.0000 0.14756  0.26325  0.45726  Biso   1.000  N
  N20      1.0000 0.85244  0.26325  0.04274  Biso   1.000  N
  N21      1.0000 0.35244  0.23675  0.54274  Biso   1.000  N
  N22      1.0000 0.64756  0.23675  0.95726  Biso   1.000  N
  N23      1.0000 0.85244  0.73675  0.54274  Biso   1.000  N
  N24      1.0000 0.14756  0.73675  0.95726  Biso   1.000  N
  N25      1.0000 0.70130  0.54767  0.41129  Biso   1.000  N
  N26      1.0000 0.29870  0.54767  0.08871  Biso   1.000  N
  N27      1.0000 0.20130  0.04767  0.41129  Biso   1.000  N
  N28      1.0000 0.79870  0.04767  0.08871  Biso   1.000  N
  N29      1.0000 0.29870  0.45233  0.58871  Biso   1.000  N
  N30      1.0000 0.70130  0.45233  0.91129  Biso   1.000  N
  N31      1.0000 0.79870  0.95233  0.58871  Biso   1.000  N
  N32      1.0000 0.20130  0.95233  0.91129  Biso   1.000  N
  C1       1.0000 0.68199  0.75595  0.49150  Biso   1.000  C
  C2       1.0000 0.31801  0.75595  0.00850  Biso   1.000  C
  C3       1.0000 0.18199  0.25595  0.49150  Biso   1.000  C
  C4       1.0000 0.81801  0.25595  0.00850  Biso   1.000  C
  C5       1.0000 0.31801  0.24405  0.50850  Biso   1.000  C
  C6       1.0000 0.68199  0.24405  0.99150  Biso   1.000  C
  C7       1.0000 0.81801  0.74405  0.50850  Biso   1.000  C
  C8       1.0000 0.18199  0.74405  0.99150  Biso   1.000  C
  C9       1.0000 0.62196  0.80408  0.45969  Biso   1.000  C
  C10      1.0000 0.37804  0.80408  0.04031  Biso   1.000  C
  C11      1.0000 0.12196  0.30408  0.45969  Biso   1.000  C
  C12      1.0000 0.87804  0.30408  0.04031  Biso   1.000  C
  C13      1.0000 0.37804  0.19592  0.54031  Biso   1.000  C
  C14      1.0000 0.62196  0.19592  0.95969  Biso   1.000  C
  C15      1.0000 0.87804  0.69592  0.54031  Biso   1.000  C
  C16      1.0000 0.12196  0.69592  0.95969  Biso   1.000  C
  C17      1.0000 0.69542  0.49210  0.40492  Biso   1.000  C
  C18      1.0000 0.30458  0.49210  0.09508  Biso   1.000  C
  C19      1.0000 0.19542  0.99210  0.40492  Biso   1.000  C
  C20      1.0000 0.80458  0.99210  0.09508  Biso   1.000  C
  C21      1.0000 0.30458  0.50790  0.59508  Biso   1.000  C
  C22      1.0000 0.69542  0.50790  0.90492  Biso   1.000  C
  C23      1.0000 0.80458  0.00790  0.59508  Biso   1.000  C
  C24      1.0000 0.19542  0.00790  0.90492  Biso   1.000  C
  C25      1.0000 0.73764  0.56334  0.43894  Biso   1.000  C
  C26      1.0000 0.26236  0.56334  0.06106  Biso   1.000  C
  C27      1.0000 0.23764  0.06334  0.43894  Biso   1.000  C
  C28      1.0000 0.76236  0.06334  0.06106  Biso   1.000  C
  C29      1.0000 0.26236  0.43666  0.56106  Biso   1.000  C
  C30      1.0000 0.73764  0.43666  0.93894  Biso   1.000  C
  C31      1.0000 0.76236  0.93666  0.56106  Biso   1.000  C
  C32      1.0000 0.23764  0.93666  0.93894  Biso   1.000  C
  H1       1.0000 0.70110  0.72920  0.48980  Biso   1.000  H
  H2       1.0000 0.29890  0.72920  0.01020  Biso   1.000  H
  H3       1.0000 0.20110  0.22920  0.48980  Biso   1.000  H
  H4       1.0000 0.79890  0.22920  0.01020  Biso   1.000  H
  H5       1.0000 0.29890  0.27080  0.51020  Biso   1.000  H
  H6       1.0000 0.70110  0.27080  0.98980  Biso   1.000  H
  H7       1.0000 0.79890  0.77080  0.51020  Biso   1.000  H
  H8       1.0000 0.20110  0.77080  0.98980  Biso   1.000  H
  C33      1.0000 0.69080  0.78530  0.52865  Biso   1.000  C
  C34      1.0000 0.30920  0.78530  0.97135  Biso   1.000  C
  C35      1.0000 0.19080  0.28530  0.52865  Biso   1.000  C
  C36      1.0000 0.80920  0.28530  0.97135  Biso   1.000  C
  C37      1.0000 0.30920  0.21470  0.47135  Biso   1.000  C
  C38      1.0000 0.69080  0.21470  0.02865  Biso   1.000  C
  C39      1.0000 0.80920  0.71470  0.47135  Biso   1.000  C
  C40      1.0000 0.19080  0.71470  0.02865  Biso   1.000  C
  H9       1.0000 0.59840  0.81120  0.43570  Biso   1.000  H
  H10      1.0000 0.40160  0.81120  0.06430  Biso   1.000  H
  H11      1.0000 0.09840  0.31120  0.43570  Biso   1.000  H
  H12      1.0000 0.90160  0.31120  0.06430  Biso   1.000  H
  H13      1.0000 0.40160  0.18880  0.56430  Biso   1.000  H
  H14      1.0000 0.59840  0.18880  0.93570  Biso   1.000  H
  H15      1.0000 0.90160  0.68880  0.56430  Biso   1.000  H
  H16      1.0000 0.09840  0.68880  0.93570  Biso   1.000  H
  C41      1.0000 0.62847  0.83663  0.49602  Biso   1.000  C
  C42      1.0000 0.37153  0.83663  0.00398  Biso   1.000  C
  C43      1.0000 0.12847  0.33663  0.49602  Biso   1.000  C
  C44      1.0000 0.87153  0.33663  0.00398  Biso   1.000  C
  C45      1.0000 0.37153  0.16337  0.50398  Biso   1.000  C
  C46      1.0000 0.62847  0.16337  0.99602  Biso   1.000  C
  C47      1.0000 0.87153  0.66337  0.50398  Biso   1.000  C
  C48      1.0000 0.12847  0.66337  0.99602  Biso   1.000  C
  C49      1.0000 0.72482  0.45029  0.42466  Biso   1.000  C
  C50      1.0000 0.27518  0.45029  0.07534  Biso   1.000  C
  C51      1.0000 0.22482  0.95029  0.42466  Biso   1.000  C
  C52      1.0000 0.77518  0.95029  0.07534  Biso   1.000  C
  C53      1.0000 0.27518  0.54971  0.57534  Biso   1.000  C
  C54      1.0000 0.72482  0.54971  0.92466  Biso   1.000  C
  C55      1.0000 0.77518  0.04971  0.57534  Biso   1.000  C
  C56      1.0000 0.22482  0.04971  0.92466  Biso   1.000  C
  H17      1.0000 0.66980  0.47980  0.38590  Biso   1.000  H
  H18      1.0000 0.33020  0.47980  0.11410  Biso   1.000  H
  H19      1.0000 0.16980  0.97980  0.38590  Biso   1.000  H
  H20      1.0000 0.83020  0.97980  0.11410  Biso   1.000  H
  H21      1.0000 0.33020  0.52020  0.61410  Biso   1.000  H
  H22      1.0000 0.66980  0.52020  0.88590  Biso   1.000  H
  H23      1.0000 0.83020  0.02020  0.61410  Biso   1.000  H
  H24      1.0000 0.16980  0.02020  0.88590  Biso   1.000  H
  H25      1.0000 0.74310  0.60240  0.44440  Biso   1.000  H
  H26      1.0000 0.25690  0.60240  0.05560  Biso   1.000  H
  H27      1.0000 0.24310  0.10240  0.44440  Biso   1.000  H
  H28      1.0000 0.75690  0.10240  0.05560  Biso   1.000  H
  H29      1.0000 0.25690  0.39760  0.55560  Biso   1.000  H
  H30      1.0000 0.74310  0.39760  0.94440  Biso   1.000  H
  H31      1.0000 0.75690  0.89760  0.55560  Biso   1.000  H
  H32      1.0000 0.24310  0.89760  0.94440  Biso   1.000  H
  C57      1.0000 0.76844  0.52341  0.46042  Biso   1.000  C
  C58      1.0000 0.23156  0.52341  0.03958  Biso   1.000  C
  C59      1.0000 0.26844  0.02341  0.46042  Biso   1.000  C
  C60      1.0000 0.73156  0.02341  0.03958  Biso   1.000  C
  C61      1.0000 0.23156  0.47659  0.53958  Biso   1.000  C
  C62      1.0000 0.76844  0.47659  0.96042  Biso   1.000  C
  C63      1.0000 0.73156  0.97659  0.53958  Biso   1.000  C
  C64      1.0000 0.26844  0.97659  0.96042  Biso   1.000  C
  C65      1.0000 0.66355  0.82698  0.53199  Biso   1.000  C
  C66      1.0000 0.33645  0.82698  0.96801  Biso   1.000  C
  C67      1.0000 0.16355  0.32698  0.53199  Biso   1.000  C
  C68      1.0000 0.83645  0.32698  0.96801  Biso   1.000  C
  C69      1.0000 0.33645  0.17302  0.46801  Biso   1.000  C
  C70      1.0000 0.66355  0.17302  0.03199  Biso   1.000  C
  C71      1.0000 0.83645  0.67302  0.46801  Biso   1.000  C
  C72      1.0000 0.16355  0.67302  0.03199  Biso   1.000  C
  H33      1.0000 0.71500  0.77760  0.55180  Biso   1.000  H
  H34      1.0000 0.28500  0.77760  0.94820  Biso   1.000  H
  H35      1.0000 0.21500  0.27760  0.55180  Biso   1.000  H
  H36      1.0000 0.78500  0.27760  0.94820  Biso   1.000  H
  H37      1.0000 0.28500  0.22240  0.44820  Biso   1.000  H
  H38      1.0000 0.71500  0.22240  0.05180  Biso   1.000  H
  H39      1.0000 0.78500  0.72240  0.44820  Biso   1.000  H
  H40      1.0000 0.21500  0.72240  0.05180  Biso   1.000  H
  H41      1.0000 0.60950  0.86460  0.49630  Biso   1.000  H
  H42      1.0000 0.39050  0.86460  0.00370  Biso   1.000  H
  H43      1.0000 0.10950  0.36460  0.49630  Biso   1.000  H
  H44      1.0000 0.89050  0.36460  0.00370  Biso   1.000  H
  H45      1.0000 0.39050  0.13540  0.50370  Biso   1.000  H
  H46      1.0000 0.60950  0.13540  0.99630  Biso   1.000  H
  H47      1.0000 0.89050  0.63540  0.50370  Biso   1.000  H
  H48      1.0000 0.10950  0.63540  0.99630  Biso   1.000  H
  H49      1.0000 0.71920  0.41160  0.41760  Biso   1.000  H
  H50      1.0000 0.28080  0.41160  0.08240  Biso   1.000  H
  H51      1.0000 0.21920  0.91160  0.41760  Biso   1.000  H
  H52      1.0000 0.78080  0.91160  0.08240  Biso   1.000  H
  H53      1.0000 0.28080  0.58840  0.58240  Biso   1.000  H
  H54      1.0000 0.71920  0.58840  0.91760  Biso   1.000  H
  H55      1.0000 0.78080  0.08840  0.58240  Biso   1.000  H
  H56      1.0000 0.21920  0.08840  0.91760  Biso   1.000  H
  C73      1.0000 0.76165  0.46606  0.45423  Biso   1.000  C
  C74      1.0000 0.23835  0.46606  0.04577  Biso   1.000  C
  C75      1.0000 0.26165  0.96606  0.45423  Biso   1.000  C
  C76      1.0000 0.73835  0.96606  0.04577  Biso   1.000  C
  C77      1.0000 0.23835  0.53394  0.54577  Biso   1.000  C
  C78      1.0000 0.76165  0.53394  0.95423  Biso   1.000  C
  C79      1.0000 0.73835  0.03394  0.54577  Biso   1.000  C
  C80      1.0000 0.26165  0.03394  0.95423  Biso   1.000  C
  H57      1.0000 0.79390  0.53650  0.47920  Biso   1.000  H
  H58      1.0000 0.20610  0.53650  0.02080  Biso   1.000  H
  H59      1.0000 0.29390  0.03650  0.47920  Biso   1.000  H
  H60      1.0000 0.70610  0.03650  0.02080  Biso   1.000  H
  H61      1.0000 0.20610  0.46350  0.52080  Biso   1.000  H
  H62      1.0000 0.79390  0.46350  0.97920  Biso   1.000  H
  H63      1.0000 0.70610  0.96350  0.52080  Biso   1.000  H
  H64      1.0000 0.29390  0.96350  0.97920  Biso   1.000  H
  C81      1.0000 0.67038  0.85842  0.57243  Biso   1.000  C
  C82      1.0000 0.32962  0.85842  0.92757  Biso   1.000  C
  C83      1.0000 0.17038  0.35842  0.57243  Biso   1.000  C
  C84      1.0000 0.82962  0.35842  0.92757  Biso   1.000  C
  C85      1.0000 0.32962  0.14158  0.42757  Biso   1.000  C
  C86      1.0000 0.67038  0.14158  0.07243  Biso   1.000  C
  C87      1.0000 0.82962  0.64158  0.42757  Biso   1.000  C
  C88      1.0000 0.17038  0.64158  0.07243  Biso   1.000  C
  C89      1.0000 0.79450  0.42375  0.47747  Biso   1.000  C
  C90      1.0000 0.20550  0.42375  0.02253  Biso   1.000  C
  C91      1.0000 0.29450  0.92375  0.47747  Biso   1.000  C
  C92      1.0000 0.70550  0.92375  0.02253  Biso   1.000  C
  C93      1.0000 0.20550  0.57625  0.52253  Biso   1.000  C
  C94      1.0000 0.79450  0.57625  0.97747  Biso   1.000  C
  C95      1.0000 0.70550  0.07625  0.52253  Biso   1.000  C
  C96      1.0000 0.29450  0.07625  0.97747  Biso   1.000  C
  C97      1.0000 0.69042  0.83238  0.61186  Biso   1.000  C
  C98      1.0000 0.30958  0.83238  0.88814  Biso   1.000  C
  C99      1.0000 0.19042  0.33238  0.61186  Biso   1.000  C
  C100     1.0000 0.80958  0.33238  0.88814  Biso   1.000  C
  C101     1.0000 0.30958  0.16762  0.38814  Biso   1.000  C
  C102     1.0000 0.69042  0.16762  0.11186  Biso   1.000  C
  C103     1.0000 0.80958  0.66762  0.38814  Biso   1.000  C
  C104     1.0000 0.19042  0.66762  0.11186  Biso   1.000  C
  C105     1.0000 0.65527  0.91299  0.57150  Biso   1.000  C
  C106     1.0000 0.34473  0.91299  0.92850  Biso   1.000  C
  C107     1.0000 0.15527  0.41299  0.57150  Biso   1.000  C
  C108     1.0000 0.84473  0.41299  0.92850  Biso   1.000  C
  C109     1.0000 0.34473  0.08701  0.42850  Biso   1.000  C
  C110     1.0000 0.65527  0.08701  0.07150  Biso   1.000  C
  C111     1.0000 0.84473  0.58701  0.42850  Biso   1.000  C
  C112     1.0000 0.15527  0.58701  0.07150  Biso   1.000  C
  C113     1.0000 0.78540  0.37025  0.48771  Biso   1.000  C
  C114     1.0000 0.21460  0.37025  0.01229  Biso   1.000  C
  C115     1.0000 0.28540  0.87025  0.48771  Biso   1.000  C
  C116     1.0000 0.71460  0.87025  0.01229  Biso   1.000  C
  C117     1.0000 0.21460  0.62975  0.51229  Biso   1.000  C
  C118     1.0000 0.78540  0.62975  0.98771  Biso   1.000  C
  C119     1.0000 0.71460  0.12975  0.51229  Biso   1.000  C
  C120     1.0000 0.28540  0.12975  0.98771  Biso   1.000  C
  C121     1.0000 0.83531  0.43896  0.48897  Biso   1.000  C
  C122     1.0000 0.16469  0.43896  0.01103  Biso   1.000  C
  C123     1.0000 0.33531  0.93896  0.48897  Biso   1.000  C
  C124     1.0000 0.66469  0.93896  0.01103  Biso   1.000  C
  C125     1.0000 0.16469  0.56104  0.51103  Biso   1.000  C
  C126     1.0000 0.83531  0.56104  0.98897  Biso   1.000  C
  C127     1.0000 0.66469  0.06104  0.51103  Biso   1.000  C
  C128     1.0000 0.33531  0.06104  0.98897  Biso   1.000  C
  H65      1.0000 0.70140  0.79560  0.61300  Biso   1.000  H
  H66      1.0000 0.29860  0.79560  0.88700  Biso   1.000  H
  H67      1.0000 0.20140  0.29560  0.61300  Biso   1.000  H
  H68      1.0000 0.79860  0.29560  0.88700  Biso   1.000  H
  H69      1.0000 0.29860  0.20440  0.38700  Biso   1.000  H
  H70      1.0000 0.70140  0.20440  0.11300  Biso   1.000  H
  H71      1.0000 0.79860  0.70440  0.38700  Biso   1.000  H
  H72      1.0000 0.20140  0.70440  0.11300  Biso   1.000  H
  C129     1.0000 0.69437  0.85970  0.64912  Biso   1.000  C
  C130     1.0000 0.30563  0.85970  0.85088  Biso   1.000  C
  C131     1.0000 0.19437  0.35970  0.64912  Biso   1.000  C
  C132     1.0000 0.80563  0.35970  0.85088  Biso   1.000  C
  C133     1.0000 0.30563  0.14030  0.35088  Biso   1.000  C
  C134     1.0000 0.69437  0.14030  0.14912  Biso   1.000  C
  C135     1.0000 0.80563  0.64030  0.35088  Biso   1.000  C
  C136     1.0000 0.19437  0.64030  0.14912  Biso   1.000  C
  C137     1.0000 0.66148  0.94175  0.60901  Biso   1.000  C
  C138     1.0000 0.33852  0.94175  0.89099  Biso   1.000  C
  C139     1.0000 0.16148  0.44175  0.60901  Biso   1.000  C
  C140     1.0000 0.83852  0.44175  0.89099  Biso   1.000  C
  C141     1.0000 0.33852  0.05825  0.39099  Biso   1.000  C
  C142     1.0000 0.66148  0.05825  0.10901  Biso   1.000  C
  C143     1.0000 0.83852  0.55825  0.39099  Biso   1.000  C
  C144     1.0000 0.16148  0.55825  0.10901  Biso   1.000  C
  H73      1.0000 0.64080  0.93070  0.54540  Biso   1.000  H
  H74      1.0000 0.35920  0.93070  0.95460  Biso   1.000  H
  H75      1.0000 0.14080  0.43070  0.54540  Biso   1.000  H
  H76      1.0000 0.85920  0.43070  0.95460  Biso   1.000  H
  H77      1.0000 0.35920  0.06930  0.45460  Biso   1.000  H
  H78      1.0000 0.64080  0.06930  0.04540  Biso   1.000  H
  H79      1.0000 0.85920  0.56930  0.45460  Biso   1.000  H
  H80      1.0000 0.14080  0.56930  0.04540  Biso   1.000  H
  H81      1.0000 0.75800  0.35920  0.47970  Biso   1.000  H
  H82      1.0000 0.24200  0.35920  0.02030  Biso   1.000  H
  H83      1.0000 0.25800  0.85920  0.47970  Biso   1.000  H
  H84      1.0000 0.74200  0.85920  0.02030  Biso   1.000  H
  H85      1.0000 0.24200  0.64080  0.52030  Biso   1.000  H
  H86      1.0000 0.75800  0.64080  0.97970  Biso   1.000  H
  H87      1.0000 0.74200  0.14080  0.52030  Biso   1.000  H
  H88      1.0000 0.25800  0.14080  0.97970  Biso   1.000  H
  C145     1.0000 0.81638  0.33194  0.50995  Biso   1.000  C
  C146     1.0000 0.18362  0.33194  0.99005  Biso   1.000  C
  C147     1.0000 0.31638  0.83194  0.50995  Biso   1.000  C
  C148     1.0000 0.68362  0.83194  0.99005  Biso   1.000  C
  C149     1.0000 0.18362  0.66806  0.49005  Biso   1.000  C
  C150     1.0000 0.81638  0.66806  0.00995  Biso   1.000  C
  C151     1.0000 0.68362  0.16806  0.49005  Biso   1.000  C
  C152     1.0000 0.31638  0.16806  0.00995  Biso   1.000  C
  C153     1.0000 0.86579  0.39990  0.51056  Biso   1.000  C
  C154     1.0000 0.13421  0.39990  0.98944  Biso   1.000  C
  C155     1.0000 0.36579  0.89990  0.51056  Biso   1.000  C
  C156     1.0000 0.63421  0.89990  0.98944  Biso   1.000  C
  C157     1.0000 0.13421  0.60010  0.48944  Biso   1.000  C
  C158     1.0000 0.86579  0.60010  0.01056  Biso   1.000  C
  C159     1.0000 0.63421  0.10010  0.48944  Biso   1.000  C
  C160     1.0000 0.36579  0.10010  0.01056  Biso   1.000  C
  H89      1.0000 0.84230  0.47530  0.48220  Biso   1.000  H
  H90      1.0000 0.15770  0.47530  0.01780  Biso   1.000  H
  H91      1.0000 0.34230  0.97530  0.48220  Biso   1.000  H
  H92      1.0000 0.65770  0.97530  0.01780  Biso   1.000  H
  H93      1.0000 0.15770  0.52470  0.51780  Biso   1.000  H
  H94      1.0000 0.84230  0.52470  0.98220  Biso   1.000  H
  H95      1.0000 0.65770  0.02470  0.51780  Biso   1.000  H
  H96      1.0000 0.34230  0.02470  0.98220  Biso   1.000  H
  C161     1.0000 0.67986  0.91468  0.64808  Biso   1.000  C
  C162     1.0000 0.32014  0.91468  0.85192  Biso   1.000  C
  C163     1.0000 0.17986  0.41468  0.64808  Biso   1.000  C
  C164     1.0000 0.82014  0.41468  0.85192  Biso   1.000  C
  C165     1.0000 0.32014  0.08532  0.35192  Biso   1.000  C
  C166     1.0000 0.67986  0.08532  0.14808  Biso   1.000  C
  C167     1.0000 0.82014  0.58532  0.35192  Biso   1.000  C
  C168     1.0000 0.17986  0.58532  0.14808  Biso   1.000  C
  H97      1.0000 0.70690  0.84090  0.67510  Biso   1.000  H
  H98      1.0000 0.29310  0.84090  0.82490  Biso   1.000  H
  H99      1.0000 0.20690  0.34090  0.67510  Biso   1.000  H
  H100     1.0000 0.79310  0.34090  0.82490  Biso   1.000  H
  H101     1.0000 0.29310  0.15910  0.32490  Biso   1.000  H
  H102     1.0000 0.70690  0.15910  0.17510  Biso   1.000  H
  H103     1.0000 0.79310  0.65910  0.32490  Biso   1.000  H
  H104     1.0000 0.20690  0.65910  0.17510  Biso   1.000  H
  H105     1.0000 0.65320  0.98000  0.60810  Biso   1.000  H
  H106     1.0000 0.34680  0.98000  0.89190  Biso   1.000  H
  H107     1.0000 0.15320  0.48000  0.60810  Biso   1.000  H
  H108     1.0000 0.84680  0.48000  0.89190  Biso   1.000  H
  H109     1.0000 0.34680  0.02000  0.39190  Biso   1.000  H
  H110     1.0000 0.65320  0.02000  0.10810  Biso   1.000  H
  H111     1.0000 0.84680  0.52000  0.39190  Biso   1.000  H
  H112     1.0000 0.15320  0.52000  0.10810  Biso   1.000  H
  C169     1.0000 0.85669  0.34631  0.52126  Biso   1.000  C
  C170     1.0000 0.14331  0.34631  0.97874  Biso   1.000  C
  C171     1.0000 0.35669  0.84631  0.52126  Biso   1.000  C
  C172     1.0000 0.64331  0.84631  0.97874  Biso   1.000  C
  C173     1.0000 0.14331  0.65369  0.47874  Biso   1.000  C
  C174     1.0000 0.85669  0.65369  0.02126  Biso   1.000  C
  C175     1.0000 0.64331  0.15369  0.47874  Biso   1.000  C
  C176     1.0000 0.35669  0.15369  0.02126  Biso   1.000  C
  H113     1.0000 0.80950  0.29580  0.51730  Biso   1.000  H
  H114     1.0000 0.19050  0.29580  0.98270  Biso   1.000  H
  H115     1.0000 0.30950  0.79580  0.51730  Biso   1.000  H
  H116     1.0000 0.69050  0.79580  0.98270  Biso   1.000  H
  H117     1.0000 0.19050  0.70420  0.48270  Biso   1.000  H
  H118     1.0000 0.80950  0.70420  0.01730  Biso   1.000  H
  H119     1.0000 0.69050  0.20420  0.48270  Biso   1.000  H
  H120     1.0000 0.30950  0.20420  0.01730  Biso   1.000  H
  H121     1.0000 0.89320  0.41040  0.51800  Biso   1.000  H
  H122     1.0000 0.10680  0.41040  0.98200  Biso   1.000  H
  H123     1.0000 0.39320  0.91040  0.51800  Biso   1.000  H
  H124     1.0000 0.60680  0.91040  0.98200  Biso   1.000  H
  H125     1.0000 0.10680  0.58960  0.48200  Biso   1.000  H
  H126     1.0000 0.89320  0.58960  0.01800  Biso   1.000  H
  H127     1.0000 0.60680  0.08960  0.48200  Biso   1.000  H
  H128     1.0000 0.39320  0.08960  0.01800  Biso   1.000  H
  C177     1.0000 0.68404  0.94380  0.68902  Biso   1.000  C
  C178     1.0000 0.31596  0.94380  0.81098  Biso   1.000  C
  C179     1.0000 0.18404  0.44380  0.68902  Biso   1.000  C
  C180     1.0000 0.81596  0.44380  0.81098  Biso   1.000  C
  C181     1.0000 0.31596  0.05620  0.31098  Biso   1.000  C
  C182     1.0000 0.68404  0.05620  0.18902  Biso   1.000  C
  C183     1.0000 0.81596  0.55620  0.31098  Biso   1.000  C
  C184     1.0000 0.18404  0.55620  0.18902  Biso   1.000  C
  C185     1.0000 0.89110  0.30589  0.54469  Biso   1.000  C
  C186     1.0000 0.10890  0.30589  0.95531  Biso   1.000  C
  C187     1.0000 0.39110  0.80589  0.54469  Biso   1.000  C
  C188     1.0000 0.60890  0.80589  0.95531  Biso   1.000  C
  C189     1.0000 0.10890  0.69411  0.45531  Biso   1.000  C
  C190     1.0000 0.89110  0.69411  0.04469  Biso   1.000  C
  C191     1.0000 0.60890  0.19411  0.45531  Biso   1.000  C
  C192     1.0000 0.39110  0.19411  0.04469  Biso   1.000  C
  O1       1.0000 0.68525  0.99857  0.68780  Biso   1.000  O
  O2       1.0000 0.31475  0.99857  0.81220  Biso   1.000  O
  O3       1.0000 0.18525  0.49857  0.68780  Biso   1.000  O
  O4       1.0000 0.81475  0.49857  0.81220  Biso   1.000  O
  O5       1.0000 0.31475  0.00143  0.31220  Biso   1.000  O
  O6       1.0000 0.68525  0.00143  0.18780  Biso   1.000  O
  O7       1.0000 0.81475  0.50143  0.31220  Biso   1.000  O
  O8       1.0000 0.18525  0.50143  0.18780  Biso   1.000  O
  O9       1.0000 0.68750  0.91330  0.72040  Biso   1.000  O
  O10      1.0000 0.31250  0.91330  0.77960  Biso   1.000  O
  O11      1.0000 0.18750  0.41330  0.72040  Biso   1.000  O
  O12      1.0000 0.81250  0.41330  0.77960  Biso   1.000  O
  O13      1.0000 0.31250  0.08670  0.27960  Biso   1.000  O
  O14      1.0000 0.68750  0.08670  0.22040  Biso   1.000  O
  O15      1.0000 0.81250  0.58670  0.27960  Biso   1.000  O
  O16      1.0000 0.18750  0.58670  0.22040  Biso   1.000  O
  O17      1.0000 0.88192  0.25646  0.55216  Biso   1.000  O
  O18      1.0000 0.11808  0.25646  0.94784  Biso   1.000  O
  O19      1.0000 0.38192  0.75646  0.55216  Biso   1.000  O
  O20      1.0000 0.61808  0.75646  0.94784  Biso   1.000  O
  O21      1.0000 0.11808  0.74354  0.44784  Biso   1.000  O
  O22      1.0000 0.88192  0.74354  0.05216  Biso   1.000  O
  O23      1.0000 0.61808  0.24354  0.44784  Biso   1.000  O
  O24      1.0000 0.38192  0.24354  0.05216  Biso   1.000  O
  O25      1.0000 0.92694  0.32549  0.55413  Biso   1.000  O
  O26      1.0000 0.07306  0.32549  0.94587  Biso   1.000  O
  O27      1.0000 0.42694  0.82549  0.55413  Biso   1.000  O
  O28      1.0000 0.57306  0.82549  0.94587  Biso   1.000  O
  O29      1.0000 0.07306  0.67451  0.44587  Biso   1.000  O
  O30      1.0000 0.92694  0.67451  0.05413  Biso   1.000  O
  O31      1.0000 0.57306  0.17451  0.44587  Biso   1.000  O
  O32      1.0000 0.42694  0.17451  0.05413  Biso   1.000  O
  Ti1      1.0000 0.70654  0.05987  0.73578  Biso   1.000  Ti
  Ti2      1.0000 0.29346  0.05987  0.76422  Biso   1.000  Ti
  Ti3      1.0000 0.20654  0.55987  0.73578  Biso   1.000  Ti
  Ti4      1.0000 0.79346  0.55987  0.76422  Biso   1.000  Ti
  Ti5      1.0000 0.29346  0.94013  0.26422  Biso   1.000  Ti
  Ti6      1.0000 0.70654  0.94013  0.23578  Biso   1.000  Ti
  Ti7      1.0000 0.79346  0.44013  0.26422  Biso   1.000  Ti
  Ti8      1.0000 0.20654  0.44013  0.23578  Biso   1.000  Ti
  Ti9      1.0000 0.67958  0.92765  0.77720  Biso   1.000  Ti
  Ti10     1.0000 0.32042  0.92765  0.72280  Biso   1.000  Ti
  Ti11     1.0000 0.17958  0.42765  0.77720  Biso   1.000  Ti
  Ti12     1.0000 0.82042  0.42765  0.72280  Biso   1.000  Ti
  Ti13     1.0000 0.32042  0.07235  0.22280  Biso   1.000  Ti
  Ti14     1.0000 0.67958  0.07235  0.27720  Biso   1.000  Ti
  Ti15     1.0000 0.82042  0.57235  0.22280  Biso   1.000  Ti
  Ti16     1.0000 0.17958  0.57235  0.27720  Biso   1.000  Ti
  Ti17     1.0000 0.91502  0.18066  0.56897  Biso   1.000  Ti
  Ti18     1.0000 0.08498  0.18066  0.93103  Biso   1.000  Ti
  Ti19     1.0000 0.41502  0.68066  0.56897  Biso   1.000  Ti
  Ti20     1.0000 0.58498  0.68066  0.93103  Biso   1.000  Ti
  Ti21     1.0000 0.08498  0.81934  0.43103  Biso   1.000  Ti
  Ti22     1.0000 0.91502  0.81934  0.06897  Biso   1.000  Ti
  Ti23     1.0000 0.58498  0.31934  0.43103  Biso   1.000  Ti
  Ti24     1.0000 0.41502  0.31934  0.06897  Biso   1.000  Ti
  Ti25     1.0000 0.98621  0.29996  0.58393  Biso   1.000  Ti
  Ti26     1.0000 0.01379  0.29996  0.91607  Biso   1.000  Ti
  Ti27     1.0000 0.48621  0.79996  0.58393  Biso   1.000  Ti
  Ti28     1.0000 0.51379  0.79996  0.91607  Biso   1.000  Ti
  Ti29     1.0000 0.01379  0.70004  0.41607  Biso   1.000  Ti
  Ti30     1.0000 0.98621  0.70004  0.08393  Biso   1.000  Ti
  Ti31     1.0000 0.51379  0.20004  0.41607  Biso   1.000  Ti
  Ti32     1.0000 0.48621  0.20004  0.08393  Biso   1.000  Ti
  O33      1.0000 0.68906  0.00919  0.76770  Biso   1.000  O
  O34      1.0000 0.31094  0.00919  0.73230  Biso   1.000  O
  O35      1.0000 0.18906  0.50919  0.76770  Biso   1.000  O
  O36      1.0000 0.81094  0.50919  0.73230  Biso   1.000  O
  O37      1.0000 0.31094  0.99081  0.23230  Biso   1.000  O
  O38      1.0000 0.68906  0.99081  0.26770  Biso   1.000  O
  O39      1.0000 0.81094  0.49081  0.23230  Biso   1.000  O
  O40      1.0000 0.18906  0.49081  0.26770  Biso   1.000  O
  O41      1.0000 0.72153  0.10265  0.79285  Biso   1.000  O
  O42      1.0000 0.27847  0.10265  0.70715  Biso   1.000  O
  O43      1.0000 0.22153  0.60265  0.79285  Biso   1.000  O
  O44      1.0000 0.77847  0.60265  0.70715  Biso   1.000  O
  O45      1.0000 0.27847  0.89735  0.20715  Biso   1.000  O
  O46      1.0000 0.72153  0.89735  0.29285  Biso   1.000  O
  O47      1.0000 0.77847  0.39735  0.20715  Biso   1.000  O
  O48      1.0000 0.22153  0.39735  0.29285  Biso   1.000  O
  O49      1.0000 0.75530  0.05361  0.73369  Biso   1.000  O
  O50      1.0000 0.24470  0.05361  0.76631  Biso   1.000  O
  O51      1.0000 0.25530  0.55361  0.73369  Biso   1.000  O
  O52      1.0000 0.74470  0.55361  0.76631  Biso   1.000  O
  O53      1.0000 0.24470  0.94639  0.26631  Biso   1.000  O
  O54      1.0000 0.75530  0.94639  0.23369  Biso   1.000  O
  O55      1.0000 0.74470  0.44639  0.26631  Biso   1.000  O
  O56      1.0000 0.25530  0.44639  0.23369  Biso   1.000  O
  O57      1.0000 0.67299  0.11019  0.70280  Biso   1.000  O
  O58      1.0000 0.32701  0.11019  0.79720  Biso   1.000  O
  O59      1.0000 0.17299  0.61019  0.70280  Biso   1.000  O
  O60      1.0000 0.82701  0.61019  0.79720  Biso   1.000  O
  O61      1.0000 0.32701  0.88981  0.29720  Biso   1.000  O
  O62      1.0000 0.67299  0.88981  0.20280  Biso   1.000  O
  O63      1.0000 0.82701  0.38981  0.29720  Biso   1.000  O
  O64      1.0000 0.17299  0.38981  0.20280  Biso   1.000  O
  O65      1.0000 0.62503  0.93582  0.75061  Biso   1.000  O
  O66      1.0000 0.37497  0.93582  0.74939  Biso   1.000  O
  O67      1.0000 0.12503  0.43582  0.75061  Biso   1.000  O
  O68      1.0000 0.87497  0.43582  0.74939  Biso   1.000  O
  O69      1.0000 0.37497  0.06418  0.24939  Biso   1.000  O
  O70      1.0000 0.62503  0.06418  0.25061  Biso   1.000  O
  O71      1.0000 0.87497  0.56418  0.24939  Biso   1.000  O
  O72      1.0000 0.12503  0.56418  0.25061  Biso   1.000  O
  O73      1.0000 0.68224  0.85340  0.79008  Biso   1.000  O
  O74      1.0000 0.31776  0.85340  0.70992  Biso   1.000  O
  O75      1.0000 0.18224  0.35340  0.79008  Biso   1.000  O
  O76      1.0000 0.81776  0.35340  0.70992  Biso   1.000  O
  O77      1.0000 0.31776  0.14660  0.20992  Biso   1.000  O
  O78      1.0000 0.68224  0.14660  0.29008  Biso   1.000  O
  O79      1.0000 0.81776  0.64660  0.20992  Biso   1.000  O
  O80      1.0000 0.18224  0.64660  0.29008  Biso   1.000  O
  O81      1.0000 0.68458  0.96417  0.83227  Biso   1.000  O
  O82      1.0000 0.31542  0.96417  0.66773  Biso   1.000  O
  O83      1.0000 0.18458  0.46417  0.83227  Biso   1.000  O
  O84      1.0000 0.81542  0.46417  0.66773  Biso   1.000  O
  O85      1.0000 0.31542  0.03583  0.16773  Biso   1.000  O
  O86      1.0000 0.68458  0.03583  0.33227  Biso   1.000  O
  O87      1.0000 0.81542  0.53583  0.16773  Biso   1.000  O
  O88      1.0000 0.18458  0.53583  0.33227  Biso   1.000  O
  O89      1.0000 0.74467  0.92656  0.80050  Biso   1.000  O
  O90      1.0000 0.25533  0.92656  0.69950  Biso   1.000  O
  O91      1.0000 0.24467  0.42656  0.80050  Biso   1.000  O
  O92      1.0000 0.75533  0.42656  0.69950  Biso   1.000  O
  O93      1.0000 0.25533  0.07344  0.19950  Biso   1.000  O
  O94      1.0000 0.74467  0.07344  0.30050  Biso   1.000  O
  O95      1.0000 0.75533  0.57344  0.19950  Biso   1.000  O
  O96      1.0000 0.24467  0.57344  0.30050  Biso   1.000  O
  O97      1.0000 0.92294  0.19884  0.51087  Biso   1.000  O
  O98      1.0000 0.07706  0.19884  0.98913  Biso   1.000  O
  O99      1.0000 0.42294  0.69884  0.51087  Biso   1.000  O
  O100     1.0000 0.57706  0.69884  0.98913  Biso   1.000  O
  O101     1.0000 0.07706  0.80116  0.48913  Biso   1.000  O
  O102     1.0000 0.92294  0.80116  0.01087  Biso   1.000  O
  O103     1.0000 0.57706  0.30116  0.48913  Biso   1.000  O
  O104     1.0000 0.42294  0.30116  0.01087  Biso   1.000  O
  O105     1.0000 0.96576  0.22512  0.59398  Biso   1.000  O
  O106     1.0000 0.03424  0.22512  0.90602  Biso   1.000  O
  O107     1.0000 0.46576  0.72512  0.59398  Biso   1.000  O
  O108     1.0000 0.53424  0.72512  0.90602  Biso   1.000  O
  O109     1.0000 0.03424  0.77488  0.40602  Biso   1.000  O
  O110     1.0000 0.96576  0.77488  0.09398  Biso   1.000  O
  O111     1.0000 0.53424  0.27488  0.40602  Biso   1.000  O
  O112     1.0000 0.46576  0.27488  0.09398  Biso   1.000  O
  O113     1.0000 0.90396  0.17514  0.61625  Biso   1.000  O
  O114     1.0000 0.09604  0.17514  0.88375  Biso   1.000  O
  O115     1.0000 0.40396  0.67514  0.61625  Biso   1.000  O
  O116     1.0000 0.59604  0.67514  0.88375  Biso   1.000  O
  O117     1.0000 0.09604  0.82486  0.38375  Biso   1.000  O
  O118     1.0000 0.90396  0.82486  0.11625  Biso   1.000  O
  O119     1.0000 0.59604  0.32486  0.38375  Biso   1.000  O
  O120     1.0000 0.40396  0.32486  0.11625  Biso   1.000  O
  O121     1.0000 0.96065  0.12317  0.58231  Biso   1.000  O
  O122     1.0000 0.03935  0.12317  0.91769  Biso   1.000  O
  O123     1.0000 0.46065  0.62317  0.58231  Biso   1.000  O
  O124     1.0000 0.53935  0.62317  0.91769  Biso   1.000  O
  O125     1.0000 0.03935  0.87683  0.41769  Biso   1.000  O
  O126     1.0000 0.96065  0.87683  0.08231  Biso   1.000  O
  O127     1.0000 0.53935  0.37683  0.41769  Biso   1.000  O
  O128     1.0000 0.46065  0.37683  0.08231  Biso   1.000  O
  O129     1.0000 0.87254  0.13686  0.53561  Biso   1.000  O
  O130     1.0000 0.12746  0.13686  0.96439  Biso   1.000  O
  O131     1.0000 0.37254  0.63686  0.53561  Biso   1.000  O
  O132     1.0000 0.62746  0.63686  0.96439  Biso   1.000  O
  O133     1.0000 0.12746  0.86314  0.46439  Biso   1.000  O
  O134     1.0000 0.87254  0.86314  0.03561  Biso   1.000  O
  O135     1.0000 0.62746  0.36314  0.46439  Biso   1.000  O
  O136     1.0000 0.37254  0.36314  0.03561  Biso   1.000  O
  O137     1.0000 0.97470  0.26163  0.52168  Biso   1.000  O
  O138     1.0000 0.02530  0.26163  0.97832  Biso   1.000  O
  O139     1.0000 0.47470  0.76163  0.52168  Biso   1.000  O
  O140     1.0000 0.52530  0.76163  0.97832  Biso   1.000  O
  O141     1.0000 0.02530  0.73837  0.47832  Biso   1.000  O
  O142     1.0000 0.97470  0.73837  0.02168  Biso   1.000  O
  O143     1.0000 0.52530  0.23837  0.47832  Biso   1.000  O
  O144     1.0000 0.47470  0.23837  0.02168  Biso   1.000  O
  O145     1.0000 0.03618  0.24941  0.60501  Biso   1.000  O
  O146     1.0000 0.96382  0.24941  0.89499  Biso   1.000  O
  O147     1.0000 0.53618  0.74941  0.60501  Biso   1.000  O
  O148     1.0000 0.46382  0.74941  0.89499  Biso   1.000  O
  O149     1.0000 0.96382  0.75059  0.39499  Biso   1.000  O
  O150     1.0000 0.03618  0.75059  0.10501  Biso   1.000  O
  O151     1.0000 0.46382  0.25059  0.39499  Biso   1.000  O
  O152     1.0000 0.53618  0.25059  0.10501  Biso   1.000  O
  O153     1.0000 0.00610  0.35914  0.56400  Biso   1.000  O
  O154     1.0000 0.99390  0.35914  0.93600  Biso   1.000  O
  O155     1.0000 0.50610  0.85914  0.56400  Biso   1.000  O
  O156     1.0000 0.49390  0.85914  0.93600  Biso   1.000  O
  O157     1.0000 0.99390  0.64086  0.43600  Biso   1.000  O
  O158     1.0000 0.00610  0.64086  0.06400  Biso   1.000  O
  O159     1.0000 0.49390  0.14086  0.43600  Biso   1.000  O
  O160     1.0000 0.50610  0.14086  0.06400  Biso   1.000  O
  O161     1.0000 0.99005  0.33030  0.63353  Biso   1.000  O
  O162     1.0000 0.00995  0.33030  0.86647  Biso   1.000  O
  O163     1.0000 0.49005  0.83030  0.63353  Biso   1.000  O
  O164     1.0000 0.50995  0.83030  0.86647  Biso   1.000  O
  O165     1.0000 0.00995  0.66970  0.36647  Biso   1.000  O
  O166     1.0000 0.99005  0.66970  0.13353  Biso   1.000  O
  O167     1.0000 0.50995  0.16970  0.36647  Biso   1.000  O
  O168     1.0000 0.49005  0.16970  0.13353  Biso   1.000  O
  Ti33     1.0000 0.70163  0.04589  0.82461  Biso   1.000  Ti
  Ti34     1.0000 0.29837  0.04589  0.67539  Biso   1.000  Ti
  Ti35     1.0000 0.20163  0.54589  0.82461  Biso   1.000  Ti
  Ti36     1.0000 0.79837  0.54589  0.67539  Biso   1.000  Ti
  Ti37     1.0000 0.29837  0.95411  0.17539  Biso   1.000  Ti
  Ti38     1.0000 0.70163  0.95411  0.32461  Biso   1.000  Ti
  Ti39     1.0000 0.79837  0.45411  0.17539  Biso   1.000  Ti
  Ti40     1.0000 0.20163  0.45411  0.32461  Biso   1.000  Ti
  C193     1.0000 0.74565  0.15289  0.80805  Biso   1.000  C
  C194     1.0000 0.25435  0.15289  0.69195  Biso   1.000  C
  C195     1.0000 0.24565  0.65289  0.80805  Biso   1.000  C
  C196     1.0000 0.75435  0.65289  0.69195  Biso   1.000  C
  C197     1.0000 0.25435  0.84711  0.19195  Biso   1.000  C
  C198     1.0000 0.74565  0.84711  0.30805  Biso   1.000  C
  C199     1.0000 0.75435  0.34711  0.19195  Biso   1.000  C
  C200     1.0000 0.24565  0.34711  0.30805  Biso   1.000  C
  C201     1.0000 0.78944  0.03800  0.72217  Biso   1.000  C
  C202     1.0000 0.21056  0.03800  0.77783  Biso   1.000  C
  C203     1.0000 0.28944  0.53800  0.72217  Biso   1.000  C
  C204     1.0000 0.71056  0.53800  0.77783  Biso   1.000  C
  C205     1.0000 0.21056  0.96200  0.27783  Biso   1.000  C
  C206     1.0000 0.78944  0.96200  0.22217  Biso   1.000  C
  C207     1.0000 0.71056  0.46200  0.27783  Biso   1.000  C
  C208     1.0000 0.28944  0.46200  0.22217  Biso   1.000  C
  C209     1.0000 0.65230  0.13930  0.65900  Biso   1.000  C
  C210     1.0000 0.34770  0.13930  0.84100  Biso   1.000  C
  C211     1.0000 0.15230  0.63930  0.65900  Biso   1.000  C
  C212     1.0000 0.84770  0.63930  0.84100  Biso   1.000  C
  C213     1.0000 0.34770  0.86070  0.34100  Biso   1.000  C
  C214     1.0000 0.65230  0.86070  0.15900  Biso   1.000  C
  C215     1.0000 0.84770  0.36070  0.34100  Biso   1.000  C
  C216     1.0000 0.15230  0.36070  0.15900  Biso   1.000  C
  C217     1.0000 0.59360  0.97090  0.73060  Biso   1.000  C
  C218     1.0000 0.40640  0.97090  0.76940  Biso   1.000  C
  C219     1.0000 0.09360  0.47090  0.73060  Biso   1.000  C
  C220     1.0000 0.90640  0.47090  0.76940  Biso   1.000  C
  C221     1.0000 0.40640  0.02910  0.26940  Biso   1.000  C
  C222     1.0000 0.59360  0.02910  0.23060  Biso   1.000  C
  C223     1.0000 0.90640  0.52910  0.26940  Biso   1.000  C
  C224     1.0000 0.09360  0.52910  0.23060  Biso   1.000  C
  C225     1.0000 0.69610  0.79870  0.79430  Biso   1.000  C
  C226     1.0000 0.30390  0.79870  0.70570  Biso   1.000  C
  C227     1.0000 0.19610  0.29870  0.79430  Biso   1.000  C
  C228     1.0000 0.80390  0.29870  0.70570  Biso   1.000  C
  C229     1.0000 0.30390  0.20130  0.20570  Biso   1.000  C
  C230     1.0000 0.69610  0.20130  0.29430  Biso   1.000  C
  C231     1.0000 0.80390  0.70130  0.20570  Biso   1.000  C
  C232     1.0000 0.19610  0.70130  0.29430  Biso   1.000  C
  C233     1.0000 0.68223  0.94080  0.87003  Biso   1.000  C
  C234     1.0000 0.31777  0.94080  0.62997  Biso   1.000  C
  C235     1.0000 0.18223  0.44080  0.87003  Biso   1.000  C
  C236     1.0000 0.81777  0.44080  0.62997  Biso   1.000  C
  C237     1.0000 0.31777  0.05920  0.12997  Biso   1.000  C
  C238     1.0000 0.68223  0.05920  0.37003  Biso   1.000  C
  C239     1.0000 0.81777  0.55920  0.12997  Biso   1.000  C
  C240     1.0000 0.18223  0.55920  0.37003  Biso   1.000  C
  C241     1.0000 0.76974  0.96236  0.82428  Biso   1.000  C
  C242     1.0000 0.23026  0.96236  0.67572  Biso   1.000  C
  C243     1.0000 0.26974  0.46236  0.82428  Biso   1.000  C
  C244     1.0000 0.73026  0.46236  0.67572  Biso   1.000  C
  C245     1.0000 0.23026  0.03764  0.17572  Biso   1.000  C
  C246     1.0000 0.76974  0.03764  0.32428  Biso   1.000  C
  C247     1.0000 0.73026  0.53764  0.17572  Biso   1.000  C
  C248     1.0000 0.26974  0.53764  0.32428  Biso   1.000  C
  C249     1.0000 0.94581  0.23027  0.49902  Biso   1.000  C
  C250     1.0000 0.05419  0.23027  0.00098  Biso   1.000  C
  C251     1.0000 0.44581  0.73027  0.49902  Biso   1.000  C
  C252     1.0000 0.55419  0.73027  0.00098  Biso   1.000  C
  C253     1.0000 0.05419  0.76973  0.50098  Biso   1.000  C
  C254     1.0000 0.94581  0.76973  0.99902  Biso   1.000  C
  C255     1.0000 0.55419  0.26973  0.50098  Biso   1.000  C
  C256     1.0000 0.44581  0.26973  0.99902  Biso   1.000  C
  Ti41     1.0000 0.01076  0.17294  0.60463  Biso   1.000  Ti
  Ti42     1.0000 0.98924  0.17294  0.89537  Biso   1.000  Ti
  Ti43     1.0000 0.51076  0.67294  0.60463  Biso   1.000  Ti
  Ti44     1.0000 0.48924  0.67294  0.89537  Biso   1.000  Ti
  Ti45     1.0000 0.98924  0.82706  0.39537  Biso   1.000  Ti
  Ti46     1.0000 0.01076  0.82706  0.10463  Biso   1.000  Ti
  Ti47     1.0000 0.48924  0.32706  0.39537  Biso   1.000  Ti
  Ti48     1.0000 0.51076  0.32706  0.10463  Biso   1.000  Ti
  C257     1.0000 0.87205  0.15850  0.62922  Biso   1.000  C
  C258     1.0000 0.12795  0.15850  0.87078  Biso   1.000  C
  C259     1.0000 0.37205  0.65850  0.62922  Biso   1.000  C
  C260     1.0000 0.62795  0.65850  0.87078  Biso   1.000  C
  C261     1.0000 0.12795  0.84150  0.37078  Biso   1.000  C
  C262     1.0000 0.87205  0.84150  0.12922  Biso   1.000  C
  C263     1.0000 0.62795  0.34150  0.37078  Biso   1.000  C
  C264     1.0000 0.37205  0.34150  0.12922  Biso   1.000  C
  C265     1.0000 0.96014  0.06059  0.58406  Biso   1.000  C
  C266     1.0000 0.03986  0.06059  0.91594  Biso   1.000  C
  C267     1.0000 0.46014  0.56059  0.58406  Biso   1.000  C
  C268     1.0000 0.53986  0.56059  0.91594  Biso   1.000  C
  C269     1.0000 0.03986  0.93941  0.41594  Biso   1.000  C
  C270     1.0000 0.96014  0.93941  0.08406  Biso   1.000  C
  C271     1.0000 0.53986  0.43941  0.41594  Biso   1.000  C
  C272     1.0000 0.46014  0.43941  0.08406  Biso   1.000  C
  C273     1.0000 0.84908  0.12043  0.49335  Biso   1.000  C
  C274     1.0000 0.15092  0.12043  0.00665  Biso   1.000  C
  C275     1.0000 0.34908  0.62043  0.49335  Biso   1.000  C
  C276     1.0000 0.65092  0.62043  0.00665  Biso   1.000  C
  C277     1.0000 0.15092  0.87957  0.50665  Biso   1.000  C
  C278     1.0000 0.84908  0.87957  0.99335  Biso   1.000  C
  C279     1.0000 0.65092  0.37957  0.50665  Biso   1.000  C
  C280     1.0000 0.34908  0.37957  0.99335  Biso   1.000  C
  C281     1.0000 0.08200  0.26140  0.61776  Biso   1.000  C
  C282     1.0000 0.91800  0.26140  0.88224  Biso   1.000  C
  C283     1.0000 0.58200  0.76140  0.61776  Biso   1.000  C
  C284     1.0000 0.41800  0.76140  0.88224  Biso   1.000  C
  C285     1.0000 0.91800  0.73860  0.38224  Biso   1.000  C
  C286     1.0000 0.08200  0.73860  0.11776  Biso   1.000  C
  C287     1.0000 0.41800  0.23860  0.38224  Biso   1.000  C
  C288     1.0000 0.58200  0.23860  0.11776  Biso   1.000  C
  C289     1.0000 0.01462  0.38413  0.52957  Biso   1.000  C
  C290     1.0000 0.98538  0.38413  0.97043  Biso   1.000  C
  C291     1.0000 0.51462  0.88413  0.52957  Biso   1.000  C
  C292     1.0000 0.48538  0.88413  0.97043  Biso   1.000  C
  C293     1.0000 0.98538  0.61587  0.47043  Biso   1.000  C
  C294     1.0000 0.01462  0.61587  0.02957  Biso   1.000  C
  C295     1.0000 0.48538  0.11587  0.47043  Biso   1.000  C
  C296     1.0000 0.51462  0.11587  0.02957  Biso   1.000  C
  C297     1.0000 0.97970  0.31760  0.67050  Biso   1.000  C
  C298     1.0000 0.02030  0.31760  0.82950  Biso   1.000  C
  C299     1.0000 0.47970  0.81760  0.67050  Biso   1.000  C
  C300     1.0000 0.52030  0.81760  0.82950  Biso   1.000  C
  C301     1.0000 0.02030  0.68240  0.32950  Biso   1.000  C
  C302     1.0000 0.97970  0.68240  0.17050  Biso   1.000  C
  C303     1.0000 0.52030  0.18240  0.32950  Biso   1.000  C
  C304     1.0000 0.47970  0.18240  0.17050  Biso   1.000  C
  O169     1.0000 0.64994  0.07405  0.80916  Biso   1.000  O
  O170     1.0000 0.35006  0.07405  0.69084  Biso   1.000  O
  O171     1.0000 0.14994  0.57405  0.80916  Biso   1.000  O
  O172     1.0000 0.85006  0.57405  0.69084  Biso   1.000  O
  O173     1.0000 0.35006  0.92595  0.19084  Biso   1.000  O
  O174     1.0000 0.64994  0.92595  0.30916  Biso   1.000  O
  O175     1.0000 0.85006  0.42595  0.19084  Biso   1.000  O
  O176     1.0000 0.14994  0.42595  0.30916  Biso   1.000  O
  O177     1.0000 0.72137  0.07380  0.87752  Biso   1.000  O
  O178     1.0000 0.27863  0.07380  0.62248  Biso   1.000  O
  O179     1.0000 0.22137  0.57380  0.87752  Biso   1.000  O
  O180     1.0000 0.77863  0.57380  0.62248  Biso   1.000  O
  O181     1.0000 0.27863  0.92620  0.12248  Biso   1.000  O
  O182     1.0000 0.72137  0.92620  0.37752  Biso   1.000  O
  O183     1.0000 0.77863  0.42620  0.12248  Biso   1.000  O
  O184     1.0000 0.22137  0.42620  0.37752  Biso   1.000  O
  O185     1.0000 0.76115  0.00644  0.84085  Biso   1.000  O
  O186     1.0000 0.23885  0.00644  0.65915  Biso   1.000  O
  O187     1.0000 0.26115  0.50644  0.84085  Biso   1.000  O
  O188     1.0000 0.73885  0.50644  0.65915  Biso   1.000  O
  O189     1.0000 0.23885  0.99356  0.15915  Biso   1.000  O
  O190     1.0000 0.76115  0.99356  0.34085  Biso   1.000  O
  O191     1.0000 0.73885  0.49356  0.15915  Biso   1.000  O
  O192     1.0000 0.26115  0.49356  0.34085  Biso   1.000  O
  H129     1.0000 0.74000  0.16590  0.83300  Biso   1.000  H
  H130     1.0000 0.26000  0.16590  0.66700  Biso   1.000  H
  H131     1.0000 0.24000  0.66590  0.83300  Biso   1.000  H
  H132     1.0000 0.76000  0.66590  0.66700  Biso   1.000  H
  H133     1.0000 0.26000  0.83410  0.16700  Biso   1.000  H
  H134     1.0000 0.74000  0.83410  0.33300  Biso   1.000  H
  H135     1.0000 0.76000  0.33410  0.16700  Biso   1.000  H
  H136     1.0000 0.24000  0.33410  0.33300  Biso   1.000  H
  C305     1.0000 0.79084  0.13890  0.82410  Biso   1.000  C
  C306     1.0000 0.20916  0.13890  0.67590  Biso   1.000  C
  C307     1.0000 0.29084  0.63890  0.82410  Biso   1.000  C
  C308     1.0000 0.70916  0.63890  0.67590  Biso   1.000  C
  C309     1.0000 0.20916  0.86110  0.17590  Biso   1.000  C
  C310     1.0000 0.79084  0.86110  0.32410  Biso   1.000  C
  C311     1.0000 0.70916  0.36110  0.17590  Biso   1.000  C
  C312     1.0000 0.29084  0.36110  0.32410  Biso   1.000  C
  C313     1.0000 0.73421  0.19860  0.77860  Biso   1.000  C
  C314     1.0000 0.26579  0.19860  0.72140  Biso   1.000  C
  C315     1.0000 0.23421  0.69860  0.77860  Biso   1.000  C
  C316     1.0000 0.76579  0.69860  0.72140  Biso   1.000  C
  C317     1.0000 0.26579  0.80140  0.22140  Biso   1.000  C
  C318     1.0000 0.73421  0.80140  0.27860  Biso   1.000  C
  C319     1.0000 0.76579  0.30140  0.22140  Biso   1.000  C
  C320     1.0000 0.23421  0.30140  0.27860  Biso   1.000  C
  H137     1.0000 0.81290  0.02830  0.74830  Biso   1.000  H
  H138     1.0000 0.18710  0.02830  0.75170  Biso   1.000  H
  H139     1.0000 0.31290  0.52830  0.74830  Biso   1.000  H
  H140     1.0000 0.68710  0.52830  0.75170  Biso   1.000  H
  H141     1.0000 0.18710  0.97170  0.25170  Biso   1.000  H
  H142     1.0000 0.81290  0.97170  0.24830  Biso   1.000  H
  H143     1.0000 0.68710  0.47170  0.25170  Biso   1.000  H
  H144     1.0000 0.31290  0.47170  0.24830  Biso   1.000  H
  C321     1.0000 0.77981  0.98680  0.69302  Biso   1.000  C
  C322     1.0000 0.22019  0.98680  0.80698  Biso   1.000  C
  C323     1.0000 0.27981  0.48680  0.69302  Biso   1.000  C
  C324     1.0000 0.72019  0.48680  0.80698  Biso   1.000  C
  C325     1.0000 0.22019  0.01320  0.30698  Biso   1.000  C
  C326     1.0000 0.77981  0.01320  0.19302  Biso   1.000  C
  C327     1.0000 0.72019  0.51320  0.30698  Biso   1.000  C
  C328     1.0000 0.27981  0.51320  0.19302  Biso   1.000  C
  C329     1.0000 0.80030  0.08530  0.70310  Biso   1.000  C
  C330     1.0000 0.19970  0.08530  0.79690  Biso   1.000  C
  C331     1.0000 0.30030  0.58530  0.70310  Biso   1.000  C
  C332     1.0000 0.69970  0.58530  0.79690  Biso   1.000  C
  C333     1.0000 0.19970  0.91470  0.29690  Biso   1.000  C
  C334     1.0000 0.80030  0.91470  0.20310  Biso   1.000  C
  C335     1.0000 0.69970  0.41470  0.29690  Biso   1.000  C
  C336     1.0000 0.30030  0.41470  0.20310  Biso   1.000  C
  H145     1.0000 0.64820  0.18030  0.66320  Biso   1.000  H
  H146     1.0000 0.35180  0.18030  0.83680  Biso   1.000  H
  H147     1.0000 0.14820  0.68030  0.66320  Biso   1.000  H
  H148     1.0000 0.85180  0.68030  0.83680  Biso   1.000  H
  H149     1.0000 0.35180  0.81970  0.33680  Biso   1.000  H
  H150     1.0000 0.64820  0.81970  0.16320  Biso   1.000  H
  H151     1.0000 0.85180  0.31970  0.33680  Biso   1.000  H
  H152     1.0000 0.14820  0.31970  0.16320  Biso   1.000  H
  C337     1.0000 0.67820  0.13360  0.63160  Biso   1.000  C
  C338     1.0000 0.32180  0.13360  0.86840  Biso   1.000  C
  C339     1.0000 0.17820  0.63360  0.63160  Biso   1.000  C
  C340     1.0000 0.82180  0.63360  0.86840  Biso   1.000  C
  C341     1.0000 0.32180  0.86640  0.36840  Biso   1.000  C
  C342     1.0000 0.67820  0.86640  0.13160  Biso   1.000  C
  C343     1.0000 0.82180  0.36640  0.36840  Biso   1.000  C
  C344     1.0000 0.17820  0.36640  0.13160  Biso   1.000  C
  C345     1.0000 0.61100  0.11010  0.64020  Biso   1.000  C
  C346     1.0000 0.38900  0.11010  0.85980  Biso   1.000  C
  C347     1.0000 0.11100  0.61010  0.64020  Biso   1.000  C
  C348     1.0000 0.88900  0.61010  0.85980  Biso   1.000  C
  C349     1.0000 0.38900  0.88990  0.35980  Biso   1.000  C
  C350     1.0000 0.61100  0.88990  0.14020  Biso   1.000  C
  C351     1.0000 0.88900  0.38990  0.35980  Biso   1.000  C
  C352     1.0000 0.11100  0.38990  0.14020  Biso   1.000  C
  C353     1.0000 0.55750  0.95780  0.74720  Biso   1.000  C
  C354     1.0000 0.44250  0.95780  0.75280  Biso   1.000  C
  C355     1.0000 0.05750  0.45780  0.74720  Biso   1.000  C
  C356     1.0000 0.94250  0.45780  0.75280  Biso   1.000  C
  C357     1.0000 0.44250  0.04220  0.25280  Biso   1.000  C
  C358     1.0000 0.55750  0.04220  0.24720  Biso   1.000  C
  C359     1.0000 0.94250  0.54220  0.25280  Biso   1.000  C
  C360     1.0000 0.05750  0.54220  0.24720  Biso   1.000  C
  C361     1.0000 0.57420  0.94950  0.68040  Biso   1.000  C
  C362     1.0000 0.42580  0.94950  0.81960  Biso   1.000  C
  C363     1.0000 0.07420  0.44950  0.68040  Biso   1.000  C
  C364     1.0000 0.92580  0.44950  0.81960  Biso   1.000  C
  C365     1.0000 0.42580  0.05050  0.31960  Biso   1.000  C
  C366     1.0000 0.57420  0.05050  0.18040  Biso   1.000  C
  C367     1.0000 0.92580  0.55050  0.31960  Biso   1.000  C
  C368     1.0000 0.07420  0.55050  0.18040  Biso   1.000  C
  C369     1.0000 0.73520  0.78750  0.81070  Biso   1.000  C
  C370     1.0000 0.26480  0.78750  0.68930  Biso   1.000  C
  C371     1.0000 0.23520  0.28750  0.81070  Biso   1.000  C
  C372     1.0000 0.76480  0.28750  0.68930  Biso   1.000  C
  C373     1.0000 0.26480  0.21250  0.18930  Biso   1.000  C
  C374     1.0000 0.73520  0.21250  0.31070  Biso   1.000  C
  C375     1.0000 0.76480  0.71250  0.18930  Biso   1.000  C
  C376     1.0000 0.23520  0.71250  0.31070  Biso   1.000  C
  C377     1.0000 0.66860  0.75810  0.76510  Biso   1.000  C
  C378     1.0000 0.33140  0.75810  0.73490  Biso   1.000  C
  C379     1.0000 0.16860  0.25810  0.76510  Biso   1.000  C
  C380     1.0000 0.83140  0.25810  0.73490  Biso   1.000  C
  C381     1.0000 0.33140  0.24190  0.23490  Biso   1.000  C
  C382     1.0000 0.66860  0.24190  0.26510  Biso   1.000  C
  C383     1.0000 0.83140  0.74190  0.23490  Biso   1.000  C
  C384     1.0000 0.16860  0.74190  0.26510  Biso   1.000  C
  C385     1.0000 0.72025  0.91090  0.89656  Biso   1.000  C
  C386     1.0000 0.27975  0.91090  0.60344  Biso   1.000  C
  C387     1.0000 0.22025  0.41090  0.89656  Biso   1.000  C
  C388     1.0000 0.77975  0.41090  0.60344  Biso   1.000  C
  C389     1.0000 0.27975  0.08910  0.10344  Biso   1.000  C
  C390     1.0000 0.72025  0.08910  0.39656  Biso   1.000  C
  C391     1.0000 0.77975  0.58910  0.10344  Biso   1.000  C
  C392     1.0000 0.22025  0.58910  0.39656  Biso   1.000  C
  C393     1.0000 0.64510  0.92230  0.86290  Biso   1.000  C
  C394     1.0000 0.35490  0.92230  0.63710  Biso   1.000  C
  C395     1.0000 0.14510  0.42230  0.86290  Biso   1.000  C
  C396     1.0000 0.85490  0.42230  0.63710  Biso   1.000  C
  C397     1.0000 0.35490  0.07770  0.13710  Biso   1.000  C
  C398     1.0000 0.64510  0.07770  0.36290  Biso   1.000  C
  C399     1.0000 0.85490  0.57770  0.13710  Biso   1.000  C
  C400     1.0000 0.14510  0.57770  0.36290  Biso   1.000  C
  C401     1.0000 0.81467  0.95262  0.83235  Biso   1.000  C
  C402     1.0000 0.18533  0.95262  0.66765  Biso   1.000  C
  C403     1.0000 0.31467  0.45262  0.83235  Biso   1.000  C
  C404     1.0000 0.68533  0.45262  0.66765  Biso   1.000  C
  C405     1.0000 0.18533  0.04738  0.16765  Biso   1.000  C
  C406     1.0000 0.81467  0.04738  0.33235  Biso   1.000  C
  C407     1.0000 0.68533  0.54738  0.16765  Biso   1.000  C
  C408     1.0000 0.31467  0.54738  0.33235  Biso   1.000  C
  C409     1.0000 0.93653  0.23011  0.45156  Biso   1.000  C
  C410     1.0000 0.06347  0.23011  0.04844  Biso   1.000  C
  C411     1.0000 0.43653  0.73011  0.45156  Biso   1.000  C
  C412     1.0000 0.56347  0.73011  0.04844  Biso   1.000  C
  C413     1.0000 0.06347  0.76989  0.54844  Biso   1.000  C
  C414     1.0000 0.93653  0.76989  0.95156  Biso   1.000  C
  C415     1.0000 0.56347  0.26989  0.54844  Biso   1.000  C
  C416     1.0000 0.43653  0.26989  0.95156  Biso   1.000  C
  O193     1.0000 0.03254  0.15117  0.65828  Biso   1.000  O
  O194     1.0000 0.96746  0.15117  0.84172  Biso   1.000  O
  O195     1.0000 0.53254  0.65117  0.65828  Biso   1.000  O
  O196     1.0000 0.46746  0.65117  0.84172  Biso   1.000  O
  O197     1.0000 0.96746  0.84883  0.34172  Biso   1.000  O
  O198     1.0000 0.03254  0.84883  0.15828  Biso   1.000  O
  O199     1.0000 0.46746  0.34883  0.34172  Biso   1.000  O
  O200     1.0000 0.53254  0.34883  0.15828  Biso   1.000  O
  O201     1.0000 0.03719  0.13635  0.57725  Biso   1.000  O
  O202     1.0000 0.96281  0.13635  0.92275  Biso   1.000  O
  O203     1.0000 0.53719  0.63635  0.57725  Biso   1.000  O
  O204     1.0000 0.46281  0.63635  0.92275  Biso   1.000  O
  O205     1.0000 0.96281  0.86365  0.42275  Biso   1.000  O
  O206     1.0000 0.03719  0.86365  0.07725  Biso   1.000  O
  O207     1.0000 0.46281  0.36365  0.42275  Biso   1.000  O
  O208     1.0000 0.53719  0.36365  0.07725  Biso   1.000  O
  H153     1.0000 0.86120  0.12160  0.61550  Biso   1.000  H
  H154     1.0000 0.13880  0.12160  0.88450  Biso   1.000  H
  H155     1.0000 0.36120  0.62160  0.61550  Biso   1.000  H
  H156     1.0000 0.63880  0.62160  0.88450  Biso   1.000  H
  H157     1.0000 0.13880  0.87840  0.38450  Biso   1.000  H
  H158     1.0000 0.86120  0.87840  0.11550  Biso   1.000  H
  H159     1.0000 0.63880  0.37840  0.38450  Biso   1.000  H
  H160     1.0000 0.36120  0.37840  0.11550  Biso   1.000  H
  C417     1.0000 0.83759  0.20070  0.61597  Biso   1.000  C
  C418     1.0000 0.16241  0.20070  0.88403  Biso   1.000  C
  C419     1.0000 0.33759  0.70070  0.61597  Biso   1.000  C
  C420     1.0000 0.66241  0.70070  0.88403  Biso   1.000  C
  C421     1.0000 0.16241  0.79930  0.38403  Biso   1.000  C
  C422     1.0000 0.83759  0.79930  0.11597  Biso   1.000  C
  C423     1.0000 0.66241  0.29930  0.38403  Biso   1.000  C
  C424     1.0000 0.33759  0.29930  0.11597  Biso   1.000  C
  C425     1.0000 0.89090  0.14840  0.67630  Biso   1.000  C
  C426     1.0000 0.10910  0.14840  0.82370  Biso   1.000  C
  C427     1.0000 0.39090  0.64840  0.67630  Biso   1.000  C
  C428     1.0000 0.60910  0.64840  0.82370  Biso   1.000  C
  C429     1.0000 0.10910  0.85160  0.32370  Biso   1.000  C
  C430     1.0000 0.89090  0.85160  0.17630  Biso   1.000  C
  C431     1.0000 0.60910  0.35160  0.32370  Biso   1.000  C
  C432     1.0000 0.39090  0.35160  0.17630  Biso   1.000  C
  C433     1.0000 0.93269  0.04103  0.60768  Biso   1.000  C
  C434     1.0000 0.06731  0.04103  0.89232  Biso   1.000  C
  C435     1.0000 0.43269  0.54103  0.60768  Biso   1.000  C
  C436     1.0000 0.56731  0.54103  0.89232  Biso   1.000  C
  C437     1.0000 0.06731  0.95897  0.39232  Biso   1.000  C
  C438     1.0000 0.93269  0.95897  0.10768  Biso   1.000  C
  C439     1.0000 0.56731  0.45897  0.39232  Biso   1.000  C
  C440     1.0000 0.43269  0.45897  0.10768  Biso   1.000  C
  H161     1.0000 0.98820  0.04780  0.60090  Biso   1.000  H
  H162     1.0000 0.01180  0.04780  0.89910  Biso   1.000  H
  H163     1.0000 0.48820  0.54780  0.60090  Biso   1.000  H
  H164     1.0000 0.51180  0.54780  0.89910  Biso   1.000  H
  H165     1.0000 0.01180  0.95220  0.39910  Biso   1.000  H
  H166     1.0000 0.98820  0.95220  0.10090  Biso   1.000  H
  H167     1.0000 0.51180  0.45220  0.39910  Biso   1.000  H
  H168     1.0000 0.48820  0.45220  0.10090  Biso   1.000  H
  C441     1.0000 0.94897  0.03740  0.54007  Biso   1.000  C
  C442     1.0000 0.05103  0.03740  0.95993  Biso   1.000  C
  C443     1.0000 0.44897  0.53740  0.54007  Biso   1.000  C
  C444     1.0000 0.55103  0.53740  0.95993  Biso   1.000  C
  C445     1.0000 0.05103  0.96260  0.45993  Biso   1.000  C
  C446     1.0000 0.94897  0.96260  0.04007  Biso   1.000  C
  C447     1.0000 0.55103  0.46260  0.45993  Biso   1.000  C
  C448     1.0000 0.44897  0.46260  0.04007  Biso   1.000  C
  H169     1.0000 0.86780  0.11540  0.47810  Biso   1.000  H
  H170     1.0000 0.13220  0.11540  0.02190  Biso   1.000  H
  H171     1.0000 0.36780  0.61540  0.47810  Biso   1.000  H
  H172     1.0000 0.63220  0.61540  0.02190  Biso   1.000  H
  H173     1.0000 0.13220  0.88460  0.52190  Biso   1.000  H
  H174     1.0000 0.86780  0.88460  0.97810  Biso   1.000  H
  H175     1.0000 0.63220  0.38460  0.52190  Biso   1.000  H
  H176     1.0000 0.36780  0.38460  0.97810  Biso   1.000  H
  C449     1.0000 0.81880  0.16812  0.47143  Biso   1.000  C
  C450     1.0000 0.18120  0.16812  0.02857  Biso   1.000  C
  C451     1.0000 0.31880  0.66812  0.47143  Biso   1.000  C
  C452     1.0000 0.68120  0.66812  0.02857  Biso   1.000  C
  C453     1.0000 0.18120  0.83188  0.52857  Biso   1.000  C
  C454     1.0000 0.81880  0.83188  0.97143  Biso   1.000  C
  C455     1.0000 0.68120  0.33188  0.52857  Biso   1.000  C
  C456     1.0000 0.31880  0.33188  0.97143  Biso   1.000  C
  C457     1.0000 0.82783  0.06319  0.49304  Biso   1.000  C
  C458     1.0000 0.17217  0.06319  0.00696  Biso   1.000  C
  C459     1.0000 0.32783  0.56319  0.49304  Biso   1.000  C
  C460     1.0000 0.67217  0.56319  0.00696  Biso   1.000  C
  C461     1.0000 0.17217  0.93681  0.50696  Biso   1.000  C
  C462     1.0000 0.82783  0.93681  0.99304  Biso   1.000  C
  C463     1.0000 0.67217  0.43681  0.50696  Biso   1.000  C
  C464     1.0000 0.32783  0.43681  0.99304  Biso   1.000  C
  H177     1.0000 0.09690  0.22770  0.63350  Biso   1.000  H
  H178     1.0000 0.90310  0.22770  0.86650  Biso   1.000  H
  H179     1.0000 0.59690  0.72770  0.63350  Biso   1.000  H
  H180     1.0000 0.40310  0.72770  0.86650  Biso   1.000  H
  H181     1.0000 0.90310  0.77230  0.36650  Biso   1.000  H
  H182     1.0000 0.09690  0.77230  0.13350  Biso   1.000  H
  H183     1.0000 0.40310  0.27230  0.36650  Biso   1.000  H
  H184     1.0000 0.59690  0.27230  0.13350  Biso   1.000  H
  C465     1.0000 0.08560  0.26080  0.56870  Biso   1.000  C
  C466     1.0000 0.91440  0.26080  0.93130  Biso   1.000  C
  C467     1.0000 0.58560  0.76080  0.56870  Biso   1.000  C
  C468     1.0000 0.41440  0.76080  0.93130  Biso   1.000  C
  C469     1.0000 0.91440  0.73920  0.43130  Biso   1.000  C
  C470     1.0000 0.08560  0.73920  0.06870  Biso   1.000  C
  C471     1.0000 0.41440  0.23920  0.43130  Biso   1.000  C
  C472     1.0000 0.58560  0.23920  0.06870  Biso   1.000  C
  C473     1.0000 0.09000  0.30990  0.64880  Biso   1.000  C
  C474     1.0000 0.91000  0.30990  0.85120  Biso   1.000  C
  C475     1.0000 0.59000  0.80990  0.64880  Biso   1.000  C
  C476     1.0000 0.41000  0.80990  0.85120  Biso   1.000  C
  C477     1.0000 0.91000  0.69010  0.35120  Biso   1.000  C
  C478     1.0000 0.09000  0.69010  0.14880  Biso   1.000  C
  C479     1.0000 0.41000  0.19010  0.35120  Biso   1.000  C
  C480     1.0000 0.59000  0.19010  0.14880  Biso   1.000  C
  H185     1.0000 0.02650  0.35420  0.51720  Biso   1.000  H
  H186     1.0000 0.97350  0.35420  0.98280  Biso   1.000  H
  H187     1.0000 0.52650  0.85420  0.51720  Biso   1.000  H
  H188     1.0000 0.47350  0.85420  0.98280  Biso   1.000  H
  H189     1.0000 0.97350  0.64580  0.48280  Biso   1.000  H
  H190     1.0000 0.02650  0.64580  0.01720  Biso   1.000  H
  H191     1.0000 0.47350  0.14580  0.48280  Biso   1.000  H
  H192     1.0000 0.52650  0.14580  0.01720  Biso   1.000  H
  C481     1.0000 0.04496  0.43094  0.54545  Biso   1.000  C
  C482     1.0000 0.95504  0.43094  0.95455  Biso   1.000  C
  C483     1.0000 0.54496  0.93094  0.54545  Biso   1.000  C
  C484     1.0000 0.45504  0.93094  0.95455  Biso   1.000  C
  C485     1.0000 0.95504  0.56906  0.45455  Biso   1.000  C
  C486     1.0000 0.04496  0.56906  0.04545  Biso   1.000  C
  C487     1.0000 0.45504  0.06906  0.45455  Biso   1.000  C
  C488     1.0000 0.54496  0.06906  0.04545  Biso   1.000  C
  C489     1.0000 0.97498  0.40344  0.49608  Biso   1.000  C
  C490     1.0000 0.02502  0.40344  0.00392  Biso   1.000  C
  C491     1.0000 0.47498  0.90344  0.49608  Biso   1.000  C
  C492     1.0000 0.52502  0.90344  0.00392  Biso   1.000  C
  C493     1.0000 0.02502  0.59656  0.50392  Biso   1.000  C
  C494     1.0000 0.97498  0.59656  0.99608  Biso   1.000  C
  C495     1.0000 0.52502  0.09656  0.50392  Biso   1.000  C
  C496     1.0000 0.47498  0.09656  0.99608  Biso   1.000  C
  C497     1.0000 0.93970  0.32660  0.66570  Biso   1.000  C
  C498     1.0000 0.06030  0.32660  0.83430  Biso   1.000  C
  C499     1.0000 0.43970  0.82660  0.66570  Biso   1.000  C
  C500     1.0000 0.56030  0.82660  0.83430  Biso   1.000  C
  C501     1.0000 0.06030  0.67340  0.33430  Biso   1.000  C
  C502     1.0000 0.93970  0.67340  0.16570  Biso   1.000  C
  C503     1.0000 0.56030  0.17340  0.33430  Biso   1.000  C
  C504     1.0000 0.43970  0.17340  0.16570  Biso   1.000  C
  C505     1.0000 0.01710  0.28190  0.70230  Biso   1.000  C
  C506     1.0000 0.98290  0.28190  0.79770  Biso   1.000  C
  C507     1.0000 0.51710  0.78190  0.70230  Biso   1.000  C
  C508     1.0000 0.48290  0.78190  0.79770  Biso   1.000  C
  C509     1.0000 0.98290  0.71810  0.29770  Biso   1.000  C
  C510     1.0000 0.01710  0.71810  0.20230  Biso   1.000  C
  C511     1.0000 0.48290  0.21810  0.29770  Biso   1.000  C
  C512     1.0000 0.51710  0.21810  0.20230  Biso   1.000  C
  C513     1.0000 0.62300  0.11450  0.81491  Biso   1.000  C
  C514     1.0000 0.37700  0.11450  0.68509  Biso   1.000  C
  C515     1.0000 0.12300  0.61450  0.81491  Biso   1.000  C
  C516     1.0000 0.87700  0.61450  0.68509  Biso   1.000  C
  C517     1.0000 0.37700  0.88550  0.18509  Biso   1.000  C
  C518     1.0000 0.62300  0.88550  0.31491  Biso   1.000  C
  C519     1.0000 0.87700  0.38550  0.18509  Biso   1.000  C
  C520     1.0000 0.12300  0.38550  0.31491  Biso   1.000  C
  C521     1.0000 0.74550  0.08000  0.92630  Biso   1.000  C
  C522     1.0000 0.25450  0.08000  0.57370  Biso   1.000  C
  C523     1.0000 0.24550  0.58000  0.92630  Biso   1.000  C
  C524     1.0000 0.75450  0.58000  0.57370  Biso   1.000  C
  C525     1.0000 0.25450  0.92000  0.07370  Biso   1.000  C
  C526     1.0000 0.74550  0.92000  0.42630  Biso   1.000  C
  C527     1.0000 0.75450  0.42000  0.07370  Biso   1.000  C
  C528     1.0000 0.24550  0.42000  0.42630  Biso   1.000  C
  H193     1.0000 0.79890  0.12020  0.85140  Biso   1.000  H
  H194     1.0000 0.20110  0.12020  0.64860  Biso   1.000  H
  H195     1.0000 0.29890  0.62020  0.85140  Biso   1.000  H
  H196     1.0000 0.70110  0.62020  0.64860  Biso   1.000  H
  H197     1.0000 0.20110  0.87980  0.14860  Biso   1.000  H
  H198     1.0000 0.79890  0.87980  0.35140  Biso   1.000  H
  H199     1.0000 0.70110  0.37980  0.14860  Biso   1.000  H
  H200     1.0000 0.29890  0.37980  0.35140  Biso   1.000  H
  H201     1.0000 0.80640  0.17380  0.82690  Biso   1.000  H
  H202     1.0000 0.19360  0.17380  0.67310  Biso   1.000  H
  H203     1.0000 0.30640  0.67380  0.82690  Biso   1.000  H
  H204     1.0000 0.69360  0.67380  0.67310  Biso   1.000  H
  H205     1.0000 0.19360  0.82620  0.17310  Biso   1.000  H
  H206     1.0000 0.80640  0.82620  0.32690  Biso   1.000  H
  H207     1.0000 0.69360  0.32620  0.17310  Biso   1.000  H
  H208     1.0000 0.30640  0.32620  0.32690  Biso   1.000  H
  H209     1.0000 0.79620  0.11370  0.80420  Biso   1.000  H
  H210     1.0000 0.20380  0.11370  0.69580  Biso   1.000  H
  H211     1.0000 0.29620  0.61370  0.80420  Biso   1.000  H
  H212     1.0000 0.70380  0.61370  0.69580  Biso   1.000  H
  H213     1.0000 0.20380  0.88630  0.19580  Biso   1.000  H
  H214     1.0000 0.79620  0.88630  0.30420  Biso   1.000  H
  H215     1.0000 0.70380  0.38630  0.19580  Biso   1.000  H
  H216     1.0000 0.29620  0.38630  0.30420  Biso   1.000  H
  H217     1.0000 0.74260  0.19020  0.75520  Biso   1.000  H
  H218     1.0000 0.25740  0.19020  0.74480  Biso   1.000  H
  H219     1.0000 0.24260  0.69020  0.75520  Biso   1.000  H
  H220     1.0000 0.75740  0.69020  0.74480  Biso   1.000  H
  H221     1.0000 0.25740  0.80980  0.24480  Biso   1.000  H
  H222     1.0000 0.74260  0.80980  0.25520  Biso   1.000  H
  H223     1.0000 0.75740  0.30980  0.24480  Biso   1.000  H
  H224     1.0000 0.24260  0.30980  0.25520  Biso   1.000  H
  H225     1.0000 0.74740  0.23340  0.79250  Biso   1.000  H
  H226     1.0000 0.25260  0.23340  0.70750  Biso   1.000  H
  H227     1.0000 0.24740  0.73340  0.79250  Biso   1.000  H
  H228     1.0000 0.75260  0.73340  0.70750  Biso   1.000  H
  H229     1.0000 0.25260  0.76660  0.20750  Biso   1.000  H
  H230     1.0000 0.74740  0.76660  0.29250  Biso   1.000  H
  H231     1.0000 0.75260  0.26660  0.20750  Biso   1.000  H
  H232     1.0000 0.24740  0.26660  0.29250  Biso   1.000  H
  H233     1.0000 0.70490  0.20340  0.76810  Biso   1.000  H
  H234     1.0000 0.29510  0.20340  0.73190  Biso   1.000  H
  H235     1.0000 0.20490  0.70340  0.76810  Biso   1.000  H
  H236     1.0000 0.79510  0.70340  0.73190  Biso   1.000  H
  H237     1.0000 0.29510  0.79660  0.23190  Biso   1.000  H
  H238     1.0000 0.70490  0.79660  0.26810  Biso   1.000  H
  H239     1.0000 0.79510  0.29660  0.23190  Biso   1.000  H
  H240     1.0000 0.20490  0.29660  0.26810  Biso   1.000  H
  H241     1.0000 0.76850  0.95660  0.70480  Biso   1.000  H
  H242     1.0000 0.23150  0.95660  0.79520  Biso   1.000  H
  H243     1.0000 0.26850  0.45660  0.70480  Biso   1.000  H
  H244     1.0000 0.73150  0.45660  0.79520  Biso   1.000  H
  H245     1.0000 0.23150  0.04340  0.29520  Biso   1.000  H
  H246     1.0000 0.76850  0.04340  0.20480  Biso   1.000  H
  H247     1.0000 0.73150  0.54340  0.29520  Biso   1.000  H
  H248     1.0000 0.26850  0.54340  0.20480  Biso   1.000  H
  H249     1.0000 0.80460  0.97340  0.69020  Biso   1.000  H
  H250     1.0000 0.19540  0.97340  0.80980  Biso   1.000  H
  H251     1.0000 0.30460  0.47340  0.69020  Biso   1.000  H
  H252     1.0000 0.69540  0.47340  0.80980  Biso   1.000  H
  H253     1.0000 0.19540  0.02660  0.30980  Biso   1.000  H
  H254     1.0000 0.80460  0.02660  0.19020  Biso   1.000  H
  H255     1.0000 0.69540  0.52660  0.30980  Biso   1.000  H
  H256     1.0000 0.30460  0.52660  0.19020  Biso   1.000  H
  H257     1.0000 0.76020  0.99760  0.66550  Biso   1.000  H
  H258     1.0000 0.23980  0.99760  0.83450  Biso   1.000  H
  H259     1.0000 0.26020  0.49760  0.66550  Biso   1.000  H
  H260     1.0000 0.73980  0.49760  0.83450  Biso   1.000  H
  H261     1.0000 0.23980  0.00240  0.33450  Biso   1.000  H
  H262     1.0000 0.76020  0.00240  0.16550  Biso   1.000  H
  H263     1.0000 0.73980  0.50240  0.33450  Biso   1.000  H
  H264     1.0000 0.26020  0.50240  0.16550  Biso   1.000  H
  H265     1.0000 0.77750  0.09580  0.67760  Biso   1.000  H
  H266     1.0000 0.22250  0.09580  0.82240  Biso   1.000  H
  H267     1.0000 0.27750  0.59580  0.67760  Biso   1.000  H
  H268     1.0000 0.72250  0.59580  0.82240  Biso   1.000  H
  H269     1.0000 0.22250  0.90420  0.32240  Biso   1.000  H
  H270     1.0000 0.77750  0.90420  0.17760  Biso   1.000  H
  H271     1.0000 0.72250  0.40420  0.32240  Biso   1.000  H
  H272     1.0000 0.27750  0.40420  0.17760  Biso   1.000  H
  H273     1.0000 0.82360  0.07550  0.69590  Biso   1.000  H
  H274     1.0000 0.17640  0.07550  0.80410  Biso   1.000  H
  H275     1.0000 0.32360  0.57550  0.69590  Biso   1.000  H
  H276     1.0000 0.67640  0.57550  0.80410  Biso   1.000  H
  H277     1.0000 0.17640  0.92450  0.30410  Biso   1.000  H
  H278     1.0000 0.82360  0.92450  0.19590  Biso   1.000  H
  H279     1.0000 0.67640  0.42450  0.30410  Biso   1.000  H
  H280     1.0000 0.32360  0.42450  0.19590  Biso   1.000  H
  H281     1.0000 0.80730  0.11720  0.72260  Biso   1.000  H
  H282     1.0000 0.19270  0.11720  0.77740  Biso   1.000  H
  H283     1.0000 0.30730  0.61720  0.72260  Biso   1.000  H
  H284     1.0000 0.69270  0.61720  0.77740  Biso   1.000  H
  H285     1.0000 0.19270  0.88280  0.27740  Biso   1.000  H
  H286     1.0000 0.80730  0.88280  0.22260  Biso   1.000  H
  H287     1.0000 0.69270  0.38280  0.27740  Biso   1.000  H
  H288     1.0000 0.30730  0.38280  0.22260  Biso   1.000  H
  H289     1.0000 0.66070  0.12450  0.60280  Biso   1.000  H
  H290     1.0000 0.33930  0.12450  0.89720  Biso   1.000  H
  H291     1.0000 0.16070  0.62450  0.60280  Biso   1.000  H
  H292     1.0000 0.83930  0.62450  0.89720  Biso   1.000  H
  H293     1.0000 0.33930  0.87550  0.39720  Biso   1.000  H
  H294     1.0000 0.66070  0.87550  0.10280  Biso   1.000  H
  H295     1.0000 0.83930  0.37550  0.39720  Biso   1.000  H
  H296     1.0000 0.16070  0.37550  0.10280  Biso   1.000  H
  H297     1.0000 0.69810  0.10340  0.64280  Biso   1.000  H
  H298     1.0000 0.30190  0.10340  0.85720  Biso   1.000  H
  H299     1.0000 0.19810  0.60340  0.64280  Biso   1.000  H
  H300     1.0000 0.80190  0.60340  0.85720  Biso   1.000  H
  H301     1.0000 0.30190  0.89660  0.35720  Biso   1.000  H
  H302     1.0000 0.69810  0.89660  0.14280  Biso   1.000  H
  H303     1.0000 0.80190  0.39660  0.35720  Biso   1.000  H
  H304     1.0000 0.19810  0.39660  0.14280  Biso   1.000  H
  H305     1.0000 0.69220  0.16930  0.63200  Biso   1.000  H
  H306     1.0000 0.30780  0.16930  0.86800  Biso   1.000  H
  H307     1.0000 0.19220  0.66930  0.63200  Biso   1.000  H
  H308     1.0000 0.80780  0.66930  0.86800  Biso   1.000  H
  H309     1.0000 0.30780  0.83070  0.36800  Biso   1.000  H
  H310     1.0000 0.69220  0.83070  0.13200  Biso   1.000  H
  H311     1.0000 0.80780  0.33070  0.36800  Biso   1.000  H
  H312     1.0000 0.19220  0.33070  0.13200  Biso   1.000  H
  H313     1.0000 0.59710  0.11310  0.65980  Biso   1.000  H
  H314     1.0000 0.40290  0.11310  0.84020  Biso   1.000  H
  H315     1.0000 0.09710  0.61310  0.65980  Biso   1.000  H
  H316     1.0000 0.90290  0.61310  0.84020  Biso   1.000  H
  H317     1.0000 0.40290  0.88690  0.34020  Biso   1.000  H
  H318     1.0000 0.59710  0.88690  0.15980  Biso   1.000  H
  H319     1.0000 0.90290  0.38690  0.34020  Biso   1.000  H
  H320     1.0000 0.09710  0.38690  0.15980  Biso   1.000  H
  H321     1.0000 0.61480  0.07020  0.63510  Biso   1.000  H
  H322     1.0000 0.38520  0.07020  0.86490  Biso   1.000  H
  H323     1.0000 0.11480  0.57020  0.63510  Biso   1.000  H
  H324     1.0000 0.88520  0.57020  0.86490  Biso   1.000  H
  H325     1.0000 0.38520  0.92980  0.36490  Biso   1.000  H
  H326     1.0000 0.61480  0.92980  0.13510  Biso   1.000  H
  H327     1.0000 0.88520  0.42980  0.36490  Biso   1.000  H
  H328     1.0000 0.11480  0.42980  0.13510  Biso   1.000  H
  H329     1.0000 0.59480  0.12840  0.61370  Biso   1.000  H
  H330     1.0000 0.40520  0.12840  0.88630  Biso   1.000  H
  H331     1.0000 0.09480  0.62840  0.61370  Biso   1.000  H
  H332     1.0000 0.90520  0.62840  0.88630  Biso   1.000  H
  H333     1.0000 0.40520  0.87160  0.38630  Biso   1.000  H
  H334     1.0000 0.59480  0.87160  0.11370  Biso   1.000  H
  H335     1.0000 0.90520  0.37160  0.38630  Biso   1.000  H
  H336     1.0000 0.09480  0.37160  0.11370  Biso   1.000  H
  H337     1.0000 0.75410  0.81740  0.81980  Biso   1.000  H
  H338     1.0000 0.24590  0.81740  0.68020  Biso   1.000  H
  H339     1.0000 0.25410  0.31740  0.81980  Biso   1.000  H
  H340     1.0000 0.74590  0.31740  0.68020  Biso   1.000  H
  H341     1.0000 0.24590  0.18260  0.18020  Biso   1.000  H
  H342     1.0000 0.75410  0.18260  0.31980  Biso   1.000  H
  H343     1.0000 0.74590  0.68260  0.18020  Biso   1.000  H
  H344     1.0000 0.25410  0.68260  0.31980  Biso   1.000  H
  H345     1.0000 0.74430  0.74950  0.81340  Biso   1.000  H
  H346     1.0000 0.25570  0.74950  0.68660  Biso   1.000  H
  H347     1.0000 0.24430  0.24950  0.81340  Biso   1.000  H
  H348     1.0000 0.75570  0.24950  0.68660  Biso   1.000  H
  H349     1.0000 0.25570  0.25050  0.18660  Biso   1.000  H
  H350     1.0000 0.74430  0.25050  0.31340  Biso   1.000  H
  H351     1.0000 0.75570  0.75050  0.18660  Biso   1.000  H
  H352     1.0000 0.24430  0.75050  0.31340  Biso   1.000  H
  H353     1.0000 0.64530  0.75140  0.77300  Biso   1.000  H
  H354     1.0000 0.35470  0.75140  0.72700  Biso   1.000  H
  H355     1.0000 0.14530  0.25140  0.77300  Biso   1.000  H
  H356     1.0000 0.85470  0.25140  0.72700  Biso   1.000  H
  H357     1.0000 0.35470  0.24860  0.22700  Biso   1.000  H
  H358     1.0000 0.64530  0.24860  0.27300  Biso   1.000  H
  H359     1.0000 0.85470  0.74860  0.22700  Biso   1.000  H
  H360     1.0000 0.14530  0.74860  0.27300  Biso   1.000  H
  H361     1.0000 0.68280  0.72240  0.76610  Biso   1.000  H
  H362     1.0000 0.31720  0.72240  0.73390  Biso   1.000  H
  H363     1.0000 0.18280  0.22240  0.76610  Biso   1.000  H
  H364     1.0000 0.81720  0.22240  0.73390  Biso   1.000  H
  H365     1.0000 0.31720  0.27760  0.23390  Biso   1.000  H
  H366     1.0000 0.68280  0.27760  0.26610  Biso   1.000  H
  H367     1.0000 0.81720  0.77760  0.23390  Biso   1.000  H
  H368     1.0000 0.18280  0.77760  0.26610  Biso   1.000  H
  H369     1.0000 0.65930  0.77330  0.73660  Biso   1.000  H
  H370     1.0000 0.34070  0.77330  0.76340  Biso   1.000  H
  H371     1.0000 0.15930  0.27330  0.73660  Biso   1.000  H
  H372     1.0000 0.84070  0.27330  0.76340  Biso   1.000  H
  H373     1.0000 0.34070  0.22670  0.26340  Biso   1.000  H
  H374     1.0000 0.65930  0.22670  0.23660  Biso   1.000  H
  H375     1.0000 0.84070  0.72670  0.26340  Biso   1.000  H
  H376     1.0000 0.15930  0.72670  0.23660  Biso   1.000  H
  H377     1.0000 0.72630  0.88100  0.88010  Biso   1.000  H
  H378     1.0000 0.27370  0.88100  0.61990  Biso   1.000  H
  H379     1.0000 0.22630  0.38100  0.88010  Biso   1.000  H
  H380     1.0000 0.77370  0.38100  0.61990  Biso   1.000  H
  H381     1.0000 0.27370  0.11900  0.11990  Biso   1.000  H
  H382     1.0000 0.72630  0.11900  0.38010  Biso   1.000  H
  H383     1.0000 0.77370  0.61900  0.11990  Biso   1.000  H
  H384     1.0000 0.22630  0.61900  0.38010  Biso   1.000  H
  H385     1.0000 0.71670  0.89420  0.92100  Biso   1.000  H
  H386     1.0000 0.28330  0.89420  0.57900  Biso   1.000  H
  H387     1.0000 0.21670  0.39420  0.92100  Biso   1.000  H
  H388     1.0000 0.78330  0.39420  0.57900  Biso   1.000  H
  H389     1.0000 0.28330  0.10580  0.07900  Biso   1.000  H
  H390     1.0000 0.71670  0.10580  0.42100  Biso   1.000  H
  H391     1.0000 0.78330  0.60580  0.07900  Biso   1.000  H
  H392     1.0000 0.21670  0.60580  0.42100  Biso   1.000  H
  H393     1.0000 0.74260  0.93800  0.90590  Biso   1.000  H
  H394     1.0000 0.25740  0.93800  0.59410  Biso   1.000  H
  H395     1.0000 0.24260  0.43800  0.90590  Biso   1.000  H
  H396     1.0000 0.75740  0.43800  0.59410  Biso   1.000  H
  H397     1.0000 0.25740  0.06200  0.09410  Biso   1.000  H
  H398     1.0000 0.74260  0.06200  0.40590  Biso   1.000  H
  H399     1.0000 0.75740  0.56200  0.09410  Biso   1.000  H
  H400     1.0000 0.24260  0.56200  0.40590  Biso   1.000  H
  H401     1.0000 0.62470  0.92570  0.83580  Biso   1.000  H
  H402     1.0000 0.37530  0.92570  0.66420  Biso   1.000  H
  H403     1.0000 0.12470  0.42570  0.83580  Biso   1.000  H
  H404     1.0000 0.87530  0.42570  0.66420  Biso   1.000  H
  H405     1.0000 0.37530  0.07430  0.16420  Biso   1.000  H
  H406     1.0000 0.62470  0.07430  0.33580  Biso   1.000  H
  H407     1.0000 0.87530  0.57430  0.16420  Biso   1.000  H
  H408     1.0000 0.12470  0.57430  0.33580  Biso   1.000  H
  H409     1.0000 0.63910  0.90580  0.88500  Biso   1.000  H
  H410     1.0000 0.36090  0.90580  0.61500  Biso   1.000  H
  H411     1.0000 0.13910  0.40580  0.88500  Biso   1.000  H
  H412     1.0000 0.86090  0.40580  0.61500  Biso   1.000  H
  H413     1.0000 0.36090  0.09420  0.11500  Biso   1.000  H
  H414     1.0000 0.63910  0.09420  0.38500  Biso   1.000  H
  H415     1.0000 0.86090  0.59420  0.11500  Biso   1.000  H
  H416     1.0000 0.13910  0.59420  0.38500  Biso   1.000  H
  C529     1.0000 0.82528  0.92581  0.80145  Biso   1.000  C
  C530     1.0000 0.17472  0.92581  0.69855  Biso   1.000  C
  C531     1.0000 0.32528  0.42581  0.80145  Biso   1.000  C
  C532     1.0000 0.67472  0.42581  0.69855  Biso   1.000  C
  C533     1.0000 0.17472  0.07419  0.19855  Biso   1.000  C
  C534     1.0000 0.82528  0.07419  0.30145  Biso   1.000  C
  C535     1.0000 0.67472  0.57419  0.19855  Biso   1.000  C
  C536     1.0000 0.32528  0.57419  0.30145  Biso   1.000  C
  C537     1.0000 0.84539  0.97114  0.86965  Biso   1.000  C
  C538     1.0000 0.15461  0.97114  0.63035  Biso   1.000  C
  C539     1.0000 0.34539  0.47114  0.86965  Biso   1.000  C
  C540     1.0000 0.65461  0.47114  0.63035  Biso   1.000  C
  C541     1.0000 0.15461  0.02886  0.13035  Biso   1.000  C
  C542     1.0000 0.84539  0.02886  0.36965  Biso   1.000  C
  C543     1.0000 0.65461  0.52886  0.13035  Biso   1.000  C
  C544     1.0000 0.34539  0.52886  0.36965  Biso   1.000  C
  C545     1.0000 0.90069  0.20513  0.42424  Biso   1.000  C
  C546     1.0000 0.09931  0.20513  0.07576  Biso   1.000  C
  C547     1.0000 0.40069  0.70513  0.42424  Biso   1.000  C
  C548     1.0000 0.59931  0.70513  0.07576  Biso   1.000  C
  C549     1.0000 0.09931  0.79487  0.57576  Biso   1.000  C
  C550     1.0000 0.90069  0.79487  0.92424  Biso   1.000  C
  C551     1.0000 0.59931  0.29487  0.57576  Biso   1.000  C
  C552     1.0000 0.40069  0.29487  0.92424  Biso   1.000  C
  C553     1.0000 0.96350  0.25460  0.43512  Biso   1.000  C
  C554     1.0000 0.03650  0.25460  0.06488  Biso   1.000  C
  C555     1.0000 0.46350  0.75460  0.43512  Biso   1.000  C
  C556     1.0000 0.53650  0.75460  0.06488  Biso   1.000  C
  C557     1.0000 0.03650  0.74540  0.56488  Biso   1.000  C
  C558     1.0000 0.96350  0.74540  0.93512  Biso   1.000  C
  C559     1.0000 0.53650  0.24540  0.56488  Biso   1.000  C
  C560     1.0000 0.46350  0.24540  0.93512  Biso   1.000  C
  C561     1.0000 0.05728  0.12110  0.69453  Biso   1.000  C
  C562     1.0000 0.94272  0.12110  0.80547  Biso   1.000  C
  C563     1.0000 0.55728  0.62110  0.69453  Biso   1.000  C
  C564     1.0000 0.44272  0.62110  0.80547  Biso   1.000  C
  C565     1.0000 0.94272  0.87890  0.30547  Biso   1.000  C
  C566     1.0000 0.05728  0.87890  0.19453  Biso   1.000  C
  C567     1.0000 0.44272  0.37890  0.30547  Biso   1.000  C
  C568     1.0000 0.55728  0.37890  0.19453  Biso   1.000  C
  C569     1.0000 0.04940  0.09180  0.54729  Biso   1.000  C
  C570     1.0000 0.95060  0.09180  0.95271  Biso   1.000  C
  C571     1.0000 0.54940  0.59180  0.54729  Biso   1.000  C
  C572     1.0000 0.45060  0.59180  0.95271  Biso   1.000  C
  C573     1.0000 0.95060  0.90820  0.45271  Biso   1.000  C
  C574     1.0000 0.04940  0.90820  0.04729  Biso   1.000  C
  C575     1.0000 0.45060  0.40820  0.45271  Biso   1.000  C
  C576     1.0000 0.54940  0.40820  0.04729  Biso   1.000  C
  H417     1.0000 0.84810  0.23840  0.62620  Biso   1.000  H
  H418     1.0000 0.15190  0.23840  0.87380  Biso   1.000  H
  H419     1.0000 0.34810  0.73840  0.62620  Biso   1.000  H
  H420     1.0000 0.65190  0.73840  0.87380  Biso   1.000  H
  H421     1.0000 0.15190  0.76160  0.37380  Biso   1.000  H
  H422     1.0000 0.84810  0.76160  0.12620  Biso   1.000  H
  H423     1.0000 0.65190  0.26160  0.37380  Biso   1.000  H
  H424     1.0000 0.34810  0.26160  0.12620  Biso   1.000  H
  H425     1.0000 0.81770  0.18970  0.62780  Biso   1.000  H
  H426     1.0000 0.18230  0.18970  0.87220  Biso   1.000  H
  H427     1.0000 0.31770  0.68970  0.62780  Biso   1.000  H
  H428     1.0000 0.68230  0.68970  0.87220  Biso   1.000  H
  H429     1.0000 0.18230  0.81030  0.37220  Biso   1.000  H
  H430     1.0000 0.81770  0.81030  0.12780  Biso   1.000  H
  H431     1.0000 0.68230  0.31030  0.37220  Biso   1.000  H
  H432     1.0000 0.31770  0.31030  0.12780  Biso   1.000  H
  H433     1.0000 0.82480  0.20140  0.58540  Biso   1.000  H
  H434     1.0000 0.17520  0.20140  0.91460  Biso   1.000  H
  H435     1.0000 0.32480  0.70140  0.58540  Biso   1.000  H
  H436     1.0000 0.67520  0.70140  0.91460  Biso   1.000  H
  H437     1.0000 0.17520  0.79860  0.41460  Biso   1.000  H
  H438     1.0000 0.82480  0.79860  0.08540  Biso   1.000  H
  H439     1.0000 0.67520  0.29860  0.41460  Biso   1.000  H
  H440     1.0000 0.32480  0.29860  0.08540  Biso   1.000  H
  H441     1.0000 0.90730  0.11400  0.68190  Biso   1.000  H
  H442     1.0000 0.09270  0.11400  0.81810  Biso   1.000  H
  H443     1.0000 0.40730  0.61400  0.68190  Biso   1.000  H
  H444     1.0000 0.59270  0.61400  0.81810  Biso   1.000  H
  H445     1.0000 0.09270  0.88600  0.31810  Biso   1.000  H
  H446     1.0000 0.90730  0.88600  0.18190  Biso   1.000  H
  H447     1.0000 0.59270  0.38600  0.31810  Biso   1.000  H
  H448     1.0000 0.40730  0.38600  0.18190  Biso   1.000  H
  H449     1.0000 0.86950  0.14410  0.68740  Biso   1.000  H
  H450     1.0000 0.13050  0.14410  0.81260  Biso   1.000  H
  H451     1.0000 0.36950  0.64410  0.68740  Biso   1.000  H
  H452     1.0000 0.63050  0.64410  0.81260  Biso   1.000  H
  H453     1.0000 0.13050  0.85590  0.31260  Biso   1.000  H
  H454     1.0000 0.86950  0.85590  0.18740  Biso   1.000  H
  H455     1.0000 0.63050  0.35590  0.31260  Biso   1.000  H
  H456     1.0000 0.36950  0.35590  0.18740  Biso   1.000  H
  H457     1.0000 0.90790  0.18060  0.68980  Biso   1.000  H
  H458     1.0000 0.09210  0.18060  0.81020  Biso   1.000  H
  H459     1.0000 0.40790  0.68060  0.68980  Biso   1.000  H
  H460     1.0000 0.59210  0.68060  0.81020  Biso   1.000  H
  H461     1.0000 0.09210  0.81940  0.31020  Biso   1.000  H
  H462     1.0000 0.90790  0.81940  0.18980  Biso   1.000  H
  H463     1.0000 0.59210  0.31940  0.31020  Biso   1.000  H
  H464     1.0000 0.40790  0.31940  0.18980  Biso   1.000  H
  H465     1.0000 0.94240  0.05790  0.63570  Biso   1.000  H
  H466     1.0000 0.05760  0.05790  0.86430  Biso   1.000  H
  H467     1.0000 0.44240  0.55790  0.63570  Biso   1.000  H
  H468     1.0000 0.55760  0.55790  0.86430  Biso   1.000  H
  H469     1.0000 0.05760  0.94210  0.36430  Biso   1.000  H
  H470     1.0000 0.94240  0.94210  0.13570  Biso   1.000  H
  H471     1.0000 0.55760  0.44210  0.36430  Biso   1.000  H
  H472     1.0000 0.44240  0.44210  0.13570  Biso   1.000  H
  H473     1.0000 0.93360  0.99980  0.61010  Biso   1.000  H
  H474     1.0000 0.06640  0.99980  0.88990  Biso   1.000  H
  H475     1.0000 0.43360  0.49980  0.61010  Biso   1.000  H
  H476     1.0000 0.56640  0.49980  0.88990  Biso   1.000  H
  H477     1.0000 0.06640  0.00020  0.38990  Biso   1.000  H
  H478     1.0000 0.93360  0.00020  0.11010  Biso   1.000  H
  H479     1.0000 0.56640  0.50020  0.38990  Biso   1.000  H
  H480     1.0000 0.43360  0.50020  0.11010  Biso   1.000  H
  H481     1.0000 0.90490  0.05310  0.59210  Biso   1.000  H
  H482     1.0000 0.09510  0.05310  0.90790  Biso   1.000  H
  H483     1.0000 0.40490  0.55310  0.59210  Biso   1.000  H
  H484     1.0000 0.59510  0.55310  0.90790  Biso   1.000  H
  H485     1.0000 0.09510  0.94690  0.40790  Biso   1.000  H
  H486     1.0000 0.90490  0.94690  0.09210  Biso   1.000  H
  H487     1.0000 0.59510  0.44690  0.40790  Biso   1.000  H
  H488     1.0000 0.40490  0.44690  0.09210  Biso   1.000  H
  H489     1.0000 0.92140  0.04880  0.52280  Biso   1.000  H
  H490     1.0000 0.07860  0.04880  0.97720  Biso   1.000  H
  H491     1.0000 0.42140  0.54880  0.52280  Biso   1.000  H
  H492     1.0000 0.57860  0.54880  0.97720  Biso   1.000  H
  H493     1.0000 0.07860  0.95120  0.47720  Biso   1.000  H
  H494     1.0000 0.92140  0.95120  0.02280  Biso   1.000  H
  H495     1.0000 0.57860  0.45120  0.47720  Biso   1.000  H
  H496     1.0000 0.42140  0.45120  0.02280  Biso   1.000  H
  H497     1.0000 0.95070  0.99610  0.54120  Biso   1.000  H
  H498     1.0000 0.04930  0.99610  0.95880  Biso   1.000  H
  H499     1.0000 0.45070  0.49610  0.54120  Biso   1.000  H
  H500     1.0000 0.54930  0.49610  0.95880  Biso   1.000  H
  H501     1.0000 0.04930  0.00390  0.45880  Biso   1.000  H
  H502     1.0000 0.95070  0.00390  0.04120  Biso   1.000  H
  H503     1.0000 0.54930  0.50390  0.45880  Biso   1.000  H
  H504     1.0000 0.45070  0.50390  0.04120  Biso   1.000  H
  H505     1.0000 0.96770  0.05230  0.52780  Biso   1.000  H
  H506     1.0000 0.03230  0.05230  0.97220  Biso   1.000  H
  H507     1.0000 0.46770  0.55230  0.52780  Biso   1.000  H
  H508     1.0000 0.53230  0.55230  0.97220  Biso   1.000  H
  H509     1.0000 0.03230  0.94770  0.47220  Biso   1.000  H
  H510     1.0000 0.96770  0.94770  0.02780  Biso   1.000  H
  H511     1.0000 0.53230  0.44770  0.47220  Biso   1.000  H
  H512     1.0000 0.46770  0.44770  0.02780  Biso   1.000  H
  H513     1.0000 0.79880  0.17160  0.48450  Biso   1.000  H
  H514     1.0000 0.20120  0.17160  0.01550  Biso   1.000  H
  H515     1.0000 0.29880  0.67160  0.48450  Biso   1.000  H
  H516     1.0000 0.70120  0.67160  0.01550  Biso   1.000  H
  H517     1.0000 0.20120  0.82840  0.51550  Biso   1.000  H
  H518     1.0000 0.79880  0.82840  0.98450  Biso   1.000  H
  H519     1.0000 0.70120  0.32840  0.51550  Biso   1.000  H
  H520     1.0000 0.29880  0.32840  0.98450  Biso   1.000  H
  H521     1.0000 0.80510  0.15900  0.44170  Biso   1.000  H
  H522     1.0000 0.19490  0.15900  0.05830  Biso   1.000  H
  H523     1.0000 0.30510  0.65900  0.44170  Biso   1.000  H
  H524     1.0000 0.69490  0.65900  0.05830  Biso   1.000  H
  H525     1.0000 0.19490  0.84100  0.55830  Biso   1.000  H
  H526     1.0000 0.80510  0.84100  0.94170  Biso   1.000  H
  H527     1.0000 0.69490  0.34100  0.55830  Biso   1.000  H
  H528     1.0000 0.30510  0.34100  0.94170  Biso   1.000  H
  H529     1.0000 0.83330  0.20390  0.47430  Biso   1.000  H
  H530     1.0000 0.16670  0.20390  0.02570  Biso   1.000  H
  H531     1.0000 0.33330  0.70390  0.47430  Biso   1.000  H
  H532     1.0000 0.66670  0.70390  0.02570  Biso   1.000  H
  H533     1.0000 0.16670  0.79610  0.52570  Biso   1.000  H
  H534     1.0000 0.83330  0.79610  0.97430  Biso   1.000  H
  H535     1.0000 0.66670  0.29610  0.52570  Biso   1.000  H
  H536     1.0000 0.33330  0.29610  0.97430  Biso   1.000  H
  H537     1.0000 0.84810  0.03450  0.50730  Biso   1.000  H
  H538     1.0000 0.15190  0.03450  0.99270  Biso   1.000  H
  H539     1.0000 0.34810  0.53450  0.50730  Biso   1.000  H
  H540     1.0000 0.65190  0.53450  0.99270  Biso   1.000  H
  H541     1.0000 0.15190  0.96550  0.49270  Biso   1.000  H
  H542     1.0000 0.84810  0.96550  0.00730  Biso   1.000  H
  H543     1.0000 0.65190  0.46550  0.49270  Biso   1.000  H
  H544     1.0000 0.34810  0.46550  0.00730  Biso   1.000  H
  H545     1.0000 0.81290  0.05150  0.46410  Biso   1.000  H
  H546     1.0000 0.18710  0.05150  0.03590  Biso   1.000  H
  H547     1.0000 0.31290  0.55150  0.46410  Biso   1.000  H
  H548     1.0000 0.68710  0.55150  0.03590  Biso   1.000  H
  H549     1.0000 0.18710  0.94850  0.53590  Biso   1.000  H
  H550     1.0000 0.81290  0.94850  0.96410  Biso   1.000  H
  H551     1.0000 0.68710  0.44850  0.53590  Biso   1.000  H
  H552     1.0000 0.31290  0.44850  0.96410  Biso   1.000  H
  H553     1.0000 0.80910  0.06740  0.50760  Biso   1.000  H
  H554     1.0000 0.19090  0.06740  0.99240  Biso   1.000  H
  H555     1.0000 0.30910  0.56740  0.50760  Biso   1.000  H
  H556     1.0000 0.69090  0.56740  0.99240  Biso   1.000  H
  H557     1.0000 0.19090  0.93260  0.49240  Biso   1.000  H
  H558     1.0000 0.80910  0.93260  0.00760  Biso   1.000  H
  H559     1.0000 0.69090  0.43260  0.49240  Biso   1.000  H
  H560     1.0000 0.30910  0.43260  0.00760  Biso   1.000  H
  H561     1.0000 0.07370  0.22580  0.55400  Biso   1.000  H
  H562     1.0000 0.92630  0.22580  0.94600  Biso   1.000  H
  H563     1.0000 0.57370  0.72580  0.55400  Biso   1.000  H
  H564     1.0000 0.42630  0.72580  0.94600  Biso   1.000  H
  H565     1.0000 0.92630  0.77420  0.44600  Biso   1.000  H
  H566     1.0000 0.07370  0.77420  0.05400  Biso   1.000  H
  H567     1.0000 0.42630  0.27420  0.44600  Biso   1.000  H
  H568     1.0000 0.57370  0.27420  0.05400  Biso   1.000  H
  H569     1.0000 0.11400  0.26280  0.57210  Biso   1.000  H
  H570     1.0000 0.88600  0.26280  0.92790  Biso   1.000  H
  H571     1.0000 0.61400  0.76280  0.57210  Biso   1.000  H
  H572     1.0000 0.38600  0.76280  0.92790  Biso   1.000  H
  H573     1.0000 0.88600  0.73720  0.42790  Biso   1.000  H
  H574     1.0000 0.11400  0.73720  0.07210  Biso   1.000  H
  H575     1.0000 0.38600  0.23720  0.42790  Biso   1.000  H
  H576     1.0000 0.61400  0.23720  0.07210  Biso   1.000  H
  H577     1.0000 0.07110  0.29330  0.55240  Biso   1.000  H
  H578     1.0000 0.92890  0.29330  0.94760  Biso   1.000  H
  H579     1.0000 0.57110  0.79330  0.55240  Biso   1.000  H
  H580     1.0000 0.42890  0.79330  0.94760  Biso   1.000  H
  H581     1.0000 0.92890  0.70670  0.44760  Biso   1.000  H
  H582     1.0000 0.07110  0.70670  0.05240  Biso   1.000  H
  H583     1.0000 0.42890  0.20670  0.44760  Biso   1.000  H
  H584     1.0000 0.57110  0.20670  0.05240  Biso   1.000  H
  H585     1.0000 0.09610  0.29480  0.67700  Biso   1.000  H
  H586     1.0000 0.90390  0.29480  0.82300  Biso   1.000  H
  H587     1.0000 0.59610  0.79480  0.67700  Biso   1.000  H
  H588     1.0000 0.40390  0.79480  0.82300  Biso   1.000  H
  H589     1.0000 0.90390  0.70520  0.32300  Biso   1.000  H
  H590     1.0000 0.09610  0.70520  0.17700  Biso   1.000  H
  H591     1.0000 0.40390  0.20520  0.32300  Biso   1.000  H
  H592     1.0000 0.59610  0.20520  0.17700  Biso   1.000  H
  H593     1.0000 0.06610  0.33410  0.64100  Biso   1.000  H
  H594     1.0000 0.93390  0.33410  0.85900  Biso   1.000  H
  H595     1.0000 0.56610  0.83410  0.64100  Biso   1.000  H
  H596     1.0000 0.43390  0.83410  0.85900  Biso   1.000  H
  H597     1.0000 0.93390  0.66590  0.35900  Biso   1.000  H
  H598     1.0000 0.06610  0.66590  0.14100  Biso   1.000  H
  H599     1.0000 0.43390  0.16590  0.35900  Biso   1.000  H
  H600     1.0000 0.56610  0.16590  0.14100  Biso   1.000  H
  H601     1.0000 0.11300  0.33210  0.64840  Biso   1.000  H
  H602     1.0000 0.88700  0.33210  0.85160  Biso   1.000  H
  H603     1.0000 0.61300  0.83210  0.64840  Biso   1.000  H
  H604     1.0000 0.38700  0.83210  0.85160  Biso   1.000  H
  H605     1.0000 0.88700  0.66790  0.35160  Biso   1.000  H
  H606     1.0000 0.11300  0.66790  0.14840  Biso   1.000  H
  H607     1.0000 0.38700  0.16790  0.35160  Biso   1.000  H
  H608     1.0000 0.61300  0.16790  0.14840  Biso   1.000  H
  H609     1.0000 0.03410  0.46030  0.55830  Biso   1.000  H
  H610     1.0000 0.96590  0.46030  0.94170  Biso   1.000  H
  H611     1.0000 0.53410  0.96030  0.55830  Biso   1.000  H
  H612     1.0000 0.46590  0.96030  0.94170  Biso   1.000  H
  H613     1.0000 0.96590  0.53970  0.44170  Biso   1.000  H
  H614     1.0000 0.03410  0.53970  0.05830  Biso   1.000  H
  H615     1.0000 0.46590  0.03970  0.44170  Biso   1.000  H
  H616     1.0000 0.53410  0.03970  0.05830  Biso   1.000  H
  H617     1.0000 0.05060  0.44720  0.52210  Biso   1.000  H
  H618     1.0000 0.94940  0.44720  0.97790  Biso   1.000  H
  H619     1.0000 0.55060  0.94720  0.52210  Biso   1.000  H
  H620     1.0000 0.44940  0.94720  0.97790  Biso   1.000  H
  H621     1.0000 0.94940  0.55280  0.47790  Biso   1.000  H
  H622     1.0000 0.05060  0.55280  0.02210  Biso   1.000  H
  H623     1.0000 0.44940  0.05280  0.47790  Biso   1.000  H
  H624     1.0000 0.55060  0.05280  0.02210  Biso   1.000  H
  H625     1.0000 0.06990  0.41590  0.56630  Biso   1.000  H
  H626     1.0000 0.93010  0.41590  0.93370  Biso   1.000  H
  H627     1.0000 0.56990  0.91590  0.56630  Biso   1.000  H
  H628     1.0000 0.43010  0.91590  0.93370  Biso   1.000  H
  H629     1.0000 0.93010  0.58410  0.43370  Biso   1.000  H
  H630     1.0000 0.06990  0.58410  0.06630  Biso   1.000  H
  H631     1.0000 0.43010  0.08410  0.43370  Biso   1.000  H
  H632     1.0000 0.56990  0.08410  0.06630  Biso   1.000  H
  H633     1.0000 0.95620  0.37160  0.48770  Biso   1.000  H
  H634     1.0000 0.04380  0.37160  0.01230  Biso   1.000  H
  H635     1.0000 0.45620  0.87160  0.48770  Biso   1.000  H
  H636     1.0000 0.54380  0.87160  0.01230  Biso   1.000  H
  H637     1.0000 0.04380  0.62840  0.51230  Biso   1.000  H
  H638     1.0000 0.95620  0.62840  0.98770  Biso   1.000  H
  H639     1.0000 0.54380  0.12840  0.51230  Biso   1.000  H
  H640     1.0000 0.45620  0.12840  0.98770  Biso   1.000  H
  H641     1.0000 0.98000  0.41750  0.47170  Biso   1.000  H
  H642     1.0000 0.02000  0.41750  0.02830  Biso   1.000  H
  H643     1.0000 0.48000  0.91750  0.47170  Biso   1.000  H
  H644     1.0000 0.52000  0.91750  0.02830  Biso   1.000  H
  H645     1.0000 0.02000  0.58250  0.52830  Biso   1.000  H
  H646     1.0000 0.98000  0.58250  0.97170  Biso   1.000  H
  H647     1.0000 0.52000  0.08250  0.52830  Biso   1.000  H
  H648     1.0000 0.48000  0.08250  0.97170  Biso   1.000  H
  H649     1.0000 0.96330  0.43370  0.50730  Biso   1.000  H
  H650     1.0000 0.03670  0.43370  0.99270  Biso   1.000  H
  H651     1.0000 0.46330  0.93370  0.50730  Biso   1.000  H
  H652     1.0000 0.53670  0.93370  0.99270  Biso   1.000  H
  H653     1.0000 0.03670  0.56630  0.49270  Biso   1.000  H
  H654     1.0000 0.96330  0.56630  0.00730  Biso   1.000  H
  H655     1.0000 0.53670  0.06630  0.49270  Biso   1.000  H
  H656     1.0000 0.46330  0.06630  0.00730  Biso   1.000  H
  H657     1.0000 0.64060  0.14590  0.83130  Biso   1.000  H
  H658     1.0000 0.35940  0.14590  0.66870  Biso   1.000  H
  H659     1.0000 0.14060  0.64590  0.83130  Biso   1.000  H
  H660     1.0000 0.85940  0.64590  0.66870  Biso   1.000  H
  H661     1.0000 0.35940  0.85410  0.16870  Biso   1.000  H
  H662     1.0000 0.64060  0.85410  0.33130  Biso   1.000  H
  H663     1.0000 0.85940  0.35410  0.16870  Biso   1.000  H
  H664     1.0000 0.14060  0.35410  0.33130  Biso   1.000  H
  C577     1.0000 0.59760  0.13970  0.77510  Biso   1.000  C
  C578     1.0000 0.40240  0.13970  0.72490  Biso   1.000  C
  C579     1.0000 0.09760  0.63970  0.77510  Biso   1.000  C
  C580     1.0000 0.90240  0.63970  0.72490  Biso   1.000  C
  C581     1.0000 0.40240  0.86030  0.22490  Biso   1.000  C
  C582     1.0000 0.59760  0.86030  0.27510  Biso   1.000  C
  C583     1.0000 0.90240  0.36030  0.22490  Biso   1.000  C
  C584     1.0000 0.09760  0.36030  0.27510  Biso   1.000  C
  C585     1.0000 0.60060  0.09240  0.84250  Biso   1.000  C
  C586     1.0000 0.39940  0.09240  0.65750  Biso   1.000  C
  C587     1.0000 0.10060  0.59240  0.84250  Biso   1.000  C
  C588     1.0000 0.89940  0.59240  0.65750  Biso   1.000  C
  C589     1.0000 0.39940  0.90760  0.15750  Biso   1.000  C
  C590     1.0000 0.60060  0.90760  0.34250  Biso   1.000  C
  C591     1.0000 0.89940  0.40760  0.15750  Biso   1.000  C
  C592     1.0000 0.10060  0.40760  0.34250  Biso   1.000  C
  H665     1.0000 0.74860  0.04310  0.94140  Biso   1.000  H
  H666     1.0000 0.25140  0.04310  0.55860  Biso   1.000  H
  H667     1.0000 0.24860  0.54310  0.94140  Biso   1.000  H
  H668     1.0000 0.75140  0.54310  0.55860  Biso   1.000  H
  H669     1.0000 0.25140  0.95690  0.05860  Biso   1.000  H
  H670     1.0000 0.74860  0.95690  0.44140  Biso   1.000  H
  H671     1.0000 0.75140  0.45690  0.05860  Biso   1.000  H
  H672     1.0000 0.24860  0.45690  0.44140  Biso   1.000  H
  C593     1.0000 0.77790  0.09800  0.92620  Biso   1.000  C
  C594     1.0000 0.22210  0.09800  0.57380  Biso   1.000  C
  C595     1.0000 0.27790  0.59800  0.92620  Biso   1.000  C
  C596     1.0000 0.72210  0.59800  0.57380  Biso   1.000  C
  C597     1.0000 0.22210  0.90200  0.07380  Biso   1.000  C
  C598     1.0000 0.77790  0.90200  0.42620  Biso   1.000  C
  C599     1.0000 0.72210  0.40200  0.07380  Biso   1.000  C
  C600     1.0000 0.27790  0.40200  0.42620  Biso   1.000  C
  C601     1.0000 0.71370  0.12130  0.93530  Biso   1.000  C
  C602     1.0000 0.28630  0.12130  0.56470  Biso   1.000  C
  C603     1.0000 0.21370  0.62130  0.93530  Biso   1.000  C
  C604     1.0000 0.78630  0.62130  0.56470  Biso   1.000  C
  C605     1.0000 0.28630  0.87870  0.06470  Biso   1.000  C
  C606     1.0000 0.71370  0.87870  0.43530  Biso   1.000  C
  C607     1.0000 0.78630  0.37870  0.06470  Biso   1.000  C
  C608     1.0000 0.21370  0.37870  0.43530  Biso   1.000  C
  H673     1.0000 0.80460  0.91200  0.77680  Biso   1.000  H
  H674     1.0000 0.19540  0.91200  0.72320  Biso   1.000  H
  H675     1.0000 0.30460  0.41200  0.77680  Biso   1.000  H
  H676     1.0000 0.69540  0.41200  0.72320  Biso   1.000  H
  H677     1.0000 0.19540  0.08800  0.22320  Biso   1.000  H
  H678     1.0000 0.80460  0.08800  0.27680  Biso   1.000  H
  H679     1.0000 0.69540  0.58800  0.22320  Biso   1.000  H
  H680     1.0000 0.30460  0.58800  0.27680  Biso   1.000  H
  C609     1.0000 0.86567  0.91910  0.80636  Biso   1.000  C
  C610     1.0000 0.13433  0.91910  0.69364  Biso   1.000  C
  C611     1.0000 0.36567  0.41910  0.80636  Biso   1.000  C
  C612     1.0000 0.63433  0.41910  0.69364  Biso   1.000  C
  C613     1.0000 0.13433  0.08090  0.19364  Biso   1.000  C
  C614     1.0000 0.86567  0.08090  0.30636  Biso   1.000  C
  C615     1.0000 0.63433  0.58090  0.19364  Biso   1.000  C
  C616     1.0000 0.36567  0.58090  0.30636  Biso   1.000  C
  H681     1.0000 0.83860  0.98980  0.89060  Biso   1.000  H
  H682     1.0000 0.16140  0.98980  0.60940  Biso   1.000  H
  H683     1.0000 0.33860  0.48980  0.89060  Biso   1.000  H
  H684     1.0000 0.66140  0.48980  0.60940  Biso   1.000  H
  H685     1.0000 0.16140  0.01020  0.10940  Biso   1.000  H
  H686     1.0000 0.83860  0.01020  0.39060  Biso   1.000  H
  H687     1.0000 0.66140  0.51020  0.10940  Biso   1.000  H
  H688     1.0000 0.33860  0.51020  0.39060  Biso   1.000  H
  C617     1.0000 0.88602  0.96188  0.87567  Biso   1.000  C
  C618     1.0000 0.11398  0.96188  0.62433  Biso   1.000  C
  C619     1.0000 0.38602  0.46188  0.87567  Biso   1.000  C
  C620     1.0000 0.61398  0.46188  0.62433  Biso   1.000  C
  C621     1.0000 0.11398  0.03812  0.12433  Biso   1.000  C
  C622     1.0000 0.88602  0.03812  0.37567  Biso   1.000  C
  C623     1.0000 0.61398  0.53812  0.12433  Biso   1.000  C
  C624     1.0000 0.38602  0.53812  0.37567  Biso   1.000  C
  C625     1.0000 0.89103  0.20473  0.38030  Biso   1.000  C
  C626     1.0000 0.10897  0.20473  0.11970  Biso   1.000  C
  C627     1.0000 0.39103  0.70473  0.38030  Biso   1.000  C
  C628     1.0000 0.60897  0.70473  0.11970  Biso   1.000  C
  C629     1.0000 0.10897  0.79527  0.61970  Biso   1.000  C
  C630     1.0000 0.89103  0.79527  0.88030  Biso   1.000  C
  C631     1.0000 0.60897  0.29527  0.61970  Biso   1.000  C
  C632     1.0000 0.39103  0.29527  0.88030  Biso   1.000  C
  H689     1.0000 0.88270  0.18830  0.43530  Biso   1.000  H
  H690     1.0000 0.11730  0.18830  0.06470  Biso   1.000  H
  H691     1.0000 0.38270  0.68830  0.43530  Biso   1.000  H
  H692     1.0000 0.61730  0.68830  0.06470  Biso   1.000  H
  H693     1.0000 0.11730  0.81170  0.56470  Biso   1.000  H
  H694     1.0000 0.88270  0.81170  0.93530  Biso   1.000  H
  H695     1.0000 0.61730  0.31170  0.56470  Biso   1.000  H
  H696     1.0000 0.38270  0.31170  0.93530  Biso   1.000  H
  H697     1.0000 0.98760  0.27190  0.45340  Biso   1.000  H
  H698     1.0000 0.01240  0.27190  0.04660  Biso   1.000  H
  H699     1.0000 0.48760  0.77190  0.45340  Biso   1.000  H
  H700     1.0000 0.51240  0.77190  0.04660  Biso   1.000  H
  H701     1.0000 0.01240  0.72810  0.54660  Biso   1.000  H
  H702     1.0000 0.98760  0.72810  0.95340  Biso   1.000  H
  H703     1.0000 0.51240  0.22810  0.54660  Biso   1.000  H
  H704     1.0000 0.48760  0.22810  0.95340  Biso   1.000  H
  C633     1.0000 0.95466  0.25339  0.39159  Biso   1.000  C
  C634     1.0000 0.04534  0.25339  0.10841  Biso   1.000  C
  C635     1.0000 0.45466  0.75339  0.39159  Biso   1.000  C
  C636     1.0000 0.54534  0.75339  0.10841  Biso   1.000  C
  C637     1.0000 0.04534  0.74661  0.60841  Biso   1.000  C
  C638     1.0000 0.95466  0.74661  0.89159  Biso   1.000  C
  C639     1.0000 0.54534  0.24661  0.60841  Biso   1.000  C
  C640     1.0000 0.45466  0.24661  0.89159  Biso   1.000  C
  C641     1.0000 0.03284  0.08920  0.71452  Biso   1.000  C
  C642     1.0000 0.96716  0.08920  0.78548  Biso   1.000  C
  C643     1.0000 0.53284  0.58920  0.71452  Biso   1.000  C
  C644     1.0000 0.46716  0.58920  0.78548  Biso   1.000  C
  C645     1.0000 0.96716  0.91080  0.28548  Biso   1.000  C
  C646     1.0000 0.03284  0.91080  0.21452  Biso   1.000  C
  C647     1.0000 0.46716  0.41080  0.28548  Biso   1.000  C
  C648     1.0000 0.53284  0.41080  0.21452  Biso   1.000  C
  C649     1.0000 0.09260  0.09690  0.69240  Biso   1.000  C
  C650     1.0000 0.90740  0.09690  0.80760  Biso   1.000  C
  C651     1.0000 0.59260  0.59690  0.69240  Biso   1.000  C
  C652     1.0000 0.40740  0.59690  0.80760  Biso   1.000  C
  C653     1.0000 0.90740  0.90310  0.30760  Biso   1.000  C
  C654     1.0000 0.09260  0.90310  0.19240  Biso   1.000  C
  C655     1.0000 0.40740  0.40310  0.30760  Biso   1.000  C
  C656     1.0000 0.59260  0.40310  0.19240  Biso   1.000  C
  C657     1.0000 0.09227  0.09680  0.56032  Biso   1.000  C
  C658     1.0000 0.90773  0.09680  0.93968  Biso   1.000  C
  C659     1.0000 0.59227  0.59680  0.56032  Biso   1.000  C
  C660     1.0000 0.40773  0.59680  0.93968  Biso   1.000  C
  C661     1.0000 0.90773  0.90320  0.43968  Biso   1.000  C
  C662     1.0000 0.09227  0.90320  0.06032  Biso   1.000  C
  C663     1.0000 0.40773  0.40320  0.43968  Biso   1.000  C
  C664     1.0000 0.59227  0.40320  0.06032  Biso   1.000  C
  H705     1.0000 0.04030  0.05230  0.54900  Biso   1.000  H
  H706     1.0000 0.95970  0.05230  0.95100  Biso   1.000  H
  H707     1.0000 0.54030  0.55230  0.54900  Biso   1.000  H
  H708     1.0000 0.45970  0.55230  0.95100  Biso   1.000  H
  H709     1.0000 0.95970  0.94770  0.45100  Biso   1.000  H
  H710     1.0000 0.04030  0.94770  0.04900  Biso   1.000  H
  H711     1.0000 0.45970  0.44770  0.45100  Biso   1.000  H
  H712     1.0000 0.54030  0.44770  0.04900  Biso   1.000  H
  C665     1.0000 0.02530  0.12030  0.50880  Biso   1.000  C
  C666     1.0000 0.97470  0.12030  0.99120  Biso   1.000  C
  C667     1.0000 0.52530  0.62030  0.50880  Biso   1.000  C
  C668     1.0000 0.47470  0.62030  0.99120  Biso   1.000  C
  C669     1.0000 0.97470  0.87970  0.49120  Biso   1.000  C
  C670     1.0000 0.02530  0.87970  0.00880  Biso   1.000  C
  C671     1.0000 0.47470  0.37970  0.49120  Biso   1.000  C
  C672     1.0000 0.52530  0.37970  0.00880  Biso   1.000  C
  H713     1.0000 0.61320  0.14390  0.75720  Biso   1.000  H
  H714     1.0000 0.38680  0.14390  0.74280  Biso   1.000  H
  H715     1.0000 0.11320  0.64390  0.75720  Biso   1.000  H
  H716     1.0000 0.88680  0.64390  0.74280  Biso   1.000  H
  H717     1.0000 0.38680  0.85610  0.24280  Biso   1.000  H
  H718     1.0000 0.61320  0.85610  0.25720  Biso   1.000  H
  H719     1.0000 0.88680  0.35610  0.24280  Biso   1.000  H
  H720     1.0000 0.11320  0.35610  0.25720  Biso   1.000  H
  H721     1.0000 0.58840  0.17690  0.78020  Biso   1.000  H
  H722     1.0000 0.41160  0.17690  0.71980  Biso   1.000  H
  H723     1.0000 0.08840  0.67690  0.78020  Biso   1.000  H
  H724     1.0000 0.91160  0.67690  0.71980  Biso   1.000  H
  H725     1.0000 0.41160  0.82310  0.21980  Biso   1.000  H
  H726     1.0000 0.58840  0.82310  0.28020  Biso   1.000  H
  H727     1.0000 0.91160  0.32310  0.21980  Biso   1.000  H
  H728     1.0000 0.08840  0.32310  0.28020  Biso   1.000  H
  H729     1.0000 0.57430  0.11540  0.76130  Biso   1.000  H
  H730     1.0000 0.42570  0.11540  0.73870  Biso   1.000  H
  H731     1.0000 0.07430  0.61540  0.76130  Biso   1.000  H
  H732     1.0000 0.92570  0.61540  0.73870  Biso   1.000  H
  H733     1.0000 0.42570  0.88460  0.23870  Biso   1.000  H
  H734     1.0000 0.57430  0.88460  0.26130  Biso   1.000  H
  H735     1.0000 0.92570  0.38460  0.23870  Biso   1.000  H
  H736     1.0000 0.07430  0.38460  0.26130  Biso   1.000  H
  H737     1.0000 0.58310  0.06080  0.82840  Biso   1.000  H
  H738     1.0000 0.41690  0.06080  0.67160  Biso   1.000  H
  H739     1.0000 0.08310  0.56080  0.82840  Biso   1.000  H
  H740     1.0000 0.91690  0.56080  0.67160  Biso   1.000  H
  H741     1.0000 0.41690  0.93920  0.17160  Biso   1.000  H
  H742     1.0000 0.58310  0.93920  0.32840  Biso   1.000  H
  H743     1.0000 0.91690  0.43920  0.17160  Biso   1.000  H
  H744     1.0000 0.08310  0.43920  0.32840  Biso   1.000  H
  H745     1.0000 0.58420  0.12280  0.84720  Biso   1.000  H
  H746     1.0000 0.41580  0.12280  0.65280  Biso   1.000  H
  H747     1.0000 0.08420  0.62280  0.84720  Biso   1.000  H
  H748     1.0000 0.91580  0.62280  0.65280  Biso   1.000  H
  H749     1.0000 0.41580  0.87720  0.15280  Biso   1.000  H
  H750     1.0000 0.58420  0.87720  0.34720  Biso   1.000  H
  H751     1.0000 0.91580  0.37720  0.15280  Biso   1.000  H
  H752     1.0000 0.08420  0.37720  0.34720  Biso   1.000  H
  H753     1.0000 0.62030  0.07970  0.86950  Biso   1.000  H
  H754     1.0000 0.37970  0.07970  0.63050  Biso   1.000  H
  H755     1.0000 0.12030  0.57970  0.86950  Biso   1.000  H
  H756     1.0000 0.87970  0.57970  0.63050  Biso   1.000  H
  H757     1.0000 0.37970  0.92030  0.13050  Biso   1.000  H
  H758     1.0000 0.62030  0.92030  0.36950  Biso   1.000  H
  H759     1.0000 0.87970  0.42030  0.13050  Biso   1.000  H
  H760     1.0000 0.12030  0.42030  0.36950  Biso   1.000  H
  H761     1.0000 0.71860  0.16030  0.92900  Biso   1.000  H
  H762     1.0000 0.28140  0.16030  0.57100  Biso   1.000  H
  H763     1.0000 0.21860  0.66030  0.92900  Biso   1.000  H
  H764     1.0000 0.78140  0.66030  0.57100  Biso   1.000  H
  H765     1.0000 0.28140  0.83970  0.07100  Biso   1.000  H
  H766     1.0000 0.71860  0.83970  0.42900  Biso   1.000  H
  H767     1.0000 0.78140  0.33970  0.07100  Biso   1.000  H
  H768     1.0000 0.21860  0.33970  0.42900  Biso   1.000  H
  H769     1.0000 0.71710  0.11840  0.96480  Biso   1.000  H
  H770     1.0000 0.28290  0.11840  0.53520  Biso   1.000  H
  H771     1.0000 0.21710  0.61840  0.96480  Biso   1.000  H
  H772     1.0000 0.78290  0.61840  0.53520  Biso   1.000  H
  H773     1.0000 0.28290  0.88160  0.03520  Biso   1.000  H
  H774     1.0000 0.71710  0.88160  0.46480  Biso   1.000  H
  H775     1.0000 0.78290  0.38160  0.03520  Biso   1.000  H
  H776     1.0000 0.21710  0.38160  0.46480  Biso   1.000  H
  H777     1.0000 0.68620  0.11030  0.91760  Biso   1.000  H
  H778     1.0000 0.31380  0.11030  0.58240  Biso   1.000  H
  H779     1.0000 0.18620  0.61030  0.91760  Biso   1.000  H
  H780     1.0000 0.81380  0.61030  0.58240  Biso   1.000  H
  H781     1.0000 0.31380  0.88970  0.08240  Biso   1.000  H
  H782     1.0000 0.68620  0.88970  0.41760  Biso   1.000  H
  H783     1.0000 0.81380  0.38970  0.08240  Biso   1.000  H
  H784     1.0000 0.18620  0.38970  0.41760  Biso   1.000  H
  C673     1.0000 0.89727  0.93636  0.84469  Biso   1.000  C
  C674     1.0000 0.10273  0.93636  0.65531  Biso   1.000  C
  C675     1.0000 0.39727  0.43636  0.84469  Biso   1.000  C
  C676     1.0000 0.60273  0.43636  0.65531  Biso   1.000  C
  C677     1.0000 0.10273  0.06364  0.15531  Biso   1.000  C
  C678     1.0000 0.89727  0.06364  0.34469  Biso   1.000  C
  C679     1.0000 0.60273  0.56364  0.15531  Biso   1.000  C
  C680     1.0000 0.39727  0.56364  0.34469  Biso   1.000  C
  H785     1.0000 0.87220  0.90320  0.78440  Biso   1.000  H
  H786     1.0000 0.12780  0.90320  0.71560  Biso   1.000  H
  H787     1.0000 0.37220  0.40320  0.78440  Biso   1.000  H
  H788     1.0000 0.62780  0.40320  0.71560  Biso   1.000  H
  H789     1.0000 0.12780  0.09680  0.21560  Biso   1.000  H
  H790     1.0000 0.87220  0.09680  0.28440  Biso   1.000  H
  H791     1.0000 0.62780  0.59680  0.21560  Biso   1.000  H
  H792     1.0000 0.37220  0.59680  0.28440  Biso   1.000  H
  H793     1.0000 0.90640  0.97310  0.90130  Biso   1.000  H
  H794     1.0000 0.09360  0.97310  0.59870  Biso   1.000  H
  H795     1.0000 0.40640  0.47310  0.90130  Biso   1.000  H
  H796     1.0000 0.59360  0.47310  0.59870  Biso   1.000  H
  H797     1.0000 0.09360  0.02690  0.09870  Biso   1.000  H
  H798     1.0000 0.90640  0.02690  0.40130  Biso   1.000  H
  H799     1.0000 0.59360  0.52690  0.09870  Biso   1.000  H
  H800     1.0000 0.40640  0.52690  0.40130  Biso   1.000  H
  H801     1.0000 0.86640  0.18860  0.36210  Biso   1.000  H
  H802     1.0000 0.13360  0.18860  0.13790  Biso   1.000  H
  H803     1.0000 0.36640  0.68860  0.36210  Biso   1.000  H
  H804     1.0000 0.63360  0.68860  0.13790  Biso   1.000  H
  H805     1.0000 0.13360  0.81140  0.63790  Biso   1.000  H
  H806     1.0000 0.86640  0.81140  0.86210  Biso   1.000  H
  H807     1.0000 0.63360  0.31140  0.63790  Biso   1.000  H
  H808     1.0000 0.36640  0.31140  0.86210  Biso   1.000  H
  C681     1.0000 0.91840  0.22857  0.36378  Biso   1.000  C
  C682     1.0000 0.08160  0.22857  0.13622  Biso   1.000  C
  C683     1.0000 0.41840  0.72857  0.36378  Biso   1.000  C
  C684     1.0000 0.58160  0.72857  0.13622  Biso   1.000  C
  C685     1.0000 0.08160  0.77143  0.63622  Biso   1.000  C
  C686     1.0000 0.91840  0.77143  0.86378  Biso   1.000  C
  C687     1.0000 0.58160  0.27143  0.63622  Biso   1.000  C
  C688     1.0000 0.41840  0.27143  0.86378  Biso   1.000  C
  H809     1.0000 0.97320  0.26930  0.38080  Biso   1.000  H
  H810     1.0000 0.02680  0.26930  0.11920  Biso   1.000  H
  H811     1.0000 0.47320  0.76930  0.38080  Biso   1.000  H
  H812     1.0000 0.52680  0.76930  0.11920  Biso   1.000  H
  H813     1.0000 0.02680  0.73070  0.61920  Biso   1.000  H
  H814     1.0000 0.97320  0.73070  0.88080  Biso   1.000  H
  H815     1.0000 0.52680  0.23070  0.61920  Biso   1.000  H
  H816     1.0000 0.47320  0.23070  0.88080  Biso   1.000  H
  H817     1.0000 0.01630  0.11570  0.72300  Biso   1.000  H
  H818     1.0000 0.98370  0.11570  0.77700  Biso   1.000  H
  H819     1.0000 0.51630  0.61570  0.72300  Biso   1.000  H
  H820     1.0000 0.48370  0.61570  0.77700  Biso   1.000  H
  H821     1.0000 0.98370  0.88430  0.27700  Biso   1.000  H
  H822     1.0000 0.01630  0.88430  0.22300  Biso   1.000  H
  H823     1.0000 0.48370  0.38430  0.27700  Biso   1.000  H
  H824     1.0000 0.51630  0.38430  0.22300  Biso   1.000  H
  H825     1.0000 0.05100  0.06890  0.73920  Biso   1.000  H
  H826     1.0000 0.94900  0.06890  0.76080  Biso   1.000  H
  H827     1.0000 0.55100  0.56890  0.73920  Biso   1.000  H
  H828     1.0000 0.44900  0.56890  0.76080  Biso   1.000  H
  H829     1.0000 0.94900  0.93110  0.26080  Biso   1.000  H
  H830     1.0000 0.05100  0.93110  0.23920  Biso   1.000  H
  H831     1.0000 0.44900  0.43110  0.26080  Biso   1.000  H
  H832     1.0000 0.55100  0.43110  0.23920  Biso   1.000  H
  H833     1.0000 0.01530  0.06210  0.69440  Biso   1.000  H
  H834     1.0000 0.98470  0.06210  0.80560  Biso   1.000  H
  H835     1.0000 0.51530  0.56210  0.69440  Biso   1.000  H
  H836     1.0000 0.48470  0.56210  0.80560  Biso   1.000  H
  H837     1.0000 0.98470  0.93790  0.30560  Biso   1.000  H
  H838     1.0000 0.01530  0.93790  0.19440  Biso   1.000  H
  H839     1.0000 0.48470  0.43790  0.30560  Biso   1.000  H
  H840     1.0000 0.51530  0.43790  0.19440  Biso   1.000  H
  H841     1.0000 0.08570  0.06190  0.67610  Biso   1.000  H
  H842     1.0000 0.91430  0.06190  0.82390  Biso   1.000  H
  H843     1.0000 0.58570  0.56190  0.67610  Biso   1.000  H
  H844     1.0000 0.41430  0.56190  0.82390  Biso   1.000  H
  H845     1.0000 0.91430  0.93810  0.32390  Biso   1.000  H
  H846     1.0000 0.08570  0.93810  0.17610  Biso   1.000  H
  H847     1.0000 0.41430  0.43810  0.32390  Biso   1.000  H
  H848     1.0000 0.58570  0.43810  0.17610  Biso   1.000  H
  H849     1.0000 0.11180  0.08880  0.72070  Biso   1.000  H
  H850     1.0000 0.88820  0.08880  0.77930  Biso   1.000  H
  H851     1.0000 0.61180  0.58880  0.72070  Biso   1.000  H
  H852     1.0000 0.38820  0.58880  0.77930  Biso   1.000  H
  H853     1.0000 0.88820  0.91120  0.27930  Biso   1.000  H
  H854     1.0000 0.11180  0.91120  0.22070  Biso   1.000  H
  H855     1.0000 0.38820  0.41120  0.27930  Biso   1.000  H
  H856     1.0000 0.61180  0.41120  0.22070  Biso   1.000  H
  H857     1.0000 0.10480  0.12350  0.67870  Biso   1.000  H
  H858     1.0000 0.89520  0.12350  0.82130  Biso   1.000  H
  H859     1.0000 0.60480  0.62350  0.67870  Biso   1.000  H
  H860     1.0000 0.39520  0.62350  0.82130  Biso   1.000  H
  H861     1.0000 0.89520  0.87650  0.32130  Biso   1.000  H
  H862     1.0000 0.10480  0.87650  0.17870  Biso   1.000  H
  H863     1.0000 0.39520  0.37650  0.32130  Biso   1.000  H
  H864     1.0000 0.60480  0.37650  0.17870  Biso   1.000  H
  H865     1.0000 0.09950  0.13660  0.55990  Biso   1.000  H
  H866     1.0000 0.90050  0.13660  0.94010  Biso   1.000  H
  H867     1.0000 0.59950  0.63660  0.55990  Biso   1.000  H
  H868     1.0000 0.40050  0.63660  0.94010  Biso   1.000  H
  H869     1.0000 0.90050  0.86340  0.44010  Biso   1.000  H
  H870     1.0000 0.09950  0.86340  0.05990  Biso   1.000  H
  H871     1.0000 0.40050  0.36340  0.44010  Biso   1.000  H
  H872     1.0000 0.59950  0.36340  0.05990  Biso   1.000  H
  H873     1.0000 0.10140  0.07520  0.54120  Biso   1.000  H
  H874     1.0000 0.89860  0.07520  0.95880  Biso   1.000  H
  H875     1.0000 0.60140  0.57520  0.54120  Biso   1.000  H
  H876     1.0000 0.39860  0.57520  0.95880  Biso   1.000  H
  H877     1.0000 0.89860  0.92480  0.45880  Biso   1.000  H
  H878     1.0000 0.10140  0.92480  0.04120  Biso   1.000  H
  H879     1.0000 0.39860  0.42480  0.45880  Biso   1.000  H
  H880     1.0000 0.60140  0.42480  0.04120  Biso   1.000  H
  H881     1.0000 0.10520  0.08190  0.58880  Biso   1.000  H
  H882     1.0000 0.89480  0.08190  0.91120  Biso   1.000  H
  H883     1.0000 0.60520  0.58190  0.58880  Biso   1.000  H
  H884     1.0000 0.39480  0.58190  0.91120  Biso   1.000  H
  H885     1.0000 0.89480  0.91810  0.41120  Biso   1.000  H
  H886     1.0000 0.10520  0.91810  0.08880  Biso   1.000  H
  H887     1.0000 0.39480  0.41810  0.41120  Biso   1.000  H
  H888     1.0000 0.60520  0.41810  0.08880  Biso   1.000  H
  H889     1.0000 0.99670  0.11810  0.50500  Biso   1.000  H
  H890     1.0000 0.00330  0.11810  0.99500  Biso   1.000  H
  H891     1.0000 0.49670  0.61810  0.50500  Biso   1.000  H
  H892     1.0000 0.50330  0.61810  0.99500  Biso   1.000  H
  H893     1.0000 0.00330  0.88190  0.49500  Biso   1.000  H
  H894     1.0000 0.99670  0.88190  0.00500  Biso   1.000  H
  H895     1.0000 0.50330  0.38190  0.49500  Biso   1.000  H
  H896     1.0000 0.49670  0.38190  0.00500  Biso   1.000  H
  H897     1.0000 0.02930  0.10210  0.48510  Biso   1.000  H
  H898     1.0000 0.97070  0.10210  0.01490  Biso   1.000  H
  H899     1.0000 0.52930  0.60210  0.48510  Biso   1.000  H
  H900     1.0000 0.47070  0.60210  0.01490  Biso   1.000  H
  H901     1.0000 0.97070  0.89790  0.51490  Biso   1.000  H
  H902     1.0000 0.02930  0.89790  0.98510  Biso   1.000  H
  H903     1.0000 0.47070  0.39790  0.51490  Biso   1.000  H
  H904     1.0000 0.52930  0.39790  0.98510  Biso   1.000  H
  H905     1.0000 0.03350  0.16000  0.51040  Biso   1.000  H
  H906     1.0000 0.96650  0.16000  0.98960  Biso   1.000  H
  H907     1.0000 0.53350  0.66000  0.51040  Biso   1.000  H
  H908     1.0000 0.46650  0.66000  0.98960  Biso   1.000  H
  H909     1.0000 0.96650  0.84000  0.48960  Biso   1.000  H
  H910     1.0000 0.03350  0.84000  0.01040  Biso   1.000  H
  H911     1.0000 0.46650  0.34000  0.48960  Biso   1.000  H
  H912     1.0000 0.53350  0.34000  0.01040  Biso   1.000  H
  C689     1.0000 0.94081  0.92638  0.85063  Biso   1.000  C
  C690     1.0000 0.05919  0.92638  0.64937  Biso   1.000  C
  C691     1.0000 0.44081  0.42638  0.85063  Biso   1.000  C
  C692     1.0000 0.55919  0.42638  0.64937  Biso   1.000  C
  C693     1.0000 0.05919  0.07362  0.14937  Biso   1.000  C
  C694     1.0000 0.94081  0.07362  0.35063  Biso   1.000  C
  C695     1.0000 0.55919  0.57362  0.14937  Biso   1.000  C
  C696     1.0000 0.44081  0.57362  0.35063  Biso   1.000  C
  C697     1.0000 0.90964  0.22425  0.31729  Biso   1.000  C
  C698     1.0000 0.09036  0.22425  0.18271  Biso   1.000  C
  C699     1.0000 0.40964  0.72425  0.31729  Biso   1.000  C
  C700     1.0000 0.59036  0.72425  0.18271  Biso   1.000  C
  C701     1.0000 0.09036  0.77575  0.68271  Biso   1.000  C
  C702     1.0000 0.90964  0.77575  0.81729  Biso   1.000  C
  C703     1.0000 0.59036  0.27575  0.68271  Biso   1.000  C
  C704     1.0000 0.40964  0.27575  0.81729  Biso   1.000  C
  C705     1.0000 0.96852  0.90470  0.88906  Biso   1.000  C
  C706     1.0000 0.03148  0.90470  0.61094  Biso   1.000  C
  C707     1.0000 0.46852  0.40470  0.88906  Biso   1.000  C
  C708     1.0000 0.53148  0.40470  0.61094  Biso   1.000  C
  C709     1.0000 0.03148  0.09530  0.11094  Biso   1.000  C
  C710     1.0000 0.96852  0.09530  0.38906  Biso   1.000  C
  C711     1.0000 0.53148  0.59530  0.11094  Biso   1.000  C
  C712     1.0000 0.46852  0.59530  0.38906  Biso   1.000  C
  C713     1.0000 0.95473  0.93495  0.81830  Biso   1.000  C
  C714     1.0000 0.04527  0.93495  0.68170  Biso   1.000  C
  C715     1.0000 0.45473  0.43495  0.81830  Biso   1.000  C
  C716     1.0000 0.54527  0.43495  0.68170  Biso   1.000  C
  C717     1.0000 0.04527  0.06505  0.18170  Biso   1.000  C
  C718     1.0000 0.95473  0.06505  0.31830  Biso   1.000  C
  C719     1.0000 0.54527  0.56505  0.18170  Biso   1.000  C
  C720     1.0000 0.45473  0.56505  0.31830  Biso   1.000  C
  C721     1.0000 0.86983  0.22466  0.28737  Biso   1.000  C
  C722     1.0000 0.13017  0.22466  0.21263  Biso   1.000  C
  C723     1.0000 0.36983  0.72466  0.28737  Biso   1.000  C
  C724     1.0000 0.63017  0.72466  0.21263  Biso   1.000  C
  C725     1.0000 0.13017  0.77534  0.71263  Biso   1.000  C
  C726     1.0000 0.86983  0.77534  0.78737  Biso   1.000  C
  C727     1.0000 0.63017  0.27534  0.71263  Biso   1.000  C
  C728     1.0000 0.36983  0.27534  0.78737  Biso   1.000  C
  C729     1.0000 0.94091  0.21667  0.30225  Biso   1.000  C
  C730     1.0000 0.05909  0.21667  0.19775  Biso   1.000  C
  C731     1.0000 0.44091  0.71667  0.30225  Biso   1.000  C
  C732     1.0000 0.55909  0.71667  0.19775  Biso   1.000  C
  C733     1.0000 0.05909  0.78333  0.69775  Biso   1.000  C
  C734     1.0000 0.94091  0.78333  0.80225  Biso   1.000  C
  C735     1.0000 0.55909  0.28333  0.69775  Biso   1.000  C
  C736     1.0000 0.44091  0.28333  0.80225  Biso   1.000  C
  C737     1.0000 0.00789  0.89270  0.89276  Biso   1.000  C
  C738     1.0000 0.99211  0.89270  0.60724  Biso   1.000  C
  C739     1.0000 0.50789  0.39270  0.89276  Biso   1.000  C
  C740     1.0000 0.49211  0.39270  0.60724  Biso   1.000  C
  C741     1.0000 0.99211  0.10730  0.10724  Biso   1.000  C
  C742     1.0000 0.00789  0.10730  0.39276  Biso   1.000  C
  C743     1.0000 0.49211  0.60730  0.10724  Biso   1.000  C
  C744     1.0000 0.50789  0.60730  0.39276  Biso   1.000  C
  H913     1.0000 0.96030  0.89840  0.91190  Biso   1.000  H
  H914     1.0000 0.03970  0.89840  0.58810  Biso   1.000  H
  H915     1.0000 0.46030  0.39840  0.91190  Biso   1.000  H
  H916     1.0000 0.53970  0.39840  0.58810  Biso   1.000  H
  H917     1.0000 0.03970  0.10160  0.08810  Biso   1.000  H
  H918     1.0000 0.96030  0.10160  0.41190  Biso   1.000  H
  H919     1.0000 0.53970  0.60160  0.08810  Biso   1.000  H
  H920     1.0000 0.46030  0.60160  0.41190  Biso   1.000  H
  C745     1.0000 0.99509  0.92271  0.82531  Biso   1.000  C
  C746     1.0000 0.00491  0.92271  0.67469  Biso   1.000  C
  C747     1.0000 0.49509  0.42271  0.82531  Biso   1.000  C
  C748     1.0000 0.50491  0.42271  0.67469  Biso   1.000  C
  C749     1.0000 0.00491  0.07729  0.17469  Biso   1.000  C
  C750     1.0000 0.99509  0.07729  0.32531  Biso   1.000  C
  C751     1.0000 0.50491  0.57729  0.17469  Biso   1.000  C
  C752     1.0000 0.49509  0.57729  0.32531  Biso   1.000  C
  H921     1.0000 0.93710  0.94890  0.79190  Biso   1.000  H
  H922     1.0000 0.06290  0.94890  0.70810  Biso   1.000  H
  H923     1.0000 0.43710  0.44890  0.79190  Biso   1.000  H
  H924     1.0000 0.56290  0.44890  0.70810  Biso   1.000  H
  H925     1.0000 0.06290  0.05110  0.20810  Biso   1.000  H
  H926     1.0000 0.93710  0.05110  0.29190  Biso   1.000  H
  H927     1.0000 0.56290  0.55110  0.20810  Biso   1.000  H
  H928     1.0000 0.43710  0.55110  0.29190  Biso   1.000  H
  C753     1.0000 0.86289  0.21508  0.24466  Biso   1.000  C
  C754     1.0000 0.13711  0.21508  0.25534  Biso   1.000  C
  C755     1.0000 0.36289  0.71508  0.24466  Biso   1.000  C
  C756     1.0000 0.63711  0.71508  0.25534  Biso   1.000  C
  C757     1.0000 0.13711  0.78492  0.75534  Biso   1.000  C
  C758     1.0000 0.86289  0.78492  0.74466  Biso   1.000  C
  C759     1.0000 0.63711  0.28492  0.75534  Biso   1.000  C
  C760     1.0000 0.36289  0.28492  0.74466  Biso   1.000  C
  H929     1.0000 0.84780  0.23130  0.29580  Biso   1.000  H
  H930     1.0000 0.15220  0.23130  0.20420  Biso   1.000  H
  H931     1.0000 0.34780  0.73130  0.29580  Biso   1.000  H
  H932     1.0000 0.65220  0.73130  0.20420  Biso   1.000  H
  H933     1.0000 0.15220  0.76870  0.70420  Biso   1.000  H
  H934     1.0000 0.84780  0.76870  0.79580  Biso   1.000  H
  H935     1.0000 0.65220  0.26870  0.70420  Biso   1.000  H
  H936     1.0000 0.34780  0.26870  0.79580  Biso   1.000  H
  C761     1.0000 0.93134  0.20810  0.25956  Biso   1.000  C
  C762     1.0000 0.06866  0.20810  0.24044  Biso   1.000  C
  C763     1.0000 0.43134  0.70810  0.25956  Biso   1.000  C
  C764     1.0000 0.56866  0.70810  0.24044  Biso   1.000  C
  C765     1.0000 0.06866  0.79190  0.74044  Biso   1.000  C
  C766     1.0000 0.93134  0.79190  0.75956  Biso   1.000  C
  C767     1.0000 0.56866  0.29190  0.74044  Biso   1.000  C
  C768     1.0000 0.43134  0.29190  0.75956  Biso   1.000  C
  H937     1.0000 0.96830  0.21740  0.32100  Biso   1.000  H
  H938     1.0000 0.03170  0.21740  0.17900  Biso   1.000  H
  H939     1.0000 0.46830  0.71740  0.32100  Biso   1.000  H
  H940     1.0000 0.53170  0.71740  0.17900  Biso   1.000  H
  H941     1.0000 0.03170  0.78260  0.67900  Biso   1.000  H
  H942     1.0000 0.96830  0.78260  0.82100  Biso   1.000  H
  H943     1.0000 0.53170  0.28260  0.67900  Biso   1.000  H
  H944     1.0000 0.46830  0.28260  0.82100  Biso   1.000  H
  H945     1.0000 0.02590  0.87750  0.91850  Biso   1.000  H
  H946     1.0000 0.97410  0.87750  0.58150  Biso   1.000  H
  H947     1.0000 0.52590  0.37750  0.91850  Biso   1.000  H
  H948     1.0000 0.47410  0.37750  0.58150  Biso   1.000  H
  H949     1.0000 0.97410  0.12250  0.08150  Biso   1.000  H
  H950     1.0000 0.02590  0.12250  0.41850  Biso   1.000  H
  H951     1.0000 0.47410  0.62250  0.08150  Biso   1.000  H
  H952     1.0000 0.52590  0.62250  0.41850  Biso   1.000  H
  H953     1.0000 0.00420  0.92970  0.80320  Biso   1.000  H
  H954     1.0000 0.99580  0.92970  0.69680  Biso   1.000  H
  H955     1.0000 0.50420  0.42970  0.80320  Biso   1.000  H
  H956     1.0000 0.49580  0.42970  0.69680  Biso   1.000  H
  H957     1.0000 0.99580  0.07030  0.19680  Biso   1.000  H
  H958     1.0000 0.00420  0.07030  0.30320  Biso   1.000  H
  H959     1.0000 0.49580  0.57030  0.19680  Biso   1.000  H
  H960     1.0000 0.50420  0.57030  0.30320  Biso   1.000  H
  H961     1.0000 0.83590  0.21400  0.22510  Biso   1.000  H
  H962     1.0000 0.16410  0.21400  0.27490  Biso   1.000  H
  H963     1.0000 0.33590  0.71400  0.22510  Biso   1.000  H
  H964     1.0000 0.66410  0.71400  0.27490  Biso   1.000  H
  H965     1.0000 0.16410  0.78600  0.77490  Biso   1.000  H
  H966     1.0000 0.83590  0.78600  0.72510  Biso   1.000  H
  H967     1.0000 0.66410  0.28600  0.77490  Biso   1.000  H
  H968     1.0000 0.33590  0.28600  0.72510  Biso   1.000  H
  H969     1.0000 0.95300  0.20240  0.25030  Biso   1.000  H
  H970     1.0000 0.04700  0.20240  0.24970  Biso   1.000  H
  H971     1.0000 0.45300  0.70240  0.25030  Biso   1.000  H
  H972     1.0000 0.54700  0.70240  0.24970  Biso   1.000  H
  H973     1.0000 0.04700  0.79760  0.74970  Biso   1.000  H
  H974     1.0000 0.95300  0.79760  0.75030  Biso   1.000  H
  H975     1.0000 0.54700  0.29760  0.74970  Biso   1.000  H
  H976     1.0000 0.45300  0.29760  0.75030  Biso   1.000  H
  N33      1.0000 0.92180  0.53530  0.54450  Biso   1.000  N
  N34      1.0000 0.07820  0.53530  0.95550  Biso   1.000  N
  N35      1.0000 0.42180  0.03530  0.54450  Biso   1.000  N
  N36      1.0000 0.57820  0.03530  0.95550  Biso   1.000  N
  N37      1.0000 0.07820  0.46470  0.45550  Biso   1.000  N
  N38      1.0000 0.92180  0.46470  0.04450  Biso   1.000  N
  N39      1.0000 0.57820  0.96470  0.45550  Biso   1.000  N
  N40      1.0000 0.42180  0.96470  0.04450  Biso   1.000  N
  C769     1.0000 0.95858  0.47170  0.60761  Biso   1.000  C
  C770     1.0000 0.04142  0.47170  0.89239  Biso   1.000  C
  C771     1.0000 0.45858  0.97170  0.60761  Biso   1.000  C
  C772     1.0000 0.54142  0.97170  0.89239  Biso   1.000  C
  C773     1.0000 0.04142  0.52830  0.39239  Biso   1.000  C
  C774     1.0000 0.95858  0.52830  0.10761  Biso   1.000  C
  C775     1.0000 0.54142  0.02830  0.39239  Biso   1.000  C
  C776     1.0000 0.45858  0.02830  0.10761  Biso   1.000  C
  H977     1.0000 0.98050  0.45160  0.60290  Biso   1.000  H
  H978     1.0000 0.01950  0.45160  0.89710  Biso   1.000  H
  H979     1.0000 0.48050  0.95160  0.60290  Biso   1.000  H
  H980     1.0000 0.51950  0.95160  0.89710  Biso   1.000  H
  H981     1.0000 0.01950  0.54840  0.39710  Biso   1.000  H
  H982     1.0000 0.98050  0.54840  0.10290  Biso   1.000  H
  H983     1.0000 0.51950  0.04840  0.39710  Biso   1.000  H
  H984     1.0000 0.48050  0.04840  0.10290  Biso   1.000  H
  H985     1.0000 0.93900  0.44430  0.61000  Biso   1.000  H
  H986     1.0000 0.06100  0.44430  0.89000  Biso   1.000  H
  H987     1.0000 0.43900  0.94430  0.61000  Biso   1.000  H
  H988     1.0000 0.56100  0.94430  0.89000  Biso   1.000  H
  H989     1.0000 0.06100  0.55570  0.39000  Biso   1.000  H
  H990     1.0000 0.93900  0.55570  0.11000  Biso   1.000  H
  H991     1.0000 0.56100  0.05570  0.39000  Biso   1.000  H
  H992     1.0000 0.43900  0.05570  0.11000  Biso   1.000  H
  H993     1.0000 0.96960  0.49380  0.63350  Biso   1.000  H
  H994     1.0000 0.03040  0.49380  0.86650  Biso   1.000  H
  H995     1.0000 0.46960  0.99380  0.63350  Biso   1.000  H
  H996     1.0000 0.53040  0.99380  0.86650  Biso   1.000  H
  H997     1.0000 0.03040  0.50620  0.36650  Biso   1.000  H
  H998     1.0000 0.96960  0.50620  0.13350  Biso   1.000  H
  H999     1.0000 0.53040  0.00620  0.36650  Biso   1.000  H
  H1000    1.0000 0.46960  0.00620  0.13350  Biso   1.000  H
  C777     1.0000 0.93923  0.50840  0.57350  Biso   1.000  C
  C778     1.0000 0.06077  0.50840  0.92650  Biso   1.000  C
  C779     1.0000 0.43923  0.00840  0.57350  Biso   1.000  C
  C780     1.0000 0.56077  0.00840  0.92650  Biso   1.000  C
  C781     1.0000 0.06077  0.49160  0.42650  Biso   1.000  C
  C782     1.0000 0.93923  0.49160  0.07350  Biso   1.000  C
  C783     1.0000 0.56077  0.99160  0.42650  Biso   1.000  C
  C784     1.0000 0.43923  0.99160  0.07350  Biso   1.000  C
  C785     1.0000 0.63640  0.02323  0.73701  Biso   1.000  C
  C786     1.0000 0.36360  0.02323  0.76299  Biso   1.000  C
  C787     1.0000 0.13640  0.52323  0.73701  Biso   1.000  C
  C788     1.0000 0.86360  0.52323  0.76299  Biso   1.000  C
  C789     1.0000 0.36360  0.97677  0.26299  Biso   1.000  C
  C790     1.0000 0.63640  0.97677  0.23701  Biso   1.000  C
  C791     1.0000 0.86360  0.47677  0.26299  Biso   1.000  C
  C792     1.0000 0.13640  0.47677  0.23701  Biso   1.000  C
