data_image0
_cell_length_a       22.495
_cell_length_b       32.298
_cell_length_c       57.95
_cell_angle_alpha    90
_cell_angle_beta     90
_cell_angle_gamma    90

_symmetry_space_group_name_H-M    "P 1"
_symmetry_int_tables_number       1

loop_
  _symmetry_equiv_pos_as_xyz
  'x, y, z'

loop_
  _atom_site_label
  _atom_site_occupancy
  _atom_site_fract_x
  _atom_site_fract_y
  _atom_site_fract_z
  _atom_site_thermal_displace_type
  _atom_site_B_iso_or_equiv
  _atom_site_type_symbol
  Ti1      1.0000 0.45881  0.29273  0.04115  Biso   1.000  Ti
  Ti2      1.0000 0.79119  0.95727  0.04115  Biso   1.000  Ti
  Ti3      1.0000 0.45881  0.95727  0.20885  Biso   1.000  Ti
  Ti4      1.0000 0.79119  0.29273  0.20885  Biso   1.000  Ti
  Ti5      1.0000 0.45881  0.79273  0.54115  Biso   1.000  Ti
  Ti6      1.0000 0.79119  0.45727  0.54115  Biso   1.000  Ti
  Ti7      1.0000 0.45881  0.45727  0.70885  Biso   1.000  Ti
  Ti8      1.0000 0.79119  0.79273  0.70885  Biso   1.000  Ti
  Ti9      1.0000 0.95881  0.29273  0.54115  Biso   1.000  Ti
  Ti10     1.0000 0.29119  0.95727  0.54115  Biso   1.000  Ti
  Ti11     1.0000 0.95881  0.95727  0.70885  Biso   1.000  Ti
  Ti12     1.0000 0.29119  0.29273  0.70885  Biso   1.000  Ti
  Ti13     1.0000 0.95881  0.79273  0.04115  Biso   1.000  Ti
  Ti14     1.0000 0.29119  0.45727  0.04115  Biso   1.000  Ti
  Ti15     1.0000 0.95881  0.45727  0.20885  Biso   1.000  Ti
  Ti16     1.0000 0.29119  0.79273  0.20885  Biso   1.000  Ti
  Ti17     1.0000 0.54119  0.70727  0.95885  Biso   1.000  Ti
  Ti18     1.0000 0.70881  0.54273  0.95885  Biso   1.000  Ti
  Ti19     1.0000 0.54119  0.54273  0.29115  Biso   1.000  Ti
  Ti20     1.0000 0.70881  0.70727  0.29115  Biso   1.000  Ti
  Ti21     1.0000 0.54119  0.20727  0.45885  Biso   1.000  Ti
  Ti22     1.0000 0.70881  0.04273  0.45885  Biso   1.000  Ti
  Ti23     1.0000 0.54119  0.04273  0.79115  Biso   1.000  Ti
  Ti24     1.0000 0.70881  0.20727  0.79115  Biso   1.000  Ti
  Ti25     1.0000 0.04119  0.70727  0.45885  Biso   1.000  Ti
  Ti26     1.0000 0.20881  0.54273  0.45885  Biso   1.000  Ti
  Ti27     1.0000 0.04119  0.54273  0.79115  Biso   1.000  Ti
  Ti28     1.0000 0.20881  0.70727  0.79115  Biso   1.000  Ti
  Ti29     1.0000 0.04119  0.20727  0.95885  Biso   1.000  Ti
  Ti30     1.0000 0.20881  0.04273  0.95885  Biso   1.000  Ti
  Ti31     1.0000 0.04119  0.04273  0.29115  Biso   1.000  Ti
  Ti32     1.0000 0.20881  0.20727  0.29115  Biso   1.000  Ti
  Ti33     1.0000 0.32167  0.35138  0.03153  Biso   1.000  Ti
  Ti34     1.0000 0.92833  0.89862  0.03153  Biso   1.000  Ti
  Ti35     1.0000 0.32167  0.89862  0.21847  Biso   1.000  Ti
  Ti36     1.0000 0.92833  0.35138  0.21847  Biso   1.000  Ti
  Ti37     1.0000 0.32167  0.85138  0.53153  Biso   1.000  Ti
  Ti38     1.0000 0.92833  0.39862  0.53153  Biso   1.000  Ti
  Ti39     1.0000 0.32167  0.39862  0.71847  Biso   1.000  Ti
  Ti40     1.0000 0.92833  0.85138  0.71847  Biso   1.000  Ti
  Ti41     1.0000 0.82167  0.35138  0.53153  Biso   1.000  Ti
  Ti42     1.0000 0.42833  0.89862  0.53153  Biso   1.000  Ti
  Ti43     1.0000 0.82167  0.89862  0.71847  Biso   1.000  Ti
  Ti44     1.0000 0.42833  0.35138  0.71847  Biso   1.000  Ti
  Ti45     1.0000 0.82167  0.85138  0.03153  Biso   1.000  Ti
  Ti46     1.0000 0.42833  0.39862  0.03153  Biso   1.000  Ti
  Ti47     1.0000 0.82167  0.39862  0.21847  Biso   1.000  Ti
  Ti48     1.0000 0.42833  0.85138  0.21847  Biso   1.000  Ti
  Ti49     1.0000 0.67833  0.64862  0.96847  Biso   1.000  Ti
  Ti50     1.0000 0.57167  0.60138  0.96847  Biso   1.000  Ti
  Ti51     1.0000 0.67833  0.60138  0.28153  Biso   1.000  Ti
  Ti52     1.0000 0.57167  0.64862  0.28153  Biso   1.000  Ti
  Ti53     1.0000 0.67833  0.14862  0.46847  Biso   1.000  Ti
  Ti54     1.0000 0.57167  0.10138  0.46847  Biso   1.000  Ti
  Ti55     1.0000 0.67833  0.10138  0.78153  Biso   1.000  Ti
  Ti56     1.0000 0.57167  0.14862  0.78153  Biso   1.000  Ti
  Ti57     1.0000 0.17833  0.64862  0.46847  Biso   1.000  Ti
  Ti58     1.0000 0.07167  0.60138  0.46847  Biso   1.000  Ti
  Ti59     1.0000 0.17833  0.60138  0.78153  Biso   1.000  Ti
  Ti60     1.0000 0.07167  0.64862  0.78153  Biso   1.000  Ti
  Ti61     1.0000 0.17833  0.14862  0.96847  Biso   1.000  Ti
  Ti62     1.0000 0.07167  0.10138  0.96847  Biso   1.000  Ti
  Ti63     1.0000 0.17833  0.10138  0.28153  Biso   1.000  Ti
  Ti64     1.0000 0.07167  0.14862  0.28153  Biso   1.000  Ti
  Cu1      1.0000 0.16430  0.15362  0.10913  Biso   1.000  Cu
  Cu2      1.0000 0.08570  0.09638  0.10913  Biso   1.000  Cu
  Cu3      1.0000 0.16430  0.09638  0.14087  Biso   1.000  Cu
  Cu4      1.0000 0.08570  0.15362  0.14087  Biso   1.000  Cu
  Cu5      1.0000 0.16430  0.65362  0.60913  Biso   1.000  Cu
  Cu6      1.0000 0.08570  0.59638  0.60913  Biso   1.000  Cu
  Cu7      1.0000 0.16430  0.59638  0.64087  Biso   1.000  Cu
  Cu8      1.0000 0.08570  0.65362  0.64087  Biso   1.000  Cu
  Cu9      1.0000 0.66430  0.15362  0.60913  Biso   1.000  Cu
  Cu10     1.0000 0.58570  0.09638  0.60913  Biso   1.000  Cu
  Cu11     1.0000 0.66430  0.09638  0.64087  Biso   1.000  Cu
  Cu12     1.0000 0.58570  0.15362  0.64087  Biso   1.000  Cu
  Cu13     1.0000 0.66430  0.65362  0.10913  Biso   1.000  Cu
  Cu14     1.0000 0.58570  0.59638  0.10913  Biso   1.000  Cu
  Cu15     1.0000 0.66430  0.59638  0.14087  Biso   1.000  Cu
  Cu16     1.0000 0.58570  0.65362  0.14087  Biso   1.000  Cu
  Cu17     1.0000 0.83570  0.84638  0.89087  Biso   1.000  Cu
  Cu18     1.0000 0.41430  0.40362  0.89087  Biso   1.000  Cu
  Cu19     1.0000 0.83570  0.40362  0.35913  Biso   1.000  Cu
  Cu20     1.0000 0.41430  0.84638  0.35913  Biso   1.000  Cu
  Cu21     1.0000 0.83570  0.34638  0.39087  Biso   1.000  Cu
  Cu22     1.0000 0.41430  0.90362  0.39087  Biso   1.000  Cu
  Cu23     1.0000 0.83570  0.90362  0.85913  Biso   1.000  Cu
  Cu24     1.0000 0.41430  0.34638  0.85913  Biso   1.000  Cu
  Cu25     1.0000 0.33570  0.84638  0.39087  Biso   1.000  Cu
  Cu26     1.0000 0.91430  0.40362  0.39087  Biso   1.000  Cu
  Cu27     1.0000 0.33570  0.40362  0.85913  Biso   1.000  Cu
  Cu28     1.0000 0.91430  0.84638  0.85913  Biso   1.000  Cu
  Cu29     1.0000 0.33570  0.34638  0.89087  Biso   1.000  Cu
  Cu30     1.0000 0.91430  0.90362  0.89087  Biso   1.000  Cu
  Cu31     1.0000 0.33570  0.90362  0.35913  Biso   1.000  Cu
  Cu32     1.0000 0.91430  0.34638  0.35913  Biso   1.000  Cu
  Cu33     1.0000 0.43194  0.37404  0.18705  Biso   1.000  Cu
  Cu34     1.0000 0.81806  0.87596  0.18705  Biso   1.000  Cu
  Cu35     1.0000 0.43194  0.87596  0.06295  Biso   1.000  Cu
  Cu36     1.0000 0.81806  0.37404  0.06295  Biso   1.000  Cu
  Cu37     1.0000 0.43194  0.87404  0.68705  Biso   1.000  Cu
  Cu38     1.0000 0.81806  0.37596  0.68705  Biso   1.000  Cu
  Cu39     1.0000 0.43194  0.37596  0.56295  Biso   1.000  Cu
  Cu40     1.0000 0.81806  0.87404  0.56295  Biso   1.000  Cu
  Cu41     1.0000 0.93194  0.37404  0.68705  Biso   1.000  Cu
  Cu42     1.0000 0.31806  0.87596  0.68705  Biso   1.000  Cu
  Cu43     1.0000 0.93194  0.87596  0.56295  Biso   1.000  Cu
  Cu44     1.0000 0.31806  0.37404  0.56295  Biso   1.000  Cu
  Cu45     1.0000 0.93194  0.87404  0.18705  Biso   1.000  Cu
  Cu46     1.0000 0.31806  0.37596  0.18705  Biso   1.000  Cu
  Cu47     1.0000 0.93194  0.37596  0.06295  Biso   1.000  Cu
  Cu48     1.0000 0.31806  0.87404  0.06295  Biso   1.000  Cu
  Cu49     1.0000 0.56806  0.62596  0.81295  Biso   1.000  Cu
  Cu50     1.0000 0.68194  0.62404  0.81295  Biso   1.000  Cu
  Cu51     1.0000 0.56806  0.62404  0.43705  Biso   1.000  Cu
  Cu52     1.0000 0.68194  0.62596  0.43705  Biso   1.000  Cu
  Cu53     1.0000 0.56806  0.12596  0.31295  Biso   1.000  Cu
  Cu54     1.0000 0.68194  0.12404  0.31295  Biso   1.000  Cu
  Cu55     1.0000 0.56806  0.12404  0.93705  Biso   1.000  Cu
  Cu56     1.0000 0.68194  0.12596  0.93705  Biso   1.000  Cu
  Cu57     1.0000 0.06806  0.62596  0.31295  Biso   1.000  Cu
  Cu58     1.0000 0.18194  0.62404  0.31295  Biso   1.000  Cu
  Cu59     1.0000 0.06806  0.62404  0.93705  Biso   1.000  Cu
  Cu60     1.0000 0.18194  0.62596  0.93705  Biso   1.000  Cu
  Cu61     1.0000 0.06806  0.12596  0.81295  Biso   1.000  Cu
  Cu62     1.0000 0.18194  0.12404  0.81295  Biso   1.000  Cu
  Cu63     1.0000 0.06806  0.12404  0.43705  Biso   1.000  Cu
  Cu64     1.0000 0.18194  0.12596  0.43705  Biso   1.000  Cu
  I1       1.0000 0.19604  0.07768  0.09662  Biso   1.000  I
  I2       1.0000 0.05396  0.17232  0.09662  Biso   1.000  I
  I3       1.0000 0.19604  0.17232  0.15338  Biso   1.000  I
  I4       1.0000 0.05396  0.07768  0.15338  Biso   1.000  I
  I5       1.0000 0.19604  0.57768  0.59662  Biso   1.000  I
  I6       1.0000 0.05396  0.67232  0.59662  Biso   1.000  I
  I7       1.0000 0.19604  0.67232  0.65338  Biso   1.000  I
  I8       1.0000 0.05396  0.57768  0.65338  Biso   1.000  I
  I9       1.0000 0.69604  0.07768  0.59662  Biso   1.000  I
  I10      1.0000 0.55396  0.17232  0.59662  Biso   1.000  I
  I11      1.0000 0.69604  0.17232  0.65338  Biso   1.000  I
  I12      1.0000 0.55396  0.07768  0.65338  Biso   1.000  I
  I13      1.0000 0.69604  0.57768  0.09662  Biso   1.000  I
  I14      1.0000 0.55396  0.67232  0.09662  Biso   1.000  I
  I15      1.0000 0.69604  0.67232  0.15338  Biso   1.000  I
  I16      1.0000 0.55396  0.57768  0.15338  Biso   1.000  I
  I17      1.0000 0.80396  0.92232  0.90338  Biso   1.000  I
  I18      1.0000 0.44604  0.32768  0.90338  Biso   1.000  I
  I19      1.0000 0.80396  0.32768  0.34662  Biso   1.000  I
  I20      1.0000 0.44604  0.92232  0.34662  Biso   1.000  I
  I21      1.0000 0.80396  0.42232  0.40338  Biso   1.000  I
  I22      1.0000 0.44604  0.82768  0.40338  Biso   1.000  I
  I23      1.0000 0.80396  0.82768  0.84662  Biso   1.000  I
  I24      1.0000 0.44604  0.42232  0.84662  Biso   1.000  I
  I25      1.0000 0.30396  0.92232  0.40338  Biso   1.000  I
  I26      1.0000 0.94604  0.32768  0.40338  Biso   1.000  I
  I27      1.0000 0.30396  0.32768  0.84662  Biso   1.000  I
  I28      1.0000 0.94604  0.92232  0.84662  Biso   1.000  I
  I29      1.0000 0.30396  0.42232  0.90338  Biso   1.000  I
  I30      1.0000 0.94604  0.82768  0.90338  Biso   1.000  I
  I31      1.0000 0.30396  0.82768  0.34662  Biso   1.000  I
  I32      1.0000 0.94604  0.42232  0.34662  Biso   1.000  I
  I33      1.0000 0.37987  0.44362  0.19715  Biso   1.000  I
  I34      1.0000 0.87013  0.80638  0.19715  Biso   1.000  I
  I35      1.0000 0.37987  0.80638  0.05285  Biso   1.000  I
  I36      1.0000 0.87013  0.44362  0.05285  Biso   1.000  I
  I37      1.0000 0.37987  0.94362  0.69715  Biso   1.000  I
  I38      1.0000 0.87013  0.30638  0.69715  Biso   1.000  I
  I39      1.0000 0.37987  0.30638  0.55285  Biso   1.000  I
  I40      1.0000 0.87013  0.94362  0.55285  Biso   1.000  I
  I41      1.0000 0.87987  0.44362  0.69715  Biso   1.000  I
  I42      1.0000 0.37013  0.80638  0.69715  Biso   1.000  I
  I43      1.0000 0.87987  0.80638  0.55285  Biso   1.000  I
  I44      1.0000 0.37013  0.44362  0.55285  Biso   1.000  I
  I45      1.0000 0.87987  0.94362  0.19715  Biso   1.000  I
  I46      1.0000 0.37013  0.30638  0.19715  Biso   1.000  I
  I47      1.0000 0.87987  0.30638  0.05285  Biso   1.000  I
  I48      1.0000 0.37013  0.94362  0.05285  Biso   1.000  I
  I49      1.0000 0.62013  0.55638  0.80285  Biso   1.000  I
  I50      1.0000 0.62987  0.69362  0.80285  Biso   1.000  I
  I51      1.0000 0.62013  0.69362  0.44715  Biso   1.000  I
  I52      1.0000 0.62987  0.55638  0.44715  Biso   1.000  I
  I53      1.0000 0.62013  0.05638  0.30285  Biso   1.000  I
  I54      1.0000 0.62987  0.19362  0.30285  Biso   1.000  I
  I55      1.0000 0.62013  0.19362  0.94715  Biso   1.000  I
  I56      1.0000 0.62987  0.05638  0.94715  Biso   1.000  I
  I57      1.0000 0.12013  0.55638  0.30285  Biso   1.000  I
  I58      1.0000 0.12987  0.69362  0.30285  Biso   1.000  I
  I59      1.0000 0.12013  0.69362  0.94715  Biso   1.000  I
  I60      1.0000 0.12987  0.55638  0.94715  Biso   1.000  I
  I61      1.0000 0.12013  0.05638  0.80285  Biso   1.000  I
  I62      1.0000 0.12987  0.19362  0.80285  Biso   1.000  I
  I63      1.0000 0.12013  0.19362  0.44715  Biso   1.000  I
  I64      1.0000 0.12987  0.05638  0.44715  Biso   1.000  I
  O1       1.0000 0.43390  0.39544  0.06750  Biso   1.000  O
  O2       1.0000 0.81610  0.85456  0.06750  Biso   1.000  O
  O3       1.0000 0.43390  0.85456  0.18250  Biso   1.000  O
  O4       1.0000 0.81610  0.39544  0.18250  Biso   1.000  O
  O5       1.0000 0.43390  0.89544  0.56750  Biso   1.000  O
  O6       1.0000 0.81610  0.35456  0.56750  Biso   1.000  O
  O7       1.0000 0.43390  0.35456  0.68250  Biso   1.000  O
  O8       1.0000 0.81610  0.89544  0.68250  Biso   1.000  O
  O9       1.0000 0.93390  0.39544  0.56750  Biso   1.000  O
  O10      1.0000 0.31610  0.85456  0.56750  Biso   1.000  O
  O11      1.0000 0.93390  0.85456  0.68250  Biso   1.000  O
  O12      1.0000 0.31610  0.39544  0.68250  Biso   1.000  O
  O13      1.0000 0.93390  0.89544  0.06750  Biso   1.000  O
  O14      1.0000 0.31610  0.35456  0.06750  Biso   1.000  O
  O15      1.0000 0.93390  0.35456  0.18250  Biso   1.000  O
  O16      1.0000 0.31610  0.89544  0.18250  Biso   1.000  O
  O17      1.0000 0.56610  0.60456  0.93250  Biso   1.000  O
  O18      1.0000 0.68390  0.64544  0.93250  Biso   1.000  O
  O19      1.0000 0.56610  0.64544  0.31750  Biso   1.000  O
  O20      1.0000 0.68390  0.60456  0.31750  Biso   1.000  O
  O21      1.0000 0.56610  0.10456  0.43250  Biso   1.000  O
  O22      1.0000 0.68390  0.14544  0.43250  Biso   1.000  O
  O23      1.0000 0.56610  0.14544  0.81750  Biso   1.000  O
  O24      1.0000 0.68390  0.10456  0.81750  Biso   1.000  O
  O25      1.0000 0.06610  0.60456  0.43250  Biso   1.000  O
  O26      1.0000 0.18390  0.64544  0.43250  Biso   1.000  O
  O27      1.0000 0.06610  0.64544  0.81750  Biso   1.000  O
  O28      1.0000 0.18390  0.60456  0.81750  Biso   1.000  O
  O29      1.0000 0.06610  0.10456  0.93250  Biso   1.000  O
  O30      1.0000 0.18390  0.14544  0.93250  Biso   1.000  O
  O31      1.0000 0.06610  0.14544  0.31750  Biso   1.000  O
  O32      1.0000 0.18390  0.10456  0.31750  Biso   1.000  O
  O33      1.0000 0.30470  0.34482  0.00276  Biso   1.000  O
  O34      1.0000 0.94530  0.90518  0.00276  Biso   1.000  O
  O35      1.0000 0.30470  0.90518  0.24724  Biso   1.000  O
  O36      1.0000 0.94530  0.34482  0.24724  Biso   1.000  O
  O37      1.0000 0.30470  0.84482  0.50276  Biso   1.000  O
  O38      1.0000 0.94530  0.40518  0.50276  Biso   1.000  O
  O39      1.0000 0.30470  0.40518  0.74724  Biso   1.000  O
  O40      1.0000 0.94530  0.84482  0.74724  Biso   1.000  O
  O41      1.0000 0.80470  0.34482  0.50276  Biso   1.000  O
  O42      1.0000 0.44530  0.90518  0.50276  Biso   1.000  O
  O43      1.0000 0.80470  0.90518  0.74724  Biso   1.000  O
  O44      1.0000 0.44530  0.34482  0.74724  Biso   1.000  O
  O45      1.0000 0.80470  0.84482  0.00276  Biso   1.000  O
  O46      1.0000 0.44530  0.40518  0.00276  Biso   1.000  O
  O47      1.0000 0.80470  0.40518  0.24724  Biso   1.000  O
  O48      1.0000 0.44530  0.84482  0.24724  Biso   1.000  O
  O49      1.0000 0.69530  0.65518  0.99724  Biso   1.000  O
  O50      1.0000 0.55470  0.59482  0.99724  Biso   1.000  O
  O51      1.0000 0.69530  0.59482  0.25276  Biso   1.000  O
  O52      1.0000 0.55470  0.65518  0.25276  Biso   1.000  O
  O53      1.0000 0.69530  0.15518  0.49724  Biso   1.000  O
  O54      1.0000 0.55470  0.09482  0.49724  Biso   1.000  O
  O55      1.0000 0.69530  0.09482  0.75276  Biso   1.000  O
  O56      1.0000 0.55470  0.15518  0.75276  Biso   1.000  O
  O57      1.0000 0.19530  0.65518  0.49724  Biso   1.000  O
  O58      1.0000 0.05470  0.59482  0.49724  Biso   1.000  O
  O59      1.0000 0.19530  0.59482  0.75276  Biso   1.000  O
  O60      1.0000 0.05470  0.65518  0.75276  Biso   1.000  O
  O61      1.0000 0.19530  0.15518  0.99724  Biso   1.000  O
  O62      1.0000 0.05470  0.09482  0.99724  Biso   1.000  O
  O63      1.0000 0.19530  0.09482  0.25276  Biso   1.000  O
  O64      1.0000 0.05470  0.15518  0.25276  Biso   1.000  O
  O65      1.0000 0.47390  0.33130  0.07111  Biso   1.000  O
  O66      1.0000 0.77610  0.91870  0.07111  Biso   1.000  O
  O67      1.0000 0.47390  0.91870  0.17889  Biso   1.000  O
  O68      1.0000 0.77610  0.33130  0.17889  Biso   1.000  O
  O69      1.0000 0.47390  0.83130  0.57111  Biso   1.000  O
  O70      1.0000 0.77610  0.41870  0.57111  Biso   1.000  O
  O71      1.0000 0.47390  0.41870  0.67889  Biso   1.000  O
  O72      1.0000 0.77610  0.83130  0.67889  Biso   1.000  O
  O73      1.0000 0.97390  0.33130  0.57111  Biso   1.000  O
  O74      1.0000 0.27610  0.91870  0.57111  Biso   1.000  O
  O75      1.0000 0.97390  0.91870  0.67889  Biso   1.000  O
  O76      1.0000 0.27610  0.33130  0.67889  Biso   1.000  O
  O77      1.0000 0.97390  0.83130  0.07111  Biso   1.000  O
  O78      1.0000 0.27610  0.41870  0.07111  Biso   1.000  O
  O79      1.0000 0.97390  0.41870  0.17889  Biso   1.000  O
  O80      1.0000 0.27610  0.83130  0.17889  Biso   1.000  O
  O81      1.0000 0.52610  0.66870  0.92889  Biso   1.000  O
  O82      1.0000 0.72390  0.58130  0.92889  Biso   1.000  O
  O83      1.0000 0.52610  0.58130  0.32111  Biso   1.000  O
  O84      1.0000 0.72390  0.66870  0.32111  Biso   1.000  O
  O85      1.0000 0.52610  0.16870  0.42889  Biso   1.000  O
  O86      1.0000 0.72390  0.08130  0.42889  Biso   1.000  O
  O87      1.0000 0.52610  0.08130  0.82111  Biso   1.000  O
  O88      1.0000 0.72390  0.16870  0.82111  Biso   1.000  O
  O89      1.0000 0.02610  0.66870  0.42889  Biso   1.000  O
  O90      1.0000 0.22390  0.58130  0.42889  Biso   1.000  O
  O91      1.0000 0.02610  0.58130  0.82111  Biso   1.000  O
  O92      1.0000 0.22390  0.66870  0.82111  Biso   1.000  O
  O93      1.0000 0.02610  0.16870  0.92889  Biso   1.000  O
  O94      1.0000 0.22390  0.08130  0.92889  Biso   1.000  O
  O95      1.0000 0.02610  0.08130  0.32111  Biso   1.000  O
  O96      1.0000 0.22390  0.16870  0.32111  Biso   1.000  O
  O97      1.0000 0.38720  0.27015  0.05895  Biso   1.000  O
  O98      1.0000 0.86280  0.97985  0.05895  Biso   1.000  O
  O99      1.0000 0.38720  0.97985  0.19105  Biso   1.000  O
  O100     1.0000 0.86280  0.27015  0.19105  Biso   1.000  O
  O101     1.0000 0.38720  0.77015  0.55895  Biso   1.000  O
  O102     1.0000 0.86280  0.47985  0.55895  Biso   1.000  O
  O103     1.0000 0.38720  0.47985  0.69105  Biso   1.000  O
  O104     1.0000 0.86280  0.77015  0.69105  Biso   1.000  O
  O105     1.0000 0.88720  0.27015  0.55895  Biso   1.000  O
  O106     1.0000 0.36280  0.97985  0.55895  Biso   1.000  O
  O107     1.0000 0.88720  0.97985  0.69105  Biso   1.000  O
  O108     1.0000 0.36280  0.27015  0.69105  Biso   1.000  O
  O109     1.0000 0.88720  0.77015  0.05895  Biso   1.000  O
  O110     1.0000 0.36280  0.47985  0.05895  Biso   1.000  O
  O111     1.0000 0.88720  0.47985  0.19105  Biso   1.000  O
  O112     1.0000 0.36280  0.77015  0.19105  Biso   1.000  O
  O113     1.0000 0.61280  0.72985  0.94105  Biso   1.000  O
  O114     1.0000 0.63720  0.52015  0.94105  Biso   1.000  O
  O115     1.0000 0.61280  0.52015  0.30895  Biso   1.000  O
  O116     1.0000 0.63720  0.72985  0.30895  Biso   1.000  O
  O117     1.0000 0.61280  0.22985  0.44105  Biso   1.000  O
  O118     1.0000 0.63720  0.02015  0.44105  Biso   1.000  O
  O119     1.0000 0.61280  0.02015  0.80895  Biso   1.000  O
  O120     1.0000 0.63720  0.22985  0.80895  Biso   1.000  O
  O121     1.0000 0.11280  0.72985  0.44105  Biso   1.000  O
  O122     1.0000 0.13720  0.52015  0.44105  Biso   1.000  O
  O123     1.0000 0.11280  0.52015  0.80895  Biso   1.000  O
  O124     1.0000 0.13720  0.72985  0.80895  Biso   1.000  O
  O125     1.0000 0.11280  0.22985  0.94105  Biso   1.000  O
  O126     1.0000 0.13720  0.02015  0.94105  Biso   1.000  O
  O127     1.0000 0.11280  0.02015  0.30895  Biso   1.000  O
  O128     1.0000 0.13720  0.22985  0.30895  Biso   1.000  O
  O129     1.0000 0.30870  0.29330  0.03910  Biso   1.000  O
  O130     1.0000 0.94130  0.95670  0.03910  Biso   1.000  O
  O131     1.0000 0.30870  0.95670  0.21090  Biso   1.000  O
  O132     1.0000 0.94130  0.29330  0.21090  Biso   1.000  O
  O133     1.0000 0.30870  0.79330  0.53910  Biso   1.000  O
  O134     1.0000 0.94130  0.45670  0.53910  Biso   1.000  O
  O135     1.0000 0.30870  0.45670  0.71090  Biso   1.000  O
  O136     1.0000 0.94130  0.79330  0.71090  Biso   1.000  O
  O137     1.0000 0.80870  0.29330  0.53910  Biso   1.000  O
  O138     1.0000 0.44130  0.95670  0.53910  Biso   1.000  O
  O139     1.0000 0.80870  0.95670  0.71090  Biso   1.000  O
  O140     1.0000 0.44130  0.29330  0.71090  Biso   1.000  O
  O141     1.0000 0.80870  0.79330  0.03910  Biso   1.000  O
  O142     1.0000 0.44130  0.45670  0.03910  Biso   1.000  O
  O143     1.0000 0.80870  0.45670  0.21090  Biso   1.000  O
  O144     1.0000 0.44130  0.79330  0.21090  Biso   1.000  O
  O145     1.0000 0.69130  0.70670  0.96090  Biso   1.000  O
  O146     1.0000 0.55870  0.54330  0.96090  Biso   1.000  O
  O147     1.0000 0.69130  0.54330  0.28910  Biso   1.000  O
  O148     1.0000 0.55870  0.70670  0.28910  Biso   1.000  O
  O149     1.0000 0.69130  0.20670  0.46090  Biso   1.000  O
  O150     1.0000 0.55870  0.04330  0.46090  Biso   1.000  O
  O151     1.0000 0.69130  0.04330  0.78910  Biso   1.000  O
  O152     1.0000 0.55870  0.20670  0.78910  Biso   1.000  O
  O153     1.0000 0.19130  0.70670  0.46090  Biso   1.000  O
  O154     1.0000 0.05870  0.54330  0.46090  Biso   1.000  O
  O155     1.0000 0.19130  0.54330  0.78910  Biso   1.000  O
  O156     1.0000 0.05870  0.70670  0.78910  Biso   1.000  O
  O157     1.0000 0.19130  0.20670  0.96090  Biso   1.000  O
  O158     1.0000 0.05870  0.04330  0.96090  Biso   1.000  O
  O159     1.0000 0.19130  0.04330  0.28910  Biso   1.000  O
  O160     1.0000 0.05870  0.20670  0.28910  Biso   1.000  O
  O161     1.0000 0.53070  0.32320  0.02880  Biso   1.000  O
  O162     1.0000 0.71930  0.92680  0.02880  Biso   1.000  O
  O163     1.0000 0.53070  0.92680  0.22120  Biso   1.000  O
  O164     1.0000 0.71930  0.32320  0.22120  Biso   1.000  O
  O165     1.0000 0.53070  0.82320  0.52880  Biso   1.000  O
  O166     1.0000 0.71930  0.42680  0.52880  Biso   1.000  O
  O167     1.0000 0.53070  0.42680  0.72120  Biso   1.000  O
  O168     1.0000 0.71930  0.82320  0.72120  Biso   1.000  O
  O169     1.0000 0.03070  0.32320  0.52880  Biso   1.000  O
  O170     1.0000 0.21930  0.92680  0.52880  Biso   1.000  O
  O171     1.0000 0.03070  0.92680  0.72120  Biso   1.000  O
  O172     1.0000 0.21930  0.32320  0.72120  Biso   1.000  O
  O173     1.0000 0.03070  0.82320  0.02880  Biso   1.000  O
  O174     1.0000 0.21930  0.42680  0.02880  Biso   1.000  O
  O175     1.0000 0.03070  0.42680  0.22120  Biso   1.000  O
  O176     1.0000 0.21930  0.82320  0.22120  Biso   1.000  O
  O177     1.0000 0.46930  0.67680  0.97120  Biso   1.000  O
  O178     1.0000 0.78070  0.57320  0.97120  Biso   1.000  O
  O179     1.0000 0.46930  0.57320  0.27880  Biso   1.000  O
  O180     1.0000 0.78070  0.67680  0.27880  Biso   1.000  O
  O181     1.0000 0.46930  0.17680  0.47120  Biso   1.000  O
  O182     1.0000 0.78070  0.07320  0.47120  Biso   1.000  O
  O183     1.0000 0.46930  0.07320  0.77880  Biso   1.000  O
  O184     1.0000 0.78070  0.17680  0.77880  Biso   1.000  O
  O185     1.0000 0.96930  0.67680  0.47120  Biso   1.000  O
  O186     1.0000 0.28070  0.57320  0.47120  Biso   1.000  O
  O187     1.0000 0.96930  0.57320  0.77880  Biso   1.000  O
  O188     1.0000 0.28070  0.67680  0.77880  Biso   1.000  O
  O189     1.0000 0.96930  0.17680  0.97120  Biso   1.000  O
  O190     1.0000 0.28070  0.07320  0.97120  Biso   1.000  O
  O191     1.0000 0.96930  0.07320  0.27880  Biso   1.000  O
  O192     1.0000 0.28070  0.17680  0.27880  Biso   1.000  O
  O193     1.0000 0.50220  0.24980  0.05388  Biso   1.000  O
  O194     1.0000 0.74780  0.00020  0.05388  Biso   1.000  O
  O195     1.0000 0.50220  0.00020  0.19612  Biso   1.000  O
  O196     1.0000 0.74780  0.24980  0.19612  Biso   1.000  O
  O197     1.0000 0.50220  0.74980  0.55388  Biso   1.000  O
  O198     1.0000 0.74780  0.50020  0.55388  Biso   1.000  O
  O199     1.0000 0.50220  0.50020  0.69612  Biso   1.000  O
  O200     1.0000 0.74780  0.74980  0.69612  Biso   1.000  O
  O201     1.0000 0.00220  0.24980  0.55388  Biso   1.000  O
  O202     1.0000 0.24780  0.00020  0.55388  Biso   1.000  O
  O203     1.0000 0.00220  0.00020  0.69612  Biso   1.000  O
  O204     1.0000 0.24780  0.24980  0.69612  Biso   1.000  O
  O205     1.0000 0.00220  0.74980  0.05388  Biso   1.000  O
  O206     1.0000 0.24780  0.50020  0.05388  Biso   1.000  O
  O207     1.0000 0.00220  0.50020  0.19612  Biso   1.000  O
  O208     1.0000 0.24780  0.74980  0.19612  Biso   1.000  O
  O209     1.0000 0.49780  0.75020  0.94612  Biso   1.000  O
  O210     1.0000 0.75220  0.49980  0.94612  Biso   1.000  O
  O211     1.0000 0.49780  0.49980  0.30388  Biso   1.000  O
  O212     1.0000 0.75220  0.75020  0.30388  Biso   1.000  O
  O213     1.0000 0.49780  0.25020  0.44612  Biso   1.000  O
  O214     1.0000 0.75220  0.99980  0.44612  Biso   1.000  O
  O215     1.0000 0.49780  0.99980  0.80388  Biso   1.000  O
  O216     1.0000 0.75220  0.25020  0.80388  Biso   1.000  O
  O217     1.0000 0.99780  0.75020  0.44612  Biso   1.000  O
  O218     1.0000 0.25220  0.49980  0.44612  Biso   1.000  O
  O219     1.0000 0.99780  0.49980  0.80388  Biso   1.000  O
  O220     1.0000 0.25220  0.75020  0.80388  Biso   1.000  O
  O221     1.0000 0.99780  0.25020  0.94612  Biso   1.000  O
  O222     1.0000 0.25220  0.99980  0.94612  Biso   1.000  O
  O223     1.0000 0.99780  0.99980  0.30388  Biso   1.000  O
  O224     1.0000 0.25220  0.25020  0.30388  Biso   1.000  O
  O225     1.0000 0.52120  0.38970  0.03576  Biso   1.000  O
  O226     1.0000 0.72880  0.86030  0.03576  Biso   1.000  O
  O227     1.0000 0.52120  0.86030  0.21424  Biso   1.000  O
  O228     1.0000 0.72880  0.38970  0.21424  Biso   1.000  O
  O229     1.0000 0.52120  0.88970  0.53576  Biso   1.000  O
  O230     1.0000 0.72880  0.36030  0.53576  Biso   1.000  O
  O231     1.0000 0.52120  0.36030  0.71424  Biso   1.000  O
  O232     1.0000 0.72880  0.88970  0.71424  Biso   1.000  O
  O233     1.0000 0.02120  0.38970  0.53576  Biso   1.000  O
  O234     1.0000 0.22880  0.86030  0.53576  Biso   1.000  O
  O235     1.0000 0.02120  0.86030  0.71424  Biso   1.000  O
  O236     1.0000 0.22880  0.38970  0.71424  Biso   1.000  O
  O237     1.0000 0.02120  0.88970  0.03576  Biso   1.000  O
  O238     1.0000 0.22880  0.36030  0.03576  Biso   1.000  O
  O239     1.0000 0.02120  0.36030  0.21424  Biso   1.000  O
  O240     1.0000 0.22880  0.88970  0.21424  Biso   1.000  O
  O241     1.0000 0.47880  0.61030  0.96424  Biso   1.000  O
  O242     1.0000 0.77120  0.63970  0.96424  Biso   1.000  O
  O243     1.0000 0.47880  0.63970  0.28576  Biso   1.000  O
  O244     1.0000 0.77120  0.61030  0.28576  Biso   1.000  O
  O245     1.0000 0.47880  0.11030  0.46424  Biso   1.000  O
  O246     1.0000 0.77120  0.13970  0.46424  Biso   1.000  O
  O247     1.0000 0.47880  0.13970  0.78576  Biso   1.000  O
  O248     1.0000 0.77120  0.11030  0.78576  Biso   1.000  O
  O249     1.0000 0.97880  0.61030  0.46424  Biso   1.000  O
  O250     1.0000 0.27120  0.63970  0.46424  Biso   1.000  O
  O251     1.0000 0.97880  0.63970  0.78576  Biso   1.000  O
  O252     1.0000 0.27120  0.61030  0.78576  Biso   1.000  O
  O253     1.0000 0.97880  0.11030  0.96424  Biso   1.000  O
  O254     1.0000 0.27120  0.13970  0.96424  Biso   1.000  O
  O255     1.0000 0.97880  0.13970  0.28576  Biso   1.000  O
  O256     1.0000 0.27120  0.11030  0.28576  Biso   1.000  O
  O257     1.0000 0.40400  0.34268  0.03191  Biso   1.000  O
  O258     1.0000 0.84600  0.90732  0.03191  Biso   1.000  O
  O259     1.0000 0.40400  0.90732  0.21809  Biso   1.000  O
  O260     1.0000 0.84600  0.34268  0.21809  Biso   1.000  O
  O261     1.0000 0.40400  0.84268  0.53191  Biso   1.000  O
  O262     1.0000 0.84600  0.40732  0.53191  Biso   1.000  O
  O263     1.0000 0.40400  0.40732  0.71809  Biso   1.000  O
  O264     1.0000 0.84600  0.84268  0.71809  Biso   1.000  O
  O265     1.0000 0.90400  0.34268  0.53191  Biso   1.000  O
  O266     1.0000 0.34600  0.90732  0.53191  Biso   1.000  O
  O267     1.0000 0.90400  0.90732  0.71809  Biso   1.000  O
  O268     1.0000 0.34600  0.34268  0.71809  Biso   1.000  O
  O269     1.0000 0.90400  0.84268  0.03191  Biso   1.000  O
  O270     1.0000 0.34600  0.40732  0.03191  Biso   1.000  O
  O271     1.0000 0.90400  0.40732  0.21809  Biso   1.000  O
  O272     1.0000 0.34600  0.84268  0.21809  Biso   1.000  O
  O273     1.0000 0.59600  0.65732  0.96809  Biso   1.000  O
  O274     1.0000 0.65400  0.59268  0.96809  Biso   1.000  O
  O275     1.0000 0.59600  0.59268  0.28191  Biso   1.000  O
  O276     1.0000 0.65400  0.65732  0.28191  Biso   1.000  O
  O277     1.0000 0.59600  0.15732  0.46809  Biso   1.000  O
  O278     1.0000 0.65400  0.09268  0.46809  Biso   1.000  O
  O279     1.0000 0.59600  0.09268  0.78191  Biso   1.000  O
  O280     1.0000 0.65400  0.15732  0.78191  Biso   1.000  O
  O281     1.0000 0.09600  0.65732  0.46809  Biso   1.000  O
  O282     1.0000 0.15400  0.59268  0.46809  Biso   1.000  O
  O283     1.0000 0.09600  0.59268  0.78191  Biso   1.000  O
  O284     1.0000 0.15400  0.65732  0.78191  Biso   1.000  O
  O285     1.0000 0.09600  0.15732  0.96809  Biso   1.000  O
  O286     1.0000 0.15400  0.09268  0.96809  Biso   1.000  O
  O287     1.0000 0.09600  0.09268  0.28191  Biso   1.000  O
  O288     1.0000 0.15400  0.15732  0.28191  Biso   1.000  O
  O289     1.0000 0.44750  0.27307  0.01347  Biso   1.000  O
  O290     1.0000 0.80250  0.97693  0.01347  Biso   1.000  O
  O291     1.0000 0.44750  0.97693  0.23653  Biso   1.000  O
  O292     1.0000 0.80250  0.27307  0.23653  Biso   1.000  O
  O293     1.0000 0.44750  0.77307  0.51347  Biso   1.000  O
  O294     1.0000 0.80250  0.47693  0.51347  Biso   1.000  O
  O295     1.0000 0.44750  0.47693  0.73653  Biso   1.000  O
  O296     1.0000 0.80250  0.77307  0.73653  Biso   1.000  O
  O297     1.0000 0.94750  0.27307  0.51347  Biso   1.000  O
  O298     1.0000 0.30250  0.97693  0.51347  Biso   1.000  O
  O299     1.0000 0.94750  0.97693  0.73653  Biso   1.000  O
  O300     1.0000 0.30250  0.27307  0.73653  Biso   1.000  O
  O301     1.0000 0.94750  0.77307  0.01347  Biso   1.000  O
  O302     1.0000 0.30250  0.47693  0.01347  Biso   1.000  O
  O303     1.0000 0.94750  0.47693  0.23653  Biso   1.000  O
  O304     1.0000 0.30250  0.77307  0.23653  Biso   1.000  O
  O305     1.0000 0.55250  0.72693  0.98653  Biso   1.000  O
  O306     1.0000 0.69750  0.52307  0.98653  Biso   1.000  O
  O307     1.0000 0.55250  0.52307  0.26347  Biso   1.000  O
  O308     1.0000 0.69750  0.72693  0.26347  Biso   1.000  O
  O309     1.0000 0.55250  0.22693  0.48653  Biso   1.000  O
  O310     1.0000 0.69750  0.02307  0.48653  Biso   1.000  O
  O311     1.0000 0.55250  0.02307  0.76347  Biso   1.000  O
  O312     1.0000 0.69750  0.22693  0.76347  Biso   1.000  O
  O313     1.0000 0.05250  0.72693  0.48653  Biso   1.000  O
  O314     1.0000 0.19750  0.52307  0.48653  Biso   1.000  O
  O315     1.0000 0.05250  0.52307  0.76347  Biso   1.000  O
  O316     1.0000 0.19750  0.72693  0.76347  Biso   1.000  O
  O317     1.0000 0.05250  0.22693  0.98653  Biso   1.000  O
  O318     1.0000 0.19750  0.02307  0.98653  Biso   1.000  O
  O319     1.0000 0.05250  0.02307  0.26347  Biso   1.000  O
  O320     1.0000 0.19750  0.22693  0.26347  Biso   1.000  O
  C1       1.0000 0.33060  0.27290  0.05354  Biso   1.000  C
  C2       1.0000 0.91940  0.97710  0.05354  Biso   1.000  C
  C3       1.0000 0.33060  0.97710  0.19646  Biso   1.000  C
  C4       1.0000 0.91940  0.27290  0.19646  Biso   1.000  C
  C5       1.0000 0.33060  0.77290  0.55354  Biso   1.000  C
  C6       1.0000 0.91940  0.47710  0.55354  Biso   1.000  C
  C7       1.0000 0.33060  0.47710  0.69646  Biso   1.000  C
  C8       1.0000 0.91940  0.77290  0.69646  Biso   1.000  C
  C9       1.0000 0.83060  0.27290  0.55354  Biso   1.000  C
  C10      1.0000 0.41940  0.97710  0.55354  Biso   1.000  C
  C11      1.0000 0.83060  0.97710  0.69646  Biso   1.000  C
  C12      1.0000 0.41940  0.27290  0.69646  Biso   1.000  C
  C13      1.0000 0.83060  0.77290  0.05354  Biso   1.000  C
  C14      1.0000 0.41940  0.47710  0.05354  Biso   1.000  C
  C15      1.0000 0.83060  0.47710  0.19646  Biso   1.000  C
  C16      1.0000 0.41940  0.77290  0.19646  Biso   1.000  C
  C17      1.0000 0.66940  0.72710  0.94646  Biso   1.000  C
  C18      1.0000 0.58060  0.52290  0.94646  Biso   1.000  C
  C19      1.0000 0.66940  0.52290  0.30354  Biso   1.000  C
  C20      1.0000 0.58060  0.72710  0.30354  Biso   1.000  C
  C21      1.0000 0.66940  0.22710  0.44646  Biso   1.000  C
  C22      1.0000 0.58060  0.02290  0.44646  Biso   1.000  C
  C23      1.0000 0.66940  0.02290  0.80354  Biso   1.000  C
  C24      1.0000 0.58060  0.22710  0.80354  Biso   1.000  C
  C25      1.0000 0.16940  0.72710  0.44646  Biso   1.000  C
  C26      1.0000 0.08060  0.52290  0.44646  Biso   1.000  C
  C27      1.0000 0.16940  0.52290  0.80354  Biso   1.000  C
  C28      1.0000 0.08060  0.72710  0.80354  Biso   1.000  C
  C29      1.0000 0.16940  0.22710  0.94646  Biso   1.000  C
  C30      1.0000 0.08060  0.02290  0.94646  Biso   1.000  C
  C31      1.0000 0.16940  0.02290  0.30354  Biso   1.000  C
  C32      1.0000 0.08060  0.22710  0.30354  Biso   1.000  C
  C33      1.0000 0.29230  0.24466  0.06834  Biso   1.000  C
  C34      1.0000 0.95770  0.00534  0.06834  Biso   1.000  C
  C35      1.0000 0.29230  0.00534  0.18166  Biso   1.000  C
  C36      1.0000 0.95770  0.24466  0.18166  Biso   1.000  C
  C37      1.0000 0.29230  0.74466  0.56834  Biso   1.000  C
  C38      1.0000 0.95770  0.50534  0.56834  Biso   1.000  C
  C39      1.0000 0.29230  0.50534  0.68166  Biso   1.000  C
  C40      1.0000 0.95770  0.74466  0.68166  Biso   1.000  C
  C41      1.0000 0.79230  0.24466  0.56834  Biso   1.000  C
  C42      1.0000 0.45770  0.00534  0.56834  Biso   1.000  C
  C43      1.0000 0.79230  0.00534  0.68166  Biso   1.000  C
  C44      1.0000 0.45770  0.24466  0.68166  Biso   1.000  C
  C45      1.0000 0.79230  0.74466  0.06834  Biso   1.000  C
  C46      1.0000 0.45770  0.50534  0.06834  Biso   1.000  C
  C47      1.0000 0.79230  0.50534  0.18166  Biso   1.000  C
  C48      1.0000 0.45770  0.74466  0.18166  Biso   1.000  C
  C49      1.0000 0.70770  0.75534  0.93166  Biso   1.000  C
  C50      1.0000 0.54230  0.49466  0.93166  Biso   1.000  C
  C51      1.0000 0.70770  0.49466  0.31834  Biso   1.000  C
  C52      1.0000 0.54230  0.75534  0.31834  Biso   1.000  C
  C53      1.0000 0.70770  0.25534  0.43166  Biso   1.000  C
  C54      1.0000 0.54230  0.99466  0.43166  Biso   1.000  C
  C55      1.0000 0.70770  0.99466  0.81834  Biso   1.000  C
  C56      1.0000 0.54230  0.25534  0.81834  Biso   1.000  C
  C57      1.0000 0.20770  0.75534  0.43166  Biso   1.000  C
  C58      1.0000 0.04230  0.49466  0.43166  Biso   1.000  C
  C59      1.0000 0.20770  0.49466  0.81834  Biso   1.000  C
  C60      1.0000 0.04230  0.75534  0.81834  Biso   1.000  C
  C61      1.0000 0.20770  0.25534  0.93166  Biso   1.000  C
  C62      1.0000 0.04230  0.99466  0.93166  Biso   1.000  C
  C63      1.0000 0.20770  0.99466  0.31834  Biso   1.000  C
  C64      1.0000 0.04230  0.25534  0.31834  Biso   1.000  C
  C65      1.0000 0.23160  0.25251  0.06930  Biso   1.000  C
  C66      1.0000 0.01840  0.99749  0.06930  Biso   1.000  C
  C67      1.0000 0.23160  0.99749  0.18070  Biso   1.000  C
  C68      1.0000 0.01840  0.25251  0.18070  Biso   1.000  C
  C69      1.0000 0.23160  0.75251  0.56930  Biso   1.000  C
  C70      1.0000 0.01840  0.49749  0.56930  Biso   1.000  C
  C71      1.0000 0.23160  0.49749  0.68070  Biso   1.000  C
  C72      1.0000 0.01840  0.75251  0.68070  Biso   1.000  C
  C73      1.0000 0.73160  0.25251  0.56930  Biso   1.000  C
  C74      1.0000 0.51840  0.99749  0.56930  Biso   1.000  C
  C75      1.0000 0.73160  0.99749  0.68070  Biso   1.000  C
  C76      1.0000 0.51840  0.25251  0.68070  Biso   1.000  C
  C77      1.0000 0.73160  0.75251  0.06930  Biso   1.000  C
  C78      1.0000 0.51840  0.49749  0.06930  Biso   1.000  C
  C79      1.0000 0.73160  0.49749  0.18070  Biso   1.000  C
  C80      1.0000 0.51840  0.75251  0.18070  Biso   1.000  C
  C81      1.0000 0.76840  0.74749  0.93070  Biso   1.000  C
  C82      1.0000 0.48160  0.50251  0.93070  Biso   1.000  C
  C83      1.0000 0.76840  0.50251  0.31930  Biso   1.000  C
  C84      1.0000 0.48160  0.74749  0.31930  Biso   1.000  C
  C85      1.0000 0.76840  0.24749  0.43070  Biso   1.000  C
  C86      1.0000 0.48160  0.00251  0.43070  Biso   1.000  C
  C87      1.0000 0.76840  0.00251  0.81930  Biso   1.000  C
  C88      1.0000 0.48160  0.24749  0.81930  Biso   1.000  C
  C89      1.0000 0.26840  0.74749  0.43070  Biso   1.000  C
  C90      1.0000 0.98160  0.50251  0.43070  Biso   1.000  C
  C91      1.0000 0.26840  0.50251  0.81930  Biso   1.000  C
  C92      1.0000 0.98160  0.74749  0.81930  Biso   1.000  C
  C93      1.0000 0.26840  0.24749  0.93070  Biso   1.000  C
  C94      1.0000 0.98160  0.00251  0.93070  Biso   1.000  C
  C95      1.0000 0.26840  0.00251  0.31930  Biso   1.000  C
  C96      1.0000 0.98160  0.24749  0.31930  Biso   1.000  C
  H1       1.0000 0.21580  0.27530  0.06160  Biso   1.000  H
  H2       1.0000 0.03420  0.97470  0.06160  Biso   1.000  H
  H3       1.0000 0.21580  0.97470  0.18840  Biso   1.000  H
  H4       1.0000 0.03420  0.27530  0.18840  Biso   1.000  H
  H5       1.0000 0.21580  0.77530  0.56160  Biso   1.000  H
  H6       1.0000 0.03420  0.47470  0.56160  Biso   1.000  H
  H7       1.0000 0.21580  0.47470  0.68840  Biso   1.000  H
  H8       1.0000 0.03420  0.77530  0.68840  Biso   1.000  H
  H9       1.0000 0.71580  0.27530  0.56160  Biso   1.000  H
  H10      1.0000 0.53420  0.97470  0.56160  Biso   1.000  H
  H11      1.0000 0.71580  0.97470  0.68840  Biso   1.000  H
  H12      1.0000 0.53420  0.27530  0.68840  Biso   1.000  H
  H13      1.0000 0.71580  0.77530  0.06160  Biso   1.000  H
  H14      1.0000 0.53420  0.47470  0.06160  Biso   1.000  H
  H15      1.0000 0.71580  0.47470  0.18840  Biso   1.000  H
  H16      1.0000 0.53420  0.77530  0.18840  Biso   1.000  H
  H17      1.0000 0.78420  0.72470  0.93840  Biso   1.000  H
  H18      1.0000 0.46580  0.52530  0.93840  Biso   1.000  H
  H19      1.0000 0.78420  0.52530  0.31160  Biso   1.000  H
  H20      1.0000 0.46580  0.72470  0.31160  Biso   1.000  H
  H21      1.0000 0.78420  0.22470  0.43840  Biso   1.000  H
  H22      1.0000 0.46580  0.02530  0.43840  Biso   1.000  H
  H23      1.0000 0.78420  0.02530  0.81160  Biso   1.000  H
  H24      1.0000 0.46580  0.22470  0.81160  Biso   1.000  H
  H25      1.0000 0.28420  0.72470  0.43840  Biso   1.000  H
  H26      1.0000 0.96580  0.52530  0.43840  Biso   1.000  H
  H27      1.0000 0.28420  0.52530  0.81160  Biso   1.000  H
  H28      1.0000 0.96580  0.72470  0.81160  Biso   1.000  H
  H29      1.0000 0.28420  0.22470  0.93840  Biso   1.000  H
  H30      1.0000 0.96580  0.02530  0.93840  Biso   1.000  H
  H31      1.0000 0.28420  0.02530  0.31160  Biso   1.000  H
  H32      1.0000 0.96580  0.22470  0.31160  Biso   1.000  H
  C97      1.0000 0.19440  0.22640  0.08175  Biso   1.000  C
  C98      1.0000 0.05560  0.02360  0.08175  Biso   1.000  C
  C99      1.0000 0.19440  0.02360  0.16825  Biso   1.000  C
  C100     1.0000 0.05560  0.22640  0.16825  Biso   1.000  C
  C101     1.0000 0.19440  0.72640  0.58175  Biso   1.000  C
  C102     1.0000 0.05560  0.52360  0.58175  Biso   1.000  C
  C103     1.0000 0.19440  0.52360  0.66825  Biso   1.000  C
  C104     1.0000 0.05560  0.72640  0.66825  Biso   1.000  C
  C105     1.0000 0.69440  0.22640  0.58175  Biso   1.000  C
  C106     1.0000 0.55560  0.02360  0.58175  Biso   1.000  C
  C107     1.0000 0.69440  0.02360  0.66825  Biso   1.000  C
  C108     1.0000 0.55560  0.22640  0.66825  Biso   1.000  C
  C109     1.0000 0.69440  0.72640  0.08175  Biso   1.000  C
  C110     1.0000 0.55560  0.52360  0.08175  Biso   1.000  C
  C111     1.0000 0.69440  0.52360  0.16825  Biso   1.000  C
  C112     1.0000 0.55560  0.72640  0.16825  Biso   1.000  C
  C113     1.0000 0.80560  0.77360  0.91825  Biso   1.000  C
  C114     1.0000 0.44440  0.47640  0.91825  Biso   1.000  C
  C115     1.0000 0.80560  0.47640  0.33175  Biso   1.000  C
  C116     1.0000 0.44440  0.77360  0.33175  Biso   1.000  C
  C117     1.0000 0.80560  0.27360  0.41825  Biso   1.000  C
  C118     1.0000 0.44440  0.97640  0.41825  Biso   1.000  C
  C119     1.0000 0.80560  0.97640  0.83175  Biso   1.000  C
  C120     1.0000 0.44440  0.27360  0.83175  Biso   1.000  C
  C121     1.0000 0.30560  0.77360  0.41825  Biso   1.000  C
  C122     1.0000 0.94440  0.47640  0.41825  Biso   1.000  C
  C123     1.0000 0.30560  0.47640  0.83175  Biso   1.000  C
  C124     1.0000 0.94440  0.77360  0.83175  Biso   1.000  C
  C125     1.0000 0.30560  0.27360  0.91825  Biso   1.000  C
  C126     1.0000 0.94440  0.97640  0.91825  Biso   1.000  C
  C127     1.0000 0.30560  0.97640  0.33175  Biso   1.000  C
  C128     1.0000 0.94440  0.27360  0.33175  Biso   1.000  C
  H33      1.0000 0.15380  0.23160  0.08240  Biso   1.000  H
  H34      1.0000 0.09620  0.01840  0.08240  Biso   1.000  H
  H35      1.0000 0.15380  0.01840  0.16760  Biso   1.000  H
  H36      1.0000 0.09620  0.23160  0.16760  Biso   1.000  H
  H37      1.0000 0.15380  0.73160  0.58240  Biso   1.000  H
  H38      1.0000 0.09620  0.51840  0.58240  Biso   1.000  H
  H39      1.0000 0.15380  0.51840  0.66760  Biso   1.000  H
  H40      1.0000 0.09620  0.73160  0.66760  Biso   1.000  H
  H41      1.0000 0.65380  0.23160  0.58240  Biso   1.000  H
  H42      1.0000 0.59620  0.01840  0.58240  Biso   1.000  H
  H43      1.0000 0.65380  0.01840  0.66760  Biso   1.000  H
  H44      1.0000 0.59620  0.23160  0.66760  Biso   1.000  H
  H45      1.0000 0.65380  0.73160  0.08240  Biso   1.000  H
  H46      1.0000 0.59620  0.51840  0.08240  Biso   1.000  H
  H47      1.0000 0.65380  0.51840  0.16760  Biso   1.000  H
  H48      1.0000 0.59620  0.73160  0.16760  Biso   1.000  H
  H49      1.0000 0.84620  0.76840  0.91760  Biso   1.000  H
  H50      1.0000 0.40380  0.48160  0.91760  Biso   1.000  H
  H51      1.0000 0.84620  0.48160  0.33240  Biso   1.000  H
  H52      1.0000 0.40380  0.76840  0.33240  Biso   1.000  H
  H53      1.0000 0.84620  0.26840  0.41760  Biso   1.000  H
  H54      1.0000 0.40380  0.98160  0.41760  Biso   1.000  H
  H55      1.0000 0.84620  0.98160  0.83240  Biso   1.000  H
  H56      1.0000 0.40380  0.26840  0.83240  Biso   1.000  H
  H57      1.0000 0.34620  0.76840  0.41760  Biso   1.000  H
  H58      1.0000 0.90380  0.48160  0.41760  Biso   1.000  H
  H59      1.0000 0.34620  0.48160  0.83240  Biso   1.000  H
  H60      1.0000 0.90380  0.76840  0.83240  Biso   1.000  H
  H61      1.0000 0.34620  0.26840  0.91760  Biso   1.000  H
  H62      1.0000 0.90380  0.98160  0.91760  Biso   1.000  H
  H63      1.0000 0.34620  0.98160  0.33240  Biso   1.000  H
  H64      1.0000 0.90380  0.26840  0.33240  Biso   1.000  H
  N1       1.0000 0.21800  0.19230  0.09324  Biso   1.000  N
  N2       1.0000 0.03200  0.05770  0.09324  Biso   1.000  N
  N3       1.0000 0.21800  0.05770  0.15676  Biso   1.000  N
  N4       1.0000 0.03200  0.19230  0.15676  Biso   1.000  N
  N5       1.0000 0.21800  0.69230  0.59324  Biso   1.000  N
  N6       1.0000 0.03200  0.55770  0.59324  Biso   1.000  N
  N7       1.0000 0.21800  0.55770  0.65676  Biso   1.000  N
  N8       1.0000 0.03200  0.69230  0.65676  Biso   1.000  N
  N9       1.0000 0.71800  0.19230  0.59324  Biso   1.000  N
  N10      1.0000 0.53200  0.05770  0.59324  Biso   1.000  N
  N11      1.0000 0.71800  0.05770  0.65676  Biso   1.000  N
  N12      1.0000 0.53200  0.19230  0.65676  Biso   1.000  N
  N13      1.0000 0.71800  0.69230  0.09324  Biso   1.000  N
  N14      1.0000 0.53200  0.55770  0.09324  Biso   1.000  N
  N15      1.0000 0.71800  0.55770  0.15676  Biso   1.000  N
  N16      1.0000 0.53200  0.69230  0.15676  Biso   1.000  N
  N17      1.0000 0.78200  0.80770  0.90676  Biso   1.000  N
  N18      1.0000 0.46800  0.44230  0.90676  Biso   1.000  N
  N19      1.0000 0.78200  0.44230  0.34324  Biso   1.000  N
  N20      1.0000 0.46800  0.80770  0.34324  Biso   1.000  N
  N21      1.0000 0.78200  0.30770  0.40676  Biso   1.000  N
  N22      1.0000 0.46800  0.94230  0.40676  Biso   1.000  N
  N23      1.0000 0.78200  0.94230  0.84324  Biso   1.000  N
  N24      1.0000 0.46800  0.30770  0.84324  Biso   1.000  N
  N25      1.0000 0.28200  0.80770  0.40676  Biso   1.000  N
  N26      1.0000 0.96800  0.44230  0.40676  Biso   1.000  N
  N27      1.0000 0.28200  0.44230  0.84324  Biso   1.000  N
  N28      1.0000 0.96800  0.80770  0.84324  Biso   1.000  N
  N29      1.0000 0.28200  0.30770  0.90676  Biso   1.000  N
  N30      1.0000 0.96800  0.94230  0.90676  Biso   1.000  N
  N31      1.0000 0.28200  0.94230  0.34324  Biso   1.000  N
  N32      1.0000 0.96800  0.30770  0.34324  Biso   1.000  N
  C129     1.0000 0.27870  0.18448  0.09229  Biso   1.000  C
  C130     1.0000 0.97130  0.06552  0.09229  Biso   1.000  C
  C131     1.0000 0.27870  0.06552  0.15771  Biso   1.000  C
  C132     1.0000 0.97130  0.18448  0.15771  Biso   1.000  C
  C133     1.0000 0.27870  0.68448  0.59229  Biso   1.000  C
  C134     1.0000 0.97130  0.56552  0.59229  Biso   1.000  C
  C135     1.0000 0.27870  0.56552  0.65771  Biso   1.000  C
  C136     1.0000 0.97130  0.68448  0.65771  Biso   1.000  C
  C137     1.0000 0.77870  0.18448  0.59229  Biso   1.000  C
  C138     1.0000 0.47130  0.06552  0.59229  Biso   1.000  C
  C139     1.0000 0.77870  0.06552  0.65771  Biso   1.000  C
  C140     1.0000 0.47130  0.18448  0.65771  Biso   1.000  C
  C141     1.0000 0.77870  0.68448  0.09229  Biso   1.000  C
  C142     1.0000 0.47130  0.56552  0.09229  Biso   1.000  C
  C143     1.0000 0.77870  0.56552  0.15771  Biso   1.000  C
  C144     1.0000 0.47130  0.68448  0.15771  Biso   1.000  C
  C145     1.0000 0.72130  0.81552  0.90771  Biso   1.000  C
  C146     1.0000 0.52870  0.43448  0.90771  Biso   1.000  C
  C147     1.0000 0.72130  0.43448  0.34229  Biso   1.000  C
  C148     1.0000 0.52870  0.81552  0.34229  Biso   1.000  C
  C149     1.0000 0.72130  0.31552  0.40771  Biso   1.000  C
  C150     1.0000 0.52870  0.93448  0.40771  Biso   1.000  C
  C151     1.0000 0.72130  0.93448  0.84229  Biso   1.000  C
  C152     1.0000 0.52870  0.31552  0.84229  Biso   1.000  C
  C153     1.0000 0.22130  0.81552  0.40771  Biso   1.000  C
  C154     1.0000 0.02870  0.43448  0.40771  Biso   1.000  C
  C155     1.0000 0.22130  0.43448  0.84229  Biso   1.000  C
  C156     1.0000 0.02870  0.81552  0.84229  Biso   1.000  C
  C157     1.0000 0.22130  0.31552  0.90771  Biso   1.000  C
  C158     1.0000 0.02870  0.93448  0.90771  Biso   1.000  C
  C159     1.0000 0.22130  0.93448  0.34229  Biso   1.000  C
  C160     1.0000 0.02870  0.31552  0.34229  Biso   1.000  C
  H65      1.0000 0.29450  0.16170  0.10000  Biso   1.000  H
  H66      1.0000 0.95550  0.08830  0.10000  Biso   1.000  H
  H67      1.0000 0.29450  0.08830  0.15000  Biso   1.000  H
  H68      1.0000 0.95550  0.16170  0.15000  Biso   1.000  H
  H69      1.0000 0.29450  0.66170  0.60000  Biso   1.000  H
  H70      1.0000 0.95550  0.58830  0.60000  Biso   1.000  H
  H71      1.0000 0.29450  0.58830  0.65000  Biso   1.000  H
  H72      1.0000 0.95550  0.66170  0.65000  Biso   1.000  H
  H73      1.0000 0.79450  0.16170  0.60000  Biso   1.000  H
  H74      1.0000 0.45550  0.08830  0.60000  Biso   1.000  H
  H75      1.0000 0.79450  0.08830  0.65000  Biso   1.000  H
  H76      1.0000 0.45550  0.16170  0.65000  Biso   1.000  H
  H77      1.0000 0.79450  0.66170  0.10000  Biso   1.000  H
  H78      1.0000 0.45550  0.58830  0.10000  Biso   1.000  H
  H79      1.0000 0.79450  0.58830  0.15000  Biso   1.000  H
  H80      1.0000 0.45550  0.66170  0.15000  Biso   1.000  H
  H81      1.0000 0.70550  0.83830  0.90000  Biso   1.000  H
  H82      1.0000 0.54450  0.41170  0.90000  Biso   1.000  H
  H83      1.0000 0.70550  0.41170  0.35000  Biso   1.000  H
  H84      1.0000 0.54450  0.83830  0.35000  Biso   1.000  H
  H85      1.0000 0.70550  0.33830  0.40000  Biso   1.000  H
  H86      1.0000 0.54450  0.91170  0.40000  Biso   1.000  H
  H87      1.0000 0.70550  0.91170  0.85000  Biso   1.000  H
  H88      1.0000 0.54450  0.33830  0.85000  Biso   1.000  H
  H89      1.0000 0.20550  0.83830  0.40000  Biso   1.000  H
  H90      1.0000 0.04450  0.41170  0.40000  Biso   1.000  H
  H91      1.0000 0.20550  0.41170  0.85000  Biso   1.000  H
  H92      1.0000 0.04450  0.83830  0.85000  Biso   1.000  H
  H93      1.0000 0.20550  0.33830  0.90000  Biso   1.000  H
  H94      1.0000 0.04450  0.91170  0.90000  Biso   1.000  H
  H95      1.0000 0.20550  0.91170  0.35000  Biso   1.000  H
  H96      1.0000 0.04450  0.33830  0.35000  Biso   1.000  H
  C161     1.0000 0.31580  0.21064  0.07984  Biso   1.000  C
  C162     1.0000 0.93420  0.03936  0.07984  Biso   1.000  C
  C163     1.0000 0.31580  0.03936  0.17016  Biso   1.000  C
  C164     1.0000 0.93420  0.21064  0.17016  Biso   1.000  C
  C165     1.0000 0.31580  0.71064  0.57984  Biso   1.000  C
  C166     1.0000 0.93420  0.53936  0.57984  Biso   1.000  C
  C167     1.0000 0.31580  0.53936  0.67016  Biso   1.000  C
  C168     1.0000 0.93420  0.71064  0.67016  Biso   1.000  C
  C169     1.0000 0.81580  0.21064  0.57984  Biso   1.000  C
  C170     1.0000 0.43420  0.03936  0.57984  Biso   1.000  C
  C171     1.0000 0.81580  0.03936  0.67016  Biso   1.000  C
  C172     1.0000 0.43420  0.21064  0.67016  Biso   1.000  C
  C173     1.0000 0.81580  0.71064  0.07984  Biso   1.000  C
  C174     1.0000 0.43420  0.53936  0.07984  Biso   1.000  C
  C175     1.0000 0.81580  0.53936  0.17016  Biso   1.000  C
  C176     1.0000 0.43420  0.71064  0.17016  Biso   1.000  C
  C177     1.0000 0.68420  0.78936  0.92016  Biso   1.000  C
  C178     1.0000 0.56580  0.46064  0.92016  Biso   1.000  C
  C179     1.0000 0.68420  0.46064  0.32984  Biso   1.000  C
  C180     1.0000 0.56580  0.78936  0.32984  Biso   1.000  C
  C181     1.0000 0.68420  0.28936  0.42016  Biso   1.000  C
  C182     1.0000 0.56580  0.96064  0.42016  Biso   1.000  C
  C183     1.0000 0.68420  0.96064  0.82984  Biso   1.000  C
  C184     1.0000 0.56580  0.28936  0.82984  Biso   1.000  C
  C185     1.0000 0.18420  0.78936  0.42016  Biso   1.000  C
  C186     1.0000 0.06580  0.46064  0.42016  Biso   1.000  C
  C187     1.0000 0.18420  0.46064  0.82984  Biso   1.000  C
  C188     1.0000 0.06580  0.78936  0.82984  Biso   1.000  C
  C189     1.0000 0.18420  0.28936  0.92016  Biso   1.000  C
  C190     1.0000 0.06580  0.96064  0.92016  Biso   1.000  C
  C191     1.0000 0.18420  0.96064  0.32984  Biso   1.000  C
  C192     1.0000 0.06580  0.28936  0.32984  Biso   1.000  C
  H97      1.0000 0.35650  0.20540  0.07920  Biso   1.000  H
  H98      1.0000 0.89350  0.04460  0.07920  Biso   1.000  H
  H99      1.0000 0.35650  0.04460  0.17080  Biso   1.000  H
  H100     1.0000 0.89350  0.20540  0.17080  Biso   1.000  H
  H101     1.0000 0.35650  0.70540  0.57920  Biso   1.000  H
  H102     1.0000 0.89350  0.54460  0.57920  Biso   1.000  H
  H103     1.0000 0.35650  0.54460  0.67080  Biso   1.000  H
  H104     1.0000 0.89350  0.70540  0.67080  Biso   1.000  H
  H105     1.0000 0.85650  0.20540  0.57920  Biso   1.000  H
  H106     1.0000 0.39350  0.04460  0.57920  Biso   1.000  H
  H107     1.0000 0.85650  0.04460  0.67080  Biso   1.000  H
  H108     1.0000 0.39350  0.20540  0.67080  Biso   1.000  H
  H109     1.0000 0.85650  0.70540  0.07920  Biso   1.000  H
  H110     1.0000 0.39350  0.54460  0.07920  Biso   1.000  H
  H111     1.0000 0.85650  0.54460  0.17080  Biso   1.000  H
  H112     1.0000 0.39350  0.70540  0.17080  Biso   1.000  H
  H113     1.0000 0.64350  0.79460  0.92080  Biso   1.000  H
  H114     1.0000 0.60650  0.45540  0.92080  Biso   1.000  H
  H115     1.0000 0.64350  0.45540  0.32920  Biso   1.000  H
  H116     1.0000 0.60650  0.79460  0.32920  Biso   1.000  H
  H117     1.0000 0.64350  0.29460  0.42080  Biso   1.000  H
  H118     1.0000 0.60650  0.95540  0.42080  Biso   1.000  H
  H119     1.0000 0.64350  0.95540  0.82920  Biso   1.000  H
  H120     1.0000 0.60650  0.29460  0.82920  Biso   1.000  H
  H121     1.0000 0.14350  0.79460  0.42080  Biso   1.000  H
  H122     1.0000 0.10650  0.45540  0.42080  Biso   1.000  H
  H123     1.0000 0.14350  0.45540  0.82920  Biso   1.000  H
  H124     1.0000 0.10650  0.79460  0.82920  Biso   1.000  H
  H125     1.0000 0.14350  0.29460  0.92080  Biso   1.000  H
  H126     1.0000 0.10650  0.95540  0.92080  Biso   1.000  H
  H127     1.0000 0.14350  0.95540  0.32920  Biso   1.000  H
  H128     1.0000 0.10650  0.29460  0.32920  Biso   1.000  H
  C193     1.0000 0.45170  0.36290  0.08016  Biso   1.000  C
  C194     1.0000 0.79830  0.88710  0.08016  Biso   1.000  C
  C195     1.0000 0.45170  0.88710  0.16984  Biso   1.000  C
  C196     1.0000 0.79830  0.36290  0.16984  Biso   1.000  C
  C197     1.0000 0.45170  0.86290  0.58016  Biso   1.000  C
  C198     1.0000 0.79830  0.38710  0.58016  Biso   1.000  C
  C199     1.0000 0.45170  0.38710  0.66984  Biso   1.000  C
  C200     1.0000 0.79830  0.86290  0.66984  Biso   1.000  C
  C201     1.0000 0.95170  0.36290  0.58016  Biso   1.000  C
  C202     1.0000 0.29830  0.88710  0.58016  Biso   1.000  C
  C203     1.0000 0.95170  0.88710  0.66984  Biso   1.000  C
  C204     1.0000 0.29830  0.36290  0.66984  Biso   1.000  C
  C205     1.0000 0.95170  0.86290  0.08016  Biso   1.000  C
  C206     1.0000 0.29830  0.38710  0.08016  Biso   1.000  C
  C207     1.0000 0.95170  0.38710  0.16984  Biso   1.000  C
  C208     1.0000 0.29830  0.86290  0.16984  Biso   1.000  C
  C209     1.0000 0.54830  0.63710  0.91984  Biso   1.000  C
  C210     1.0000 0.70170  0.61290  0.91984  Biso   1.000  C
  C211     1.0000 0.54830  0.61290  0.33016  Biso   1.000  C
  C212     1.0000 0.70170  0.63710  0.33016  Biso   1.000  C
  C213     1.0000 0.54830  0.13710  0.41984  Biso   1.000  C
  C214     1.0000 0.70170  0.11290  0.41984  Biso   1.000  C
  C215     1.0000 0.54830  0.11290  0.83016  Biso   1.000  C
  C216     1.0000 0.70170  0.13710  0.83016  Biso   1.000  C
  C217     1.0000 0.04830  0.63710  0.41984  Biso   1.000  C
  C218     1.0000 0.20170  0.61290  0.41984  Biso   1.000  C
  C219     1.0000 0.04830  0.61290  0.83016  Biso   1.000  C
  C220     1.0000 0.20170  0.63710  0.83016  Biso   1.000  C
  C221     1.0000 0.04830  0.13710  0.91984  Biso   1.000  C
  C222     1.0000 0.20170  0.11290  0.91984  Biso   1.000  C
  C223     1.0000 0.04830  0.11290  0.33016  Biso   1.000  C
  C224     1.0000 0.20170  0.13710  0.33016  Biso   1.000  C
  C225     1.0000 0.45673  0.36886  0.10358  Biso   1.000  C
  C226     1.0000 0.79327  0.88114  0.10358  Biso   1.000  C
  C227     1.0000 0.45673  0.88114  0.14642  Biso   1.000  C
  C228     1.0000 0.79327  0.36886  0.14642  Biso   1.000  C
  C229     1.0000 0.45673  0.86886  0.60358  Biso   1.000  C
  C230     1.0000 0.79327  0.38114  0.60358  Biso   1.000  C
  C231     1.0000 0.45673  0.38114  0.64642  Biso   1.000  C
  C232     1.0000 0.79327  0.86886  0.64642  Biso   1.000  C
  C233     1.0000 0.95673  0.36886  0.60358  Biso   1.000  C
  C234     1.0000 0.29327  0.88114  0.60358  Biso   1.000  C
  C235     1.0000 0.95673  0.88114  0.64642  Biso   1.000  C
  C236     1.0000 0.29327  0.36886  0.64642  Biso   1.000  C
  C237     1.0000 0.95673  0.86886  0.10358  Biso   1.000  C
  C238     1.0000 0.29327  0.38114  0.10358  Biso   1.000  C
  C239     1.0000 0.95673  0.38114  0.14642  Biso   1.000  C
  C240     1.0000 0.29327  0.86886  0.14642  Biso   1.000  C
  C241     1.0000 0.54327  0.63114  0.89642  Biso   1.000  C
  C242     1.0000 0.70673  0.61886  0.89642  Biso   1.000  C
  C243     1.0000 0.54327  0.61886  0.35358  Biso   1.000  C
  C244     1.0000 0.70673  0.63114  0.35358  Biso   1.000  C
  C245     1.0000 0.54327  0.13114  0.39642  Biso   1.000  C
  C246     1.0000 0.70673  0.11886  0.39642  Biso   1.000  C
  C247     1.0000 0.54327  0.11886  0.85358  Biso   1.000  C
  C248     1.0000 0.70673  0.13114  0.85358  Biso   1.000  C
  C249     1.0000 0.04327  0.63114  0.39642  Biso   1.000  C
  C250     1.0000 0.20673  0.61886  0.39642  Biso   1.000  C
  C251     1.0000 0.04327  0.61886  0.85358  Biso   1.000  C
  C252     1.0000 0.20673  0.63114  0.85358  Biso   1.000  C
  C253     1.0000 0.04327  0.13114  0.89642  Biso   1.000  C
  C254     1.0000 0.20673  0.11886  0.89642  Biso   1.000  C
  C255     1.0000 0.04327  0.11886  0.35358  Biso   1.000  C
  C256     1.0000 0.20673  0.13114  0.35358  Biso   1.000  C
  C257     1.0000 0.44320  0.40599  0.11451  Biso   1.000  C
  C258     1.0000 0.80680  0.84401  0.11451  Biso   1.000  C
  C259     1.0000 0.44320  0.84401  0.13549  Biso   1.000  C
  C260     1.0000 0.80680  0.40599  0.13549  Biso   1.000  C
  C261     1.0000 0.44320  0.90599  0.61451  Biso   1.000  C
  C262     1.0000 0.80680  0.34401  0.61451  Biso   1.000  C
  C263     1.0000 0.44320  0.34401  0.63549  Biso   1.000  C
  C264     1.0000 0.80680  0.90599  0.63549  Biso   1.000  C
  C265     1.0000 0.94320  0.40599  0.61451  Biso   1.000  C
  C266     1.0000 0.30680  0.84401  0.61451  Biso   1.000  C
  C267     1.0000 0.94320  0.84401  0.63549  Biso   1.000  C
  C268     1.0000 0.30680  0.40599  0.63549  Biso   1.000  C
  C269     1.0000 0.94320  0.90599  0.11451  Biso   1.000  C
  C270     1.0000 0.30680  0.34401  0.11451  Biso   1.000  C
  C271     1.0000 0.94320  0.34401  0.13549  Biso   1.000  C
  C272     1.0000 0.30680  0.90599  0.13549  Biso   1.000  C
  C273     1.0000 0.55680  0.59401  0.88549  Biso   1.000  C
  C274     1.0000 0.69320  0.65599  0.88549  Biso   1.000  C
  C275     1.0000 0.55680  0.65599  0.36451  Biso   1.000  C
  C276     1.0000 0.69320  0.59401  0.36451  Biso   1.000  C
  C277     1.0000 0.55680  0.09401  0.38549  Biso   1.000  C
  C278     1.0000 0.69320  0.15599  0.38549  Biso   1.000  C
  C279     1.0000 0.55680  0.15599  0.86451  Biso   1.000  C
  C280     1.0000 0.69320  0.09401  0.86451  Biso   1.000  C
  C281     1.0000 0.05680  0.59401  0.38549  Biso   1.000  C
  C282     1.0000 0.19320  0.65599  0.38549  Biso   1.000  C
  C283     1.0000 0.05680  0.65599  0.86451  Biso   1.000  C
  C284     1.0000 0.19320  0.59401  0.86451  Biso   1.000  C
  C285     1.0000 0.05680  0.09401  0.88549  Biso   1.000  C
  C286     1.0000 0.19320  0.15599  0.88549  Biso   1.000  C
  C287     1.0000 0.05680  0.15599  0.36451  Biso   1.000  C
  C288     1.0000 0.19320  0.09401  0.36451  Biso   1.000  C
  H129     1.0000 0.43720  0.42990  0.10580  Biso   1.000  H
  H130     1.0000 0.81280  0.82010  0.10580  Biso   1.000  H
  H131     1.0000 0.43720  0.82010  0.14420  Biso   1.000  H
  H132     1.0000 0.81280  0.42990  0.14420  Biso   1.000  H
  H133     1.0000 0.43720  0.92990  0.60580  Biso   1.000  H
  H134     1.0000 0.81280  0.32010  0.60580  Biso   1.000  H
  H135     1.0000 0.43720  0.32010  0.64420  Biso   1.000  H
  H136     1.0000 0.81280  0.92990  0.64420  Biso   1.000  H
  H137     1.0000 0.93720  0.42990  0.60580  Biso   1.000  H
  H138     1.0000 0.31280  0.82010  0.60580  Biso   1.000  H
  H139     1.0000 0.93720  0.82010  0.64420  Biso   1.000  H
  H140     1.0000 0.31280  0.42990  0.64420  Biso   1.000  H
  H141     1.0000 0.93720  0.92990  0.10580  Biso   1.000  H
  H142     1.0000 0.31280  0.32010  0.10580  Biso   1.000  H
  H143     1.0000 0.93720  0.32010  0.14420  Biso   1.000  H
  H144     1.0000 0.31280  0.92990  0.14420  Biso   1.000  H
  H145     1.0000 0.56280  0.57010  0.89420  Biso   1.000  H
  H146     1.0000 0.68720  0.67990  0.89420  Biso   1.000  H
  H147     1.0000 0.56280  0.67990  0.35580  Biso   1.000  H
  H148     1.0000 0.68720  0.57010  0.35580  Biso   1.000  H
  H149     1.0000 0.56280  0.07010  0.39420  Biso   1.000  H
  H150     1.0000 0.68720  0.17990  0.39420  Biso   1.000  H
  H151     1.0000 0.56280  0.17990  0.85580  Biso   1.000  H
  H152     1.0000 0.68720  0.07010  0.85580  Biso   1.000  H
  H153     1.0000 0.06280  0.57010  0.39420  Biso   1.000  H
  H154     1.0000 0.18720  0.67990  0.39420  Biso   1.000  H
  H155     1.0000 0.06280  0.67990  0.85580  Biso   1.000  H
  H156     1.0000 0.18720  0.57010  0.85580  Biso   1.000  H
  H157     1.0000 0.06280  0.07010  0.89420  Biso   1.000  H
  H158     1.0000 0.18720  0.17990  0.89420  Biso   1.000  H
  H159     1.0000 0.06280  0.17990  0.35580  Biso   1.000  H
  H160     1.0000 0.18720  0.07010  0.35580  Biso   1.000  H
  C289     1.0000 0.43860  0.40746  0.13842  Biso   1.000  C
  C290     1.0000 0.81140  0.84254  0.13842  Biso   1.000  C
  C291     1.0000 0.43860  0.84254  0.11158  Biso   1.000  C
  C292     1.0000 0.81140  0.40746  0.11158  Biso   1.000  C
  C293     1.0000 0.43860  0.90746  0.63842  Biso   1.000  C
  C294     1.0000 0.81140  0.34254  0.63842  Biso   1.000  C
  C295     1.0000 0.43860  0.34254  0.61158  Biso   1.000  C
  C296     1.0000 0.81140  0.90746  0.61158  Biso   1.000  C
  C297     1.0000 0.93860  0.40746  0.63842  Biso   1.000  C
  C298     1.0000 0.31140  0.84254  0.63842  Biso   1.000  C
  C299     1.0000 0.93860  0.84254  0.61158  Biso   1.000  C
  C300     1.0000 0.31140  0.40746  0.61158  Biso   1.000  C
  C301     1.0000 0.93860  0.90746  0.13842  Biso   1.000  C
  C302     1.0000 0.31140  0.34254  0.13842  Biso   1.000  C
  C303     1.0000 0.93860  0.34254  0.11158  Biso   1.000  C
  C304     1.0000 0.31140  0.90746  0.11158  Biso   1.000  C
  C305     1.0000 0.56140  0.59254  0.86158  Biso   1.000  C
  C306     1.0000 0.68860  0.65746  0.86158  Biso   1.000  C
  C307     1.0000 0.56140  0.65746  0.38842  Biso   1.000  C
  C308     1.0000 0.68860  0.59254  0.38842  Biso   1.000  C
  C309     1.0000 0.56140  0.09254  0.36158  Biso   1.000  C
  C310     1.0000 0.68860  0.15746  0.36158  Biso   1.000  C
  C311     1.0000 0.56140  0.15746  0.88842  Biso   1.000  C
  C312     1.0000 0.68860  0.09254  0.88842  Biso   1.000  C
  C313     1.0000 0.06140  0.59254  0.36158  Biso   1.000  C
  C314     1.0000 0.18860  0.65746  0.36158  Biso   1.000  C
  C315     1.0000 0.06140  0.65746  0.88842  Biso   1.000  C
  C316     1.0000 0.18860  0.59254  0.88842  Biso   1.000  C
  C317     1.0000 0.06140  0.09254  0.86158  Biso   1.000  C
  C318     1.0000 0.18860  0.15746  0.86158  Biso   1.000  C
  C319     1.0000 0.06140  0.15746  0.38842  Biso   1.000  C
  C320     1.0000 0.18860  0.09254  0.38842  Biso   1.000  C
  H161     1.0000 0.42960  0.43230  0.14570  Biso   1.000  H
  H162     1.0000 0.82040  0.81770  0.14570  Biso   1.000  H
  H163     1.0000 0.42960  0.81770  0.10430  Biso   1.000  H
  H164     1.0000 0.82040  0.43230  0.10430  Biso   1.000  H
  H165     1.0000 0.42960  0.93230  0.64570  Biso   1.000  H
  H166     1.0000 0.82040  0.31770  0.64570  Biso   1.000  H
  H167     1.0000 0.42960  0.31770  0.60430  Biso   1.000  H
  H168     1.0000 0.82040  0.93230  0.60430  Biso   1.000  H
  H169     1.0000 0.92960  0.43230  0.64570  Biso   1.000  H
  H170     1.0000 0.32040  0.81770  0.64570  Biso   1.000  H
  H171     1.0000 0.92960  0.81770  0.60430  Biso   1.000  H
  H172     1.0000 0.32040  0.43230  0.60430  Biso   1.000  H
  H173     1.0000 0.92960  0.93230  0.14570  Biso   1.000  H
  H174     1.0000 0.32040  0.31770  0.14570  Biso   1.000  H
  H175     1.0000 0.92960  0.31770  0.10430  Biso   1.000  H
  H176     1.0000 0.32040  0.93230  0.10430  Biso   1.000  H
  H177     1.0000 0.57040  0.56770  0.85430  Biso   1.000  H
  H178     1.0000 0.67960  0.68230  0.85430  Biso   1.000  H
  H179     1.0000 0.57040  0.68230  0.39570  Biso   1.000  H
  H180     1.0000 0.67960  0.56770  0.39570  Biso   1.000  H
  H181     1.0000 0.57040  0.06770  0.35430  Biso   1.000  H
  H182     1.0000 0.67960  0.18230  0.35430  Biso   1.000  H
  H183     1.0000 0.57040  0.18230  0.89570  Biso   1.000  H
  H184     1.0000 0.67960  0.06770  0.89570  Biso   1.000  H
  H185     1.0000 0.07040  0.56770  0.35430  Biso   1.000  H
  H186     1.0000 0.17960  0.68230  0.35430  Biso   1.000  H
  H187     1.0000 0.07040  0.68230  0.89570  Biso   1.000  H
  H188     1.0000 0.17960  0.56770  0.89570  Biso   1.000  H
  H189     1.0000 0.07040  0.06770  0.85430  Biso   1.000  H
  H190     1.0000 0.17960  0.18230  0.85430  Biso   1.000  H
  H191     1.0000 0.07040  0.18230  0.39570  Biso   1.000  H
  H192     1.0000 0.17960  0.06770  0.39570  Biso   1.000  H
  N33      1.0000 0.44760  0.37180  0.15139  Biso   1.000  N
  N34      1.0000 0.80240  0.87820  0.15139  Biso   1.000  N
  N35      1.0000 0.44760  0.87820  0.09861  Biso   1.000  N
  N36      1.0000 0.80240  0.37180  0.09861  Biso   1.000  N
  N37      1.0000 0.44760  0.87180  0.65139  Biso   1.000  N
  N38      1.0000 0.80240  0.37820  0.65139  Biso   1.000  N
  N39      1.0000 0.44760  0.37820  0.59861  Biso   1.000  N
  N40      1.0000 0.80240  0.87180  0.59861  Biso   1.000  N
  N41      1.0000 0.94760  0.37180  0.65139  Biso   1.000  N
  N42      1.0000 0.30240  0.87820  0.65139  Biso   1.000  N
  N43      1.0000 0.94760  0.87820  0.59861  Biso   1.000  N
  N44      1.0000 0.30240  0.37180  0.59861  Biso   1.000  N
  N45      1.0000 0.94760  0.87180  0.15139  Biso   1.000  N
  N46      1.0000 0.30240  0.37820  0.15139  Biso   1.000  N
  N47      1.0000 0.94760  0.37820  0.09861  Biso   1.000  N
  N48      1.0000 0.30240  0.87180  0.09861  Biso   1.000  N
  N49      1.0000 0.55240  0.62820  0.84861  Biso   1.000  N
  N50      1.0000 0.69760  0.62180  0.84861  Biso   1.000  N
  N51      1.0000 0.55240  0.62180  0.40139  Biso   1.000  N
  N52      1.0000 0.69760  0.62820  0.40139  Biso   1.000  N
  N53      1.0000 0.55240  0.12820  0.34861  Biso   1.000  N
  N54      1.0000 0.69760  0.12180  0.34861  Biso   1.000  N
  N55      1.0000 0.55240  0.12180  0.90139  Biso   1.000  N
  N56      1.0000 0.69760  0.12820  0.90139  Biso   1.000  N
  N57      1.0000 0.05240  0.62820  0.34861  Biso   1.000  N
  N58      1.0000 0.19760  0.62180  0.34861  Biso   1.000  N
  N59      1.0000 0.05240  0.62180  0.90139  Biso   1.000  N
  N60      1.0000 0.19760  0.62820  0.90139  Biso   1.000  N
  N61      1.0000 0.05240  0.12820  0.84861  Biso   1.000  N
  N62      1.0000 0.19760  0.12180  0.84861  Biso   1.000  N
  N63      1.0000 0.05240  0.12180  0.40139  Biso   1.000  N
  N64      1.0000 0.19760  0.12820  0.40139  Biso   1.000  N
  C321     1.0000 0.46110  0.33467  0.14046  Biso   1.000  C
  C322     1.0000 0.78890  0.91533  0.14046  Biso   1.000  C
  C323     1.0000 0.46110  0.91533  0.10954  Biso   1.000  C
  C324     1.0000 0.78890  0.33467  0.10954  Biso   1.000  C
  C325     1.0000 0.46110  0.83467  0.64046  Biso   1.000  C
  C326     1.0000 0.78890  0.41533  0.64046  Biso   1.000  C
  C327     1.0000 0.46110  0.41533  0.60954  Biso   1.000  C
  C328     1.0000 0.78890  0.83467  0.60954  Biso   1.000  C
  C329     1.0000 0.96110  0.33467  0.64046  Biso   1.000  C
  C330     1.0000 0.28890  0.91533  0.64046  Biso   1.000  C
  C331     1.0000 0.96110  0.91533  0.60954  Biso   1.000  C
  C332     1.0000 0.28890  0.33467  0.60954  Biso   1.000  C
  C333     1.0000 0.96110  0.83467  0.14046  Biso   1.000  C
  C334     1.0000 0.28890  0.41533  0.14046  Biso   1.000  C
  C335     1.0000 0.96110  0.41533  0.10954  Biso   1.000  C
  C336     1.0000 0.28890  0.83467  0.10954  Biso   1.000  C
  C337     1.0000 0.53890  0.66533  0.85954  Biso   1.000  C
  C338     1.0000 0.71110  0.58467  0.85954  Biso   1.000  C
  C339     1.0000 0.53890  0.58467  0.39046  Biso   1.000  C
  C340     1.0000 0.71110  0.66533  0.39046  Biso   1.000  C
  C341     1.0000 0.53890  0.16533  0.35954  Biso   1.000  C
  C342     1.0000 0.71110  0.08467  0.35954  Biso   1.000  C
  C343     1.0000 0.53890  0.08467  0.89046  Biso   1.000  C
  C344     1.0000 0.71110  0.16533  0.89046  Biso   1.000  C
  C345     1.0000 0.03890  0.66533  0.35954  Biso   1.000  C
  C346     1.0000 0.21110  0.58467  0.35954  Biso   1.000  C
  C347     1.0000 0.03890  0.58467  0.89046  Biso   1.000  C
  C348     1.0000 0.21110  0.66533  0.89046  Biso   1.000  C
  C349     1.0000 0.03890  0.16533  0.85954  Biso   1.000  C
  C350     1.0000 0.21110  0.08467  0.85954  Biso   1.000  C
  C351     1.0000 0.03890  0.08467  0.39046  Biso   1.000  C
  C352     1.0000 0.21110  0.16533  0.39046  Biso   1.000  C
  H193     1.0000 0.46710  0.31080  0.14910  Biso   1.000  H
  H194     1.0000 0.78290  0.93920  0.14910  Biso   1.000  H
  H195     1.0000 0.46710  0.93920  0.10090  Biso   1.000  H
  H196     1.0000 0.78290  0.31080  0.10090  Biso   1.000  H
  H197     1.0000 0.46710  0.81080  0.64910  Biso   1.000  H
  H198     1.0000 0.78290  0.43920  0.64910  Biso   1.000  H
  H199     1.0000 0.46710  0.43920  0.60090  Biso   1.000  H
  H200     1.0000 0.78290  0.81080  0.60090  Biso   1.000  H
  H201     1.0000 0.96710  0.31080  0.64910  Biso   1.000  H
  H202     1.0000 0.28290  0.93920  0.64910  Biso   1.000  H
  H203     1.0000 0.96710  0.93920  0.60090  Biso   1.000  H
  H204     1.0000 0.28290  0.31080  0.60090  Biso   1.000  H
  H205     1.0000 0.96710  0.81080  0.14910  Biso   1.000  H
  H206     1.0000 0.28290  0.43920  0.14910  Biso   1.000  H
  H207     1.0000 0.96710  0.43920  0.10090  Biso   1.000  H
  H208     1.0000 0.28290  0.81080  0.10090  Biso   1.000  H
  H209     1.0000 0.53290  0.68920  0.85090  Biso   1.000  H
  H210     1.0000 0.71710  0.56080  0.85090  Biso   1.000  H
  H211     1.0000 0.53290  0.56080  0.39910  Biso   1.000  H
  H212     1.0000 0.71710  0.68920  0.39910  Biso   1.000  H
  H213     1.0000 0.53290  0.18920  0.35090  Biso   1.000  H
  H214     1.0000 0.71710  0.06080  0.35090  Biso   1.000  H
  H215     1.0000 0.53290  0.06080  0.89910  Biso   1.000  H
  H216     1.0000 0.71710  0.18920  0.89910  Biso   1.000  H
  H217     1.0000 0.03290  0.68920  0.35090  Biso   1.000  H
  H218     1.0000 0.21710  0.56080  0.35090  Biso   1.000  H
  H219     1.0000 0.03290  0.56080  0.89910  Biso   1.000  H
  H220     1.0000 0.21710  0.68920  0.89910  Biso   1.000  H
  H221     1.0000 0.03290  0.18920  0.85090  Biso   1.000  H
  H222     1.0000 0.21710  0.06080  0.85090  Biso   1.000  H
  H223     1.0000 0.03290  0.06080  0.39910  Biso   1.000  H
  H224     1.0000 0.21710  0.18920  0.39910  Biso   1.000  H
  C353     1.0000 0.46570  0.33320  0.11655  Biso   1.000  C
  C354     1.0000 0.78430  0.91680  0.11655  Biso   1.000  C
  C355     1.0000 0.46570  0.91680  0.13345  Biso   1.000  C
  C356     1.0000 0.78430  0.33320  0.13345  Biso   1.000  C
  C357     1.0000 0.46570  0.83320  0.61655  Biso   1.000  C
  C358     1.0000 0.78430  0.41680  0.61655  Biso   1.000  C
  C359     1.0000 0.46570  0.41680  0.63345  Biso   1.000  C
  C360     1.0000 0.78430  0.83320  0.63345  Biso   1.000  C
  C361     1.0000 0.96570  0.33320  0.61655  Biso   1.000  C
  C362     1.0000 0.28430  0.91680  0.61655  Biso   1.000  C
  C363     1.0000 0.96570  0.91680  0.63345  Biso   1.000  C
  C364     1.0000 0.28430  0.33320  0.63345  Biso   1.000  C
  C365     1.0000 0.96570  0.83320  0.11655  Biso   1.000  C
  C366     1.0000 0.28430  0.41680  0.11655  Biso   1.000  C
  C367     1.0000 0.96570  0.41680  0.13345  Biso   1.000  C
  C368     1.0000 0.28430  0.83320  0.13345  Biso   1.000  C
  C369     1.0000 0.53430  0.66680  0.88345  Biso   1.000  C
  C370     1.0000 0.71570  0.58320  0.88345  Biso   1.000  C
  C371     1.0000 0.53430  0.58320  0.36655  Biso   1.000  C
  C372     1.0000 0.71570  0.66680  0.36655  Biso   1.000  C
  C373     1.0000 0.53430  0.16680  0.38345  Biso   1.000  C
  C374     1.0000 0.71570  0.08320  0.38345  Biso   1.000  C
  C375     1.0000 0.53430  0.08320  0.86655  Biso   1.000  C
  C376     1.0000 0.71570  0.16680  0.86655  Biso   1.000  C
  C377     1.0000 0.03430  0.66680  0.38345  Biso   1.000  C
  C378     1.0000 0.21570  0.58320  0.38345  Biso   1.000  C
  C379     1.0000 0.03430  0.58320  0.86655  Biso   1.000  C
  C380     1.0000 0.21570  0.66680  0.86655  Biso   1.000  C
  C381     1.0000 0.03430  0.16680  0.88345  Biso   1.000  C
  C382     1.0000 0.21570  0.08320  0.88345  Biso   1.000  C
  C383     1.0000 0.03430  0.08320  0.36655  Biso   1.000  C
  C384     1.0000 0.21570  0.16680  0.36655  Biso   1.000  C
  H225     1.0000 0.47470  0.30840  0.10920  Biso   1.000  H
  H226     1.0000 0.77530  0.94160  0.10920  Biso   1.000  H
  H227     1.0000 0.47470  0.94160  0.14080  Biso   1.000  H
  H228     1.0000 0.77530  0.30840  0.14080  Biso   1.000  H
  H229     1.0000 0.47470  0.80840  0.60920  Biso   1.000  H
  H230     1.0000 0.77530  0.44160  0.60920  Biso   1.000  H
  H231     1.0000 0.47470  0.44160  0.64080  Biso   1.000  H
  H232     1.0000 0.77530  0.80840  0.64080  Biso   1.000  H
  H233     1.0000 0.97470  0.30840  0.60920  Biso   1.000  H
  H234     1.0000 0.27530  0.94160  0.60920  Biso   1.000  H
  H235     1.0000 0.97470  0.94160  0.64080  Biso   1.000  H
  H236     1.0000 0.27530  0.30840  0.64080  Biso   1.000  H
  H237     1.0000 0.97470  0.80840  0.10920  Biso   1.000  H
  H238     1.0000 0.27530  0.44160  0.10920  Biso   1.000  H
  H239     1.0000 0.97470  0.44160  0.14080  Biso   1.000  H
  H240     1.0000 0.27530  0.80840  0.14080  Biso   1.000  H
  H241     1.0000 0.52530  0.69160  0.89080  Biso   1.000  H
  H242     1.0000 0.72470  0.55840  0.89080  Biso   1.000  H
  H243     1.0000 0.52530  0.55840  0.35920  Biso   1.000  H
  H244     1.0000 0.72470  0.69160  0.35920  Biso   1.000  H
  H245     1.0000 0.52530  0.19160  0.39080  Biso   1.000  H
  H246     1.0000 0.72470  0.05840  0.39080  Biso   1.000  H
  H247     1.0000 0.52530  0.05840  0.85920  Biso   1.000  H
  H248     1.0000 0.72470  0.19160  0.85920  Biso   1.000  H
  H249     1.0000 0.02530  0.69160  0.39080  Biso   1.000  H
  H250     1.0000 0.22470  0.55840  0.39080  Biso   1.000  H
  H251     1.0000 0.02530  0.55840  0.85920  Biso   1.000  H
  H252     1.0000 0.22470  0.69160  0.85920  Biso   1.000  H
  H253     1.0000 0.02530  0.19160  0.89080  Biso   1.000  H
  H254     1.0000 0.22470  0.05840  0.89080  Biso   1.000  H
  H255     1.0000 0.02530  0.05840  0.35920  Biso   1.000  H
  H256     1.0000 0.22470  0.19160  0.35920  Biso   1.000  H
  C385     1.0000 0.55522  0.35710  0.03350  Biso   1.000  C
  C386     1.0000 0.69478  0.89290  0.03350  Biso   1.000  C
  C387     1.0000 0.55522  0.89290  0.21650  Biso   1.000  C
  C388     1.0000 0.69478  0.35710  0.21650  Biso   1.000  C
  C389     1.0000 0.55522  0.85710  0.53350  Biso   1.000  C
  C390     1.0000 0.69478  0.39290  0.53350  Biso   1.000  C
  C391     1.0000 0.55522  0.39290  0.71650  Biso   1.000  C
  C392     1.0000 0.69478  0.85710  0.71650  Biso   1.000  C
  C393     1.0000 0.05522  0.35710  0.53350  Biso   1.000  C
  C394     1.0000 0.19478  0.89290  0.53350  Biso   1.000  C
  C395     1.0000 0.05522  0.89290  0.71650  Biso   1.000  C
  C396     1.0000 0.19478  0.35710  0.71650  Biso   1.000  C
  C397     1.0000 0.05522  0.85710  0.03350  Biso   1.000  C
  C398     1.0000 0.19478  0.39290  0.03350  Biso   1.000  C
  C399     1.0000 0.05522  0.39290  0.21650  Biso   1.000  C
  C400     1.0000 0.19478  0.85710  0.21650  Biso   1.000  C
  C401     1.0000 0.44478  0.64290  0.96650  Biso   1.000  C
  C402     1.0000 0.80522  0.60710  0.96650  Biso   1.000  C
  C403     1.0000 0.44478  0.60710  0.28350  Biso   1.000  C
  C404     1.0000 0.80522  0.64290  0.28350  Biso   1.000  C
  C405     1.0000 0.44478  0.14290  0.46650  Biso   1.000  C
  C406     1.0000 0.80522  0.10710  0.46650  Biso   1.000  C
  C407     1.0000 0.44478  0.10710  0.78350  Biso   1.000  C
  C408     1.0000 0.80522  0.14290  0.78350  Biso   1.000  C
  C409     1.0000 0.94478  0.64290  0.46650  Biso   1.000  C
  C410     1.0000 0.30522  0.60710  0.46650  Biso   1.000  C
  C411     1.0000 0.94478  0.60710  0.78350  Biso   1.000  C
  C412     1.0000 0.30522  0.64290  0.78350  Biso   1.000  C
  C413     1.0000 0.94478  0.14290  0.96650  Biso   1.000  C
  C414     1.0000 0.30522  0.10710  0.96650  Biso   1.000  C
  C415     1.0000 0.94478  0.10710  0.28350  Biso   1.000  C
  C416     1.0000 0.30522  0.14290  0.28350  Biso   1.000  C
  C417     1.0000 0.70909  0.33017  0.04410  Biso   1.000  C
  C418     1.0000 0.54091  0.91983  0.04410  Biso   1.000  C
  C419     1.0000 0.70909  0.91983  0.20590  Biso   1.000  C
  C420     1.0000 0.54091  0.33017  0.20590  Biso   1.000  C
  C421     1.0000 0.70909  0.83017  0.54410  Biso   1.000  C
  C422     1.0000 0.54091  0.41983  0.54410  Biso   1.000  C
  C423     1.0000 0.70909  0.41983  0.70590  Biso   1.000  C
  C424     1.0000 0.54091  0.83017  0.70590  Biso   1.000  C
  C425     1.0000 0.20909  0.33017  0.54410  Biso   1.000  C
  C426     1.0000 0.04091  0.91983  0.54410  Biso   1.000  C
  C427     1.0000 0.20909  0.91983  0.70590  Biso   1.000  C
  C428     1.0000 0.04091  0.33017  0.70590  Biso   1.000  C
  C429     1.0000 0.20909  0.83017  0.04410  Biso   1.000  C
  C430     1.0000 0.04091  0.41983  0.04410  Biso   1.000  C
  C431     1.0000 0.20909  0.41983  0.20590  Biso   1.000  C
  C432     1.0000 0.04091  0.83017  0.20590  Biso   1.000  C
  C433     1.0000 0.29091  0.66983  0.95590  Biso   1.000  C
  C434     1.0000 0.95909  0.58017  0.95590  Biso   1.000  C
  C435     1.0000 0.29091  0.58017  0.29410  Biso   1.000  C
  C436     1.0000 0.95909  0.66983  0.29410  Biso   1.000  C
  C437     1.0000 0.29091  0.16983  0.45590  Biso   1.000  C
  C438     1.0000 0.95909  0.08017  0.45590  Biso   1.000  C
  C439     1.0000 0.29091  0.08017  0.79410  Biso   1.000  C
  C440     1.0000 0.95909  0.16983  0.79410  Biso   1.000  C
  C441     1.0000 0.79091  0.66983  0.45590  Biso   1.000  C
  C442     1.0000 0.45909  0.58017  0.45590  Biso   1.000  C
  C443     1.0000 0.79091  0.58017  0.79410  Biso   1.000  C
  C444     1.0000 0.45909  0.66983  0.79410  Biso   1.000  C
  C445     1.0000 0.79091  0.16983  0.95590  Biso   1.000  C
  C446     1.0000 0.45909  0.08017  0.95590  Biso   1.000  C
  C447     1.0000 0.79091  0.08017  0.29410  Biso   1.000  C
  C448     1.0000 0.45909  0.16983  0.29410  Biso   1.000  C
  H257     1.0000 0.73220  0.30630  0.04460  Biso   1.000  H
  H258     1.0000 0.51780  0.94370  0.04460  Biso   1.000  H
  H259     1.0000 0.73220  0.94370  0.20540  Biso   1.000  H
  H260     1.0000 0.51780  0.30630  0.20540  Biso   1.000  H
  H261     1.0000 0.73220  0.80630  0.54460  Biso   1.000  H
  H262     1.0000 0.51780  0.44370  0.54460  Biso   1.000  H
  H263     1.0000 0.73220  0.44370  0.70540  Biso   1.000  H
  H264     1.0000 0.51780  0.80630  0.70540  Biso   1.000  H
  H265     1.0000 0.23220  0.30630  0.54460  Biso   1.000  H
  H266     1.0000 0.01780  0.94370  0.54460  Biso   1.000  H
  H267     1.0000 0.23220  0.94370  0.70540  Biso   1.000  H
  H268     1.0000 0.01780  0.30630  0.70540  Biso   1.000  H
  H269     1.0000 0.23220  0.80630  0.04460  Biso   1.000  H
  H270     1.0000 0.01780  0.44370  0.04460  Biso   1.000  H
  H271     1.0000 0.23220  0.44370  0.20540  Biso   1.000  H
  H272     1.0000 0.01780  0.80630  0.20540  Biso   1.000  H
  H273     1.0000 0.26780  0.69370  0.95540  Biso   1.000  H
  H274     1.0000 0.98220  0.55630  0.95540  Biso   1.000  H
  H275     1.0000 0.26780  0.55630  0.29460  Biso   1.000  H
  H276     1.0000 0.98220  0.69370  0.29460  Biso   1.000  H
  H277     1.0000 0.26780  0.19370  0.45540  Biso   1.000  H
  H278     1.0000 0.98220  0.05630  0.45540  Biso   1.000  H
  H279     1.0000 0.26780  0.05630  0.79460  Biso   1.000  H
  H280     1.0000 0.98220  0.19370  0.79460  Biso   1.000  H
  H281     1.0000 0.76780  0.69370  0.45540  Biso   1.000  H
  H282     1.0000 0.48220  0.55630  0.45540  Biso   1.000  H
  H283     1.0000 0.76780  0.55630  0.79460  Biso   1.000  H
  H284     1.0000 0.48220  0.69370  0.79460  Biso   1.000  H
  H285     1.0000 0.76780  0.19370  0.95540  Biso   1.000  H
  H286     1.0000 0.48220  0.05630  0.95540  Biso   1.000  H
  H287     1.0000 0.76780  0.05630  0.29460  Biso   1.000  H
  H288     1.0000 0.48220  0.19370  0.29460  Biso   1.000  H
  C449     1.0000 0.64899  0.32750  0.03872  Biso   1.000  C
  C450     1.0000 0.60101  0.92250  0.03872  Biso   1.000  C
  C451     1.0000 0.64899  0.92250  0.21128  Biso   1.000  C
  C452     1.0000 0.60101  0.32750  0.21128  Biso   1.000  C
  C453     1.0000 0.64899  0.82750  0.53872  Biso   1.000  C
  C454     1.0000 0.60101  0.42250  0.53872  Biso   1.000  C
  C455     1.0000 0.64899  0.42250  0.71128  Biso   1.000  C
  C456     1.0000 0.60101  0.82750  0.71128  Biso   1.000  C
  C457     1.0000 0.14899  0.32750  0.53872  Biso   1.000  C
  C458     1.0000 0.10101  0.92250  0.53872  Biso   1.000  C
  C459     1.0000 0.14899  0.92250  0.71128  Biso   1.000  C
  C460     1.0000 0.10101  0.32750  0.71128  Biso   1.000  C
  C461     1.0000 0.14899  0.82750  0.03872  Biso   1.000  C
  C462     1.0000 0.10101  0.42250  0.03872  Biso   1.000  C
  C463     1.0000 0.14899  0.42250  0.21128  Biso   1.000  C
  C464     1.0000 0.10101  0.82750  0.21128  Biso   1.000  C
  C465     1.0000 0.35101  0.67250  0.96128  Biso   1.000  C
  C466     1.0000 0.89899  0.57750  0.96128  Biso   1.000  C
  C467     1.0000 0.35101  0.57750  0.28872  Biso   1.000  C
  C468     1.0000 0.89899  0.67250  0.28872  Biso   1.000  C
  C469     1.0000 0.35101  0.17250  0.46128  Biso   1.000  C
  C470     1.0000 0.89899  0.07750  0.46128  Biso   1.000  C
  C471     1.0000 0.35101  0.07750  0.78872  Biso   1.000  C
  C472     1.0000 0.89899  0.17250  0.78872  Biso   1.000  C
  C473     1.0000 0.85101  0.67250  0.46128  Biso   1.000  C
  C474     1.0000 0.39899  0.57750  0.46128  Biso   1.000  C
  C475     1.0000 0.85101  0.57750  0.78872  Biso   1.000  C
  C476     1.0000 0.39899  0.67250  0.78872  Biso   1.000  C
  C477     1.0000 0.85101  0.17250  0.96128  Biso   1.000  C
  C478     1.0000 0.39899  0.07750  0.96128  Biso   1.000  C
  C479     1.0000 0.85101  0.07750  0.28872  Biso   1.000  C
  C480     1.0000 0.39899  0.17250  0.28872  Biso   1.000  C
  H289     1.0000 0.63190  0.30190  0.03560  Biso   1.000  H
  H290     1.0000 0.61810  0.94810  0.03560  Biso   1.000  H
  H291     1.0000 0.63190  0.94810  0.21440  Biso   1.000  H
  H292     1.0000 0.61810  0.30190  0.21440  Biso   1.000  H
  H293     1.0000 0.63190  0.80190  0.53560  Biso   1.000  H
  H294     1.0000 0.61810  0.44810  0.53560  Biso   1.000  H
  H295     1.0000 0.63190  0.44810  0.71440  Biso   1.000  H
  H296     1.0000 0.61810  0.80190  0.71440  Biso   1.000  H
  H297     1.0000 0.13190  0.30190  0.53560  Biso   1.000  H
  H298     1.0000 0.11810  0.94810  0.53560  Biso   1.000  H
  H299     1.0000 0.13190  0.94810  0.71440  Biso   1.000  H
  H300     1.0000 0.11810  0.30190  0.71440  Biso   1.000  H
  H301     1.0000 0.13190  0.80190  0.03560  Biso   1.000  H
  H302     1.0000 0.11810  0.44810  0.03560  Biso   1.000  H
  H303     1.0000 0.13190  0.44810  0.21440  Biso   1.000  H
  H304     1.0000 0.11810  0.80190  0.21440  Biso   1.000  H
  H305     1.0000 0.36810  0.69810  0.96440  Biso   1.000  H
  H306     1.0000 0.88190  0.55190  0.96440  Biso   1.000  H
  H307     1.0000 0.36810  0.55190  0.28560  Biso   1.000  H
  H308     1.0000 0.88190  0.69810  0.28560  Biso   1.000  H
  H309     1.0000 0.36810  0.19810  0.46440  Biso   1.000  H
  H310     1.0000 0.88190  0.05190  0.46440  Biso   1.000  H
  H311     1.0000 0.36810  0.05190  0.78560  Biso   1.000  H
  H312     1.0000 0.88190  0.19810  0.78560  Biso   1.000  H
  H313     1.0000 0.86810  0.69810  0.46440  Biso   1.000  H
  H314     1.0000 0.38190  0.55190  0.46440  Biso   1.000  H
  H315     1.0000 0.86810  0.55190  0.78560  Biso   1.000  H
  H316     1.0000 0.38190  0.69810  0.78560  Biso   1.000  H
  H317     1.0000 0.86810  0.19810  0.96440  Biso   1.000  H
  H318     1.0000 0.38190  0.05190  0.96440  Biso   1.000  H
  H319     1.0000 0.86810  0.05190  0.28560  Biso   1.000  H
  H320     1.0000 0.38190  0.19810  0.28560  Biso   1.000  H
  C481     1.0000 0.61441  0.36310  0.03796  Biso   1.000  C
  C482     1.0000 0.63559  0.88690  0.03796  Biso   1.000  C
  C483     1.0000 0.61441  0.88690  0.21204  Biso   1.000  C
  C484     1.0000 0.63559  0.36310  0.21204  Biso   1.000  C
  C485     1.0000 0.61441  0.86310  0.53796  Biso   1.000  C
  C486     1.0000 0.63559  0.38690  0.53796  Biso   1.000  C
  C487     1.0000 0.61441  0.38690  0.71204  Biso   1.000  C
  C488     1.0000 0.63559  0.86310  0.71204  Biso   1.000  C
  C489     1.0000 0.11441  0.36310  0.53796  Biso   1.000  C
  C490     1.0000 0.13559  0.88690  0.53796  Biso   1.000  C
  C491     1.0000 0.11441  0.88690  0.71204  Biso   1.000  C
  C492     1.0000 0.13559  0.36310  0.71204  Biso   1.000  C
  C493     1.0000 0.11441  0.86310  0.03796  Biso   1.000  C
  C494     1.0000 0.13559  0.38690  0.03796  Biso   1.000  C
  C495     1.0000 0.11441  0.38690  0.21204  Biso   1.000  C
  C496     1.0000 0.13559  0.86310  0.21204  Biso   1.000  C
  C497     1.0000 0.38559  0.63690  0.96204  Biso   1.000  C
  C498     1.0000 0.86441  0.61310  0.96204  Biso   1.000  C
  C499     1.0000 0.38559  0.61310  0.28796  Biso   1.000  C
  C500     1.0000 0.86441  0.63690  0.28796  Biso   1.000  C
  C501     1.0000 0.38559  0.13690  0.46204  Biso   1.000  C
  C502     1.0000 0.86441  0.11310  0.46204  Biso   1.000  C
  C503     1.0000 0.38559  0.11310  0.78796  Biso   1.000  C
  C504     1.0000 0.86441  0.13690  0.78796  Biso   1.000  C
  C505     1.0000 0.88559  0.63690  0.46204  Biso   1.000  C
  C506     1.0000 0.36441  0.61310  0.46204  Biso   1.000  C
  C507     1.0000 0.88559  0.61310  0.78796  Biso   1.000  C
  C508     1.0000 0.36441  0.63690  0.78796  Biso   1.000  C
  C509     1.0000 0.88559  0.13690  0.96204  Biso   1.000  C
  C510     1.0000 0.36441  0.11310  0.96204  Biso   1.000  C
  C511     1.0000 0.88559  0.11310  0.28796  Biso   1.000  C
  C512     1.0000 0.36441  0.13690  0.28796  Biso   1.000  C
  C513     1.0000 0.63990  0.40145  0.04257  Biso   1.000  C
  C514     1.0000 0.61010  0.84855  0.04257  Biso   1.000  C
  C515     1.0000 0.63990  0.84855  0.20743  Biso   1.000  C
  C516     1.0000 0.61010  0.40145  0.20743  Biso   1.000  C
  C517     1.0000 0.63990  0.90145  0.54257  Biso   1.000  C
  C518     1.0000 0.61010  0.34855  0.54257  Biso   1.000  C
  C519     1.0000 0.63990  0.34855  0.70743  Biso   1.000  C
  C520     1.0000 0.61010  0.90145  0.70743  Biso   1.000  C
  C521     1.0000 0.13990  0.40145  0.54257  Biso   1.000  C
  C522     1.0000 0.11010  0.84855  0.54257  Biso   1.000  C
  C523     1.0000 0.13990  0.84855  0.70743  Biso   1.000  C
  C524     1.0000 0.11010  0.40145  0.70743  Biso   1.000  C
  C525     1.0000 0.13990  0.90145  0.04257  Biso   1.000  C
  C526     1.0000 0.11010  0.34855  0.04257  Biso   1.000  C
  C527     1.0000 0.13990  0.34855  0.20743  Biso   1.000  C
  C528     1.0000 0.11010  0.90145  0.20743  Biso   1.000  C
  C529     1.0000 0.36010  0.59855  0.95743  Biso   1.000  C
  C530     1.0000 0.88990  0.65145  0.95743  Biso   1.000  C
  C531     1.0000 0.36010  0.65145  0.29257  Biso   1.000  C
  C532     1.0000 0.88990  0.59855  0.29257  Biso   1.000  C
  C533     1.0000 0.36010  0.09855  0.45743  Biso   1.000  C
  C534     1.0000 0.88990  0.15145  0.45743  Biso   1.000  C
  C535     1.0000 0.36010  0.15145  0.79257  Biso   1.000  C
  C536     1.0000 0.88990  0.09855  0.79257  Biso   1.000  C
  C537     1.0000 0.86010  0.59855  0.45743  Biso   1.000  C
  C538     1.0000 0.38990  0.65145  0.45743  Biso   1.000  C
  C539     1.0000 0.86010  0.65145  0.79257  Biso   1.000  C
  C540     1.0000 0.38990  0.59855  0.79257  Biso   1.000  C
  C541     1.0000 0.86010  0.09855  0.95743  Biso   1.000  C
  C542     1.0000 0.38990  0.15145  0.95743  Biso   1.000  C
  C543     1.0000 0.86010  0.15145  0.29257  Biso   1.000  C
  C544     1.0000 0.38990  0.09855  0.29257  Biso   1.000  C
  H321     1.0000 0.61680  0.42530  0.04210  Biso   1.000  H
  H322     1.0000 0.63320  0.82470  0.04210  Biso   1.000  H
  H323     1.0000 0.61680  0.82470  0.20790  Biso   1.000  H
  H324     1.0000 0.63320  0.42530  0.20790  Biso   1.000  H
  H325     1.0000 0.61680  0.92530  0.54210  Biso   1.000  H
  H326     1.0000 0.63320  0.32470  0.54210  Biso   1.000  H
  H327     1.0000 0.61680  0.32470  0.70790  Biso   1.000  H
  H328     1.0000 0.63320  0.92530  0.70790  Biso   1.000  H
  H329     1.0000 0.11680  0.42530  0.54210  Biso   1.000  H
  H330     1.0000 0.13320  0.82470  0.54210  Biso   1.000  H
  H331     1.0000 0.11680  0.82470  0.70790  Biso   1.000  H
  H332     1.0000 0.13320  0.42530  0.70790  Biso   1.000  H
  H333     1.0000 0.11680  0.92530  0.04210  Biso   1.000  H
  H334     1.0000 0.13320  0.32470  0.04210  Biso   1.000  H
  H335     1.0000 0.11680  0.32470  0.20790  Biso   1.000  H
  H336     1.0000 0.13320  0.92530  0.20790  Biso   1.000  H
  H337     1.0000 0.38320  0.57470  0.95790  Biso   1.000  H
  H338     1.0000 0.86680  0.67530  0.95790  Biso   1.000  H
  H339     1.0000 0.38320  0.67530  0.29210  Biso   1.000  H
  H340     1.0000 0.86680  0.57470  0.29210  Biso   1.000  H
  H341     1.0000 0.38320  0.07470  0.45790  Biso   1.000  H
  H342     1.0000 0.86680  0.17530  0.45790  Biso   1.000  H
  H343     1.0000 0.38320  0.17530  0.79210  Biso   1.000  H
  H344     1.0000 0.86680  0.07470  0.79210  Biso   1.000  H
  H345     1.0000 0.88320  0.57470  0.45790  Biso   1.000  H
  H346     1.0000 0.36680  0.67530  0.45790  Biso   1.000  H
  H347     1.0000 0.88320  0.67530  0.79210  Biso   1.000  H
  H348     1.0000 0.36680  0.57470  0.79210  Biso   1.000  H
  H349     1.0000 0.88320  0.07470  0.95790  Biso   1.000  H
  H350     1.0000 0.36680  0.17530  0.95790  Biso   1.000  H
  H351     1.0000 0.88320  0.17530  0.29210  Biso   1.000  H
  H352     1.0000 0.36680  0.07470  0.29210  Biso   1.000  H
  C545     1.0000 0.70000  0.40412  0.04795  Biso   1.000  C
  C546     1.0000 0.55000  0.84588  0.04795  Biso   1.000  C
  C547     1.0000 0.70000  0.84588  0.20205  Biso   1.000  C
  C548     1.0000 0.55000  0.40412  0.20205  Biso   1.000  C
  C549     1.0000 0.70000  0.90412  0.54795  Biso   1.000  C
  C550     1.0000 0.55000  0.34588  0.54795  Biso   1.000  C
  C551     1.0000 0.70000  0.34588  0.70205  Biso   1.000  C
  C552     1.0000 0.55000  0.90412  0.70205  Biso   1.000  C
  C553     1.0000 0.20000  0.40412  0.54795  Biso   1.000  C
  C554     1.0000 0.05000  0.84588  0.54795  Biso   1.000  C
  C555     1.0000 0.20000  0.84588  0.70205  Biso   1.000  C
  C556     1.0000 0.05000  0.40412  0.70205  Biso   1.000  C
  C557     1.0000 0.20000  0.90412  0.04795  Biso   1.000  C
  C558     1.0000 0.05000  0.34588  0.04795  Biso   1.000  C
  C559     1.0000 0.20000  0.34588  0.20205  Biso   1.000  C
  C560     1.0000 0.05000  0.90412  0.20205  Biso   1.000  C
  C561     1.0000 0.30000  0.59588  0.95205  Biso   1.000  C
  C562     1.0000 0.95000  0.65412  0.95205  Biso   1.000  C
  C563     1.0000 0.30000  0.65412  0.29795  Biso   1.000  C
  C564     1.0000 0.95000  0.59588  0.29795  Biso   1.000  C
  C565     1.0000 0.30000  0.09588  0.45205  Biso   1.000  C
  C566     1.0000 0.95000  0.15412  0.45205  Biso   1.000  C
  C567     1.0000 0.30000  0.15412  0.79795  Biso   1.000  C
  C568     1.0000 0.95000  0.09588  0.79795  Biso   1.000  C
  C569     1.0000 0.80000  0.59588  0.45205  Biso   1.000  C
  C570     1.0000 0.45000  0.65412  0.45205  Biso   1.000  C
  C571     1.0000 0.80000  0.65412  0.79795  Biso   1.000  C
  C572     1.0000 0.45000  0.59588  0.79795  Biso   1.000  C
  C573     1.0000 0.80000  0.09588  0.95205  Biso   1.000  C
  C574     1.0000 0.45000  0.15412  0.95205  Biso   1.000  C
  C575     1.0000 0.80000  0.15412  0.29795  Biso   1.000  C
  C576     1.0000 0.45000  0.09588  0.29795  Biso   1.000  C
  H353     1.0000 0.71710  0.42980  0.05100  Biso   1.000  H
  H354     1.0000 0.53290  0.82020  0.05100  Biso   1.000  H
  H355     1.0000 0.71710  0.82020  0.19900  Biso   1.000  H
  H356     1.0000 0.53290  0.42980  0.19900  Biso   1.000  H
  H357     1.0000 0.71710  0.92980  0.55100  Biso   1.000  H
  H358     1.0000 0.53290  0.32020  0.55100  Biso   1.000  H
  H359     1.0000 0.71710  0.32020  0.69900  Biso   1.000  H
  H360     1.0000 0.53290  0.92980  0.69900  Biso   1.000  H
  H361     1.0000 0.21710  0.42980  0.55100  Biso   1.000  H
  H362     1.0000 0.03290  0.82020  0.55100  Biso   1.000  H
  H363     1.0000 0.21710  0.82020  0.69900  Biso   1.000  H
  H364     1.0000 0.03290  0.42980  0.69900  Biso   1.000  H
  H365     1.0000 0.21710  0.92980  0.05100  Biso   1.000  H
  H366     1.0000 0.03290  0.32020  0.05100  Biso   1.000  H
  H367     1.0000 0.21710  0.32020  0.19900  Biso   1.000  H
  H368     1.0000 0.03290  0.92980  0.19900  Biso   1.000  H
  H369     1.0000 0.28290  0.57020  0.94900  Biso   1.000  H
  H370     1.0000 0.96710  0.67980  0.94900  Biso   1.000  H
  H371     1.0000 0.28290  0.67980  0.30100  Biso   1.000  H
  H372     1.0000 0.96710  0.57020  0.30100  Biso   1.000  H
  H373     1.0000 0.28290  0.07020  0.44900  Biso   1.000  H
  H374     1.0000 0.96710  0.17980  0.44900  Biso   1.000  H
  H375     1.0000 0.28290  0.17980  0.80100  Biso   1.000  H
  H376     1.0000 0.96710  0.07020  0.80100  Biso   1.000  H
  H377     1.0000 0.78290  0.57020  0.44900  Biso   1.000  H
  H378     1.0000 0.46710  0.67980  0.44900  Biso   1.000  H
  H379     1.0000 0.78290  0.67980  0.80100  Biso   1.000  H
  H380     1.0000 0.46710  0.57020  0.80100  Biso   1.000  H
  H381     1.0000 0.78290  0.07020  0.94900  Biso   1.000  H
  H382     1.0000 0.46710  0.17980  0.94900  Biso   1.000  H
  H383     1.0000 0.78290  0.17980  0.30100  Biso   1.000  H
  H384     1.0000 0.46710  0.07020  0.30100  Biso   1.000  H
  N65      1.0000 0.73461  0.36848  0.04871  Biso   1.000  N
  N66      1.0000 0.51539  0.88152  0.04871  Biso   1.000  N
  N67      1.0000 0.73461  0.88152  0.20129  Biso   1.000  N
  N68      1.0000 0.51539  0.36848  0.20129  Biso   1.000  N
  N69      1.0000 0.73461  0.86848  0.54871  Biso   1.000  N
  N70      1.0000 0.51539  0.38152  0.54871  Biso   1.000  N
  N71      1.0000 0.73461  0.38152  0.70129  Biso   1.000  N
  N72      1.0000 0.51539  0.86848  0.70129  Biso   1.000  N
  N73      1.0000 0.23461  0.36848  0.54871  Biso   1.000  N
  N74      1.0000 0.01539  0.88152  0.54871  Biso   1.000  N
  N75      1.0000 0.23461  0.88152  0.70129  Biso   1.000  N
  N76      1.0000 0.01539  0.36848  0.70129  Biso   1.000  N
  N77      1.0000 0.23461  0.86848  0.04871  Biso   1.000  N
  N78      1.0000 0.01539  0.38152  0.04871  Biso   1.000  N
  N79      1.0000 0.23461  0.38152  0.20129  Biso   1.000  N
  N80      1.0000 0.01539  0.86848  0.20129  Biso   1.000  N
  N81      1.0000 0.26539  0.63152  0.95129  Biso   1.000  N
  N82      1.0000 0.98461  0.61848  0.95129  Biso   1.000  N
  N83      1.0000 0.26539  0.61848  0.29871  Biso   1.000  N
  N84      1.0000 0.98461  0.63152  0.29871  Biso   1.000  N
  N85      1.0000 0.26539  0.13152  0.45129  Biso   1.000  N
  N86      1.0000 0.98461  0.11848  0.45129  Biso   1.000  N
  N87      1.0000 0.26539  0.11848  0.79871  Biso   1.000  N
  N88      1.0000 0.98461  0.13152  0.79871  Biso   1.000  N
  N89      1.0000 0.76539  0.63152  0.45129  Biso   1.000  N
  N90      1.0000 0.48461  0.61848  0.45129  Biso   1.000  N
  N91      1.0000 0.76539  0.61848  0.79871  Biso   1.000  N
  N92      1.0000 0.48461  0.63152  0.79871  Biso   1.000  N
  N93      1.0000 0.76539  0.13152  0.95129  Biso   1.000  N
  N94      1.0000 0.48461  0.11848  0.95129  Biso   1.000  N
  N95      1.0000 0.76539  0.11848  0.29871  Biso   1.000  N
  N96      1.0000 0.48461  0.13152  0.29871  Biso   1.000  N
  C577     1.0000 0.51230  0.24090  0.07857  Biso   1.000  C
  C578     1.0000 0.73770  0.00910  0.07857  Biso   1.000  C
  C579     1.0000 0.51230  0.00910  0.17143  Biso   1.000  C
  C580     1.0000 0.73770  0.24090  0.17143  Biso   1.000  C
  C581     1.0000 0.51230  0.74090  0.57857  Biso   1.000  C
  C582     1.0000 0.73770  0.50910  0.57857  Biso   1.000  C
  C583     1.0000 0.51230  0.50910  0.67143  Biso   1.000  C
  C584     1.0000 0.73770  0.74090  0.67143  Biso   1.000  C
  C585     1.0000 0.01230  0.24090  0.57857  Biso   1.000  C
  C586     1.0000 0.23770  0.00910  0.57857  Biso   1.000  C
  C587     1.0000 0.01230  0.00910  0.67143  Biso   1.000  C
  C588     1.0000 0.23770  0.24090  0.67143  Biso   1.000  C
  C589     1.0000 0.01230  0.74090  0.07857  Biso   1.000  C
  C590     1.0000 0.23770  0.50910  0.07857  Biso   1.000  C
  C591     1.0000 0.01230  0.50910  0.17143  Biso   1.000  C
  C592     1.0000 0.23770  0.74090  0.17143  Biso   1.000  C
  C593     1.0000 0.48770  0.75910  0.92143  Biso   1.000  C
  C594     1.0000 0.76230  0.49090  0.92143  Biso   1.000  C
  C595     1.0000 0.48770  0.49090  0.32857  Biso   1.000  C
  C596     1.0000 0.76230  0.75910  0.32857  Biso   1.000  C
  C597     1.0000 0.48770  0.25910  0.42143  Biso   1.000  C
  C598     1.0000 0.76230  0.99090  0.42143  Biso   1.000  C
  C599     1.0000 0.48770  0.99090  0.82857  Biso   1.000  C
  C600     1.0000 0.76230  0.25910  0.82857  Biso   1.000  C
  C601     1.0000 0.98770  0.75910  0.42143  Biso   1.000  C
  C602     1.0000 0.26230  0.49090  0.42143  Biso   1.000  C
  C603     1.0000 0.98770  0.49090  0.82857  Biso   1.000  C
  C604     1.0000 0.26230  0.75910  0.82857  Biso   1.000  C
  C605     1.0000 0.98770  0.25910  0.92143  Biso   1.000  C
  C606     1.0000 0.26230  0.99090  0.92143  Biso   1.000  C
  C607     1.0000 0.98770  0.99090  0.32857  Biso   1.000  C
  C608     1.0000 0.26230  0.25910  0.32857  Biso   1.000  C
  H385     1.0000 0.48210  0.25290  0.08870  Biso   1.000  H
  H386     1.0000 0.76790  0.99710  0.08870  Biso   1.000  H
  H387     1.0000 0.48210  0.99710  0.16130  Biso   1.000  H
  H388     1.0000 0.76790  0.25290  0.16130  Biso   1.000  H
  H389     1.0000 0.48210  0.75290  0.58870  Biso   1.000  H
  H390     1.0000 0.76790  0.49710  0.58870  Biso   1.000  H
  H391     1.0000 0.48210  0.49710  0.66130  Biso   1.000  H
  H392     1.0000 0.76790  0.75290  0.66130  Biso   1.000  H
  H393     1.0000 0.98210  0.25290  0.58870  Biso   1.000  H
  H394     1.0000 0.26790  0.99710  0.58870  Biso   1.000  H
  H395     1.0000 0.98210  0.99710  0.66130  Biso   1.000  H
  H396     1.0000 0.26790  0.25290  0.66130  Biso   1.000  H
  H397     1.0000 0.98210  0.75290  0.08870  Biso   1.000  H
  H398     1.0000 0.26790  0.49710  0.08870  Biso   1.000  H
  H399     1.0000 0.98210  0.49710  0.16130  Biso   1.000  H
  H400     1.0000 0.26790  0.75290  0.16130  Biso   1.000  H
  H401     1.0000 0.51790  0.74710  0.91130  Biso   1.000  H
  H402     1.0000 0.73210  0.50290  0.91130  Biso   1.000  H
  H403     1.0000 0.51790  0.50290  0.33870  Biso   1.000  H
  H404     1.0000 0.73210  0.74710  0.33870  Biso   1.000  H
  H405     1.0000 0.51790  0.24710  0.41130  Biso   1.000  H
  H406     1.0000 0.73210  0.00290  0.41130  Biso   1.000  H
  H407     1.0000 0.51790  0.00290  0.83870  Biso   1.000  H
  H408     1.0000 0.73210  0.24710  0.83870  Biso   1.000  H
  H409     1.0000 0.01790  0.74710  0.41130  Biso   1.000  H
  H410     1.0000 0.23210  0.50290  0.41130  Biso   1.000  H
  H411     1.0000 0.01790  0.50290  0.83870  Biso   1.000  H
  H412     1.0000 0.23210  0.74710  0.83870  Biso   1.000  H
  H413     1.0000 0.01790  0.24710  0.91130  Biso   1.000  H
  H414     1.0000 0.23210  0.00290  0.91130  Biso   1.000  H
  H415     1.0000 0.01790  0.00290  0.33870  Biso   1.000  H
  H416     1.0000 0.23210  0.24710  0.33870  Biso   1.000  H
  C609     1.0000 0.56840  0.25070  0.08470  Biso   1.000  C
  C610     1.0000 0.68160  0.99930  0.08470  Biso   1.000  C
  C611     1.0000 0.56840  0.99930  0.16530  Biso   1.000  C
  C612     1.0000 0.68160  0.25070  0.16530  Biso   1.000  C
  C613     1.0000 0.56840  0.75070  0.58470  Biso   1.000  C
  C614     1.0000 0.68160  0.49930  0.58470  Biso   1.000  C
  C615     1.0000 0.56840  0.49930  0.66530  Biso   1.000  C
  C616     1.0000 0.68160  0.75070  0.66530  Biso   1.000  C
  C617     1.0000 0.06840  0.25070  0.58470  Biso   1.000  C
  C618     1.0000 0.18160  0.99930  0.58470  Biso   1.000  C
  C619     1.0000 0.06840  0.99930  0.66530  Biso   1.000  C
  C620     1.0000 0.18160  0.25070  0.66530  Biso   1.000  C
  C621     1.0000 0.06840  0.75070  0.08470  Biso   1.000  C
  C622     1.0000 0.18160  0.49930  0.08470  Biso   1.000  C
  C623     1.0000 0.06840  0.49930  0.16530  Biso   1.000  C
  C624     1.0000 0.18160  0.75070  0.16530  Biso   1.000  C
  C625     1.0000 0.43160  0.74930  0.91530  Biso   1.000  C
  C626     1.0000 0.81840  0.50070  0.91530  Biso   1.000  C
  C627     1.0000 0.43160  0.50070  0.33470  Biso   1.000  C
  C628     1.0000 0.81840  0.74930  0.33470  Biso   1.000  C
  C629     1.0000 0.43160  0.24930  0.41530  Biso   1.000  C
  C630     1.0000 0.81840  0.00070  0.41530  Biso   1.000  C
  C631     1.0000 0.43160  0.00070  0.83470  Biso   1.000  C
  C632     1.0000 0.81840  0.24930  0.83470  Biso   1.000  C
  C633     1.0000 0.93160  0.74930  0.41530  Biso   1.000  C
  C634     1.0000 0.31840  0.50070  0.41530  Biso   1.000  C
  C635     1.0000 0.93160  0.50070  0.83470  Biso   1.000  C
  C636     1.0000 0.31840  0.74930  0.83470  Biso   1.000  C
  C637     1.0000 0.93160  0.24930  0.91530  Biso   1.000  C
  C638     1.0000 0.31840  0.00070  0.91530  Biso   1.000  C
  C639     1.0000 0.93160  0.00070  0.33470  Biso   1.000  C
  C640     1.0000 0.31840  0.24930  0.33470  Biso   1.000  C
  H417     1.0000 0.59420  0.24730  0.07160  Biso   1.000  H
  H418     1.0000 0.65580  0.00270  0.07160  Biso   1.000  H
  H419     1.0000 0.59420  0.00270  0.17840  Biso   1.000  H
  H420     1.0000 0.65580  0.24730  0.17840  Biso   1.000  H
  H421     1.0000 0.59420  0.74730  0.57160  Biso   1.000  H
  H422     1.0000 0.65580  0.50270  0.57160  Biso   1.000  H
  H423     1.0000 0.59420  0.50270  0.67840  Biso   1.000  H
  H424     1.0000 0.65580  0.74730  0.67840  Biso   1.000  H
  H425     1.0000 0.09420  0.24730  0.57160  Biso   1.000  H
  H426     1.0000 0.15580  0.00270  0.57160  Biso   1.000  H
  H427     1.0000 0.09420  0.00270  0.67840  Biso   1.000  H
  H428     1.0000 0.15580  0.24730  0.67840  Biso   1.000  H
  H429     1.0000 0.09420  0.74730  0.07160  Biso   1.000  H
  H430     1.0000 0.15580  0.50270  0.07160  Biso   1.000  H
  H431     1.0000 0.09420  0.50270  0.17840  Biso   1.000  H
  H432     1.0000 0.15580  0.74730  0.17840  Biso   1.000  H
  H433     1.0000 0.40580  0.75270  0.92840  Biso   1.000  H
  H434     1.0000 0.84420  0.49730  0.92840  Biso   1.000  H
  H435     1.0000 0.40580  0.49730  0.32160  Biso   1.000  H
  H436     1.0000 0.84420  0.75270  0.32160  Biso   1.000  H
  H437     1.0000 0.40580  0.25270  0.42840  Biso   1.000  H
  H438     1.0000 0.84420  0.99730  0.42840  Biso   1.000  H
  H439     1.0000 0.40580  0.99730  0.82160  Biso   1.000  H
  H440     1.0000 0.84420  0.25270  0.82160  Biso   1.000  H
  H441     1.0000 0.90580  0.75270  0.42840  Biso   1.000  H
  H442     1.0000 0.34420  0.49730  0.42840  Biso   1.000  H
  H443     1.0000 0.90580  0.49730  0.82160  Biso   1.000  H
  H444     1.0000 0.34420  0.75270  0.82160  Biso   1.000  H
  H445     1.0000 0.90580  0.25270  0.92840  Biso   1.000  H
  H446     1.0000 0.34420  0.99730  0.92840  Biso   1.000  H
  H447     1.0000 0.90580  0.99730  0.32160  Biso   1.000  H
  H448     1.0000 0.34420  0.25270  0.32160  Biso   1.000  H
  H449     1.0000 0.58110  0.23280  0.09700  Biso   1.000  H
  H450     1.0000 0.66890  0.01720  0.09700  Biso   1.000  H
  H451     1.0000 0.58110  0.01720  0.15300  Biso   1.000  H
  H452     1.0000 0.66890  0.23280  0.15300  Biso   1.000  H
  H453     1.0000 0.58110  0.73280  0.59700  Biso   1.000  H
  H454     1.0000 0.66890  0.51720  0.59700  Biso   1.000  H
  H455     1.0000 0.58110  0.51720  0.65300  Biso   1.000  H
  H456     1.0000 0.66890  0.73280  0.65300  Biso   1.000  H
  H457     1.0000 0.08110  0.23280  0.59700  Biso   1.000  H
  H458     1.0000 0.16890  0.01720  0.59700  Biso   1.000  H
  H459     1.0000 0.08110  0.01720  0.65300  Biso   1.000  H
  H460     1.0000 0.16890  0.23280  0.65300  Biso   1.000  H
  H461     1.0000 0.08110  0.73280  0.09700  Biso   1.000  H
  H462     1.0000 0.16890  0.51720  0.09700  Biso   1.000  H
  H463     1.0000 0.08110  0.51720  0.15300  Biso   1.000  H
  H464     1.0000 0.16890  0.73280  0.15300  Biso   1.000  H
  H465     1.0000 0.41890  0.76720  0.90300  Biso   1.000  H
  H466     1.0000 0.83110  0.48280  0.90300  Biso   1.000  H
  H467     1.0000 0.41890  0.48280  0.34700  Biso   1.000  H
  H468     1.0000 0.83110  0.76720  0.34700  Biso   1.000  H
  H469     1.0000 0.41890  0.26720  0.40300  Biso   1.000  H
  H470     1.0000 0.83110  0.98280  0.40300  Biso   1.000  H
  H471     1.0000 0.41890  0.98280  0.84700  Biso   1.000  H
  H472     1.0000 0.83110  0.26720  0.84700  Biso   1.000  H
  H473     1.0000 0.91890  0.76720  0.40300  Biso   1.000  H
  H474     1.0000 0.33110  0.48280  0.40300  Biso   1.000  H
  H475     1.0000 0.91890  0.48280  0.84700  Biso   1.000  H
  H476     1.0000 0.33110  0.76720  0.84700  Biso   1.000  H
  H477     1.0000 0.91890  0.26720  0.90300  Biso   1.000  H
  H478     1.0000 0.33110  0.98280  0.90300  Biso   1.000  H
  H479     1.0000 0.91890  0.98280  0.34700  Biso   1.000  H
  H480     1.0000 0.33110  0.26720  0.34700  Biso   1.000  H
  H481     1.0000 0.56970  0.27890  0.08980  Biso   1.000  H
  H482     1.0000 0.68030  0.97110  0.08980  Biso   1.000  H
  H483     1.0000 0.56970  0.97110  0.16020  Biso   1.000  H
  H484     1.0000 0.68030  0.27890  0.16020  Biso   1.000  H
  H485     1.0000 0.56970  0.77890  0.58980  Biso   1.000  H
  H486     1.0000 0.68030  0.47110  0.58980  Biso   1.000  H
  H487     1.0000 0.56970  0.47110  0.66020  Biso   1.000  H
  H488     1.0000 0.68030  0.77890  0.66020  Biso   1.000  H
  H489     1.0000 0.06970  0.27890  0.58980  Biso   1.000  H
  H490     1.0000 0.18030  0.97110  0.58980  Biso   1.000  H
  H491     1.0000 0.06970  0.97110  0.66020  Biso   1.000  H
  H492     1.0000 0.18030  0.27890  0.66020  Biso   1.000  H
  H493     1.0000 0.06970  0.77890  0.08980  Biso   1.000  H
  H494     1.0000 0.18030  0.47110  0.08980  Biso   1.000  H
  H495     1.0000 0.06970  0.47110  0.16020  Biso   1.000  H
  H496     1.0000 0.18030  0.77890  0.16020  Biso   1.000  H
  H497     1.0000 0.43030  0.72110  0.91020  Biso   1.000  H
  H498     1.0000 0.81970  0.52890  0.91020  Biso   1.000  H
  H499     1.0000 0.43030  0.52890  0.33980  Biso   1.000  H
  H500     1.0000 0.81970  0.72110  0.33980  Biso   1.000  H
  H501     1.0000 0.43030  0.22110  0.41020  Biso   1.000  H
  H502     1.0000 0.81970  0.02890  0.41020  Biso   1.000  H
  H503     1.0000 0.43030  0.02890  0.83980  Biso   1.000  H
  H504     1.0000 0.81970  0.22110  0.83980  Biso   1.000  H
  H505     1.0000 0.93030  0.72110  0.41020  Biso   1.000  H
  H506     1.0000 0.31970  0.52890  0.41020  Biso   1.000  H
  H507     1.0000 0.93030  0.52890  0.83980  Biso   1.000  H
  H508     1.0000 0.31970  0.72110  0.83980  Biso   1.000  H
  H509     1.0000 0.93030  0.22110  0.91020  Biso   1.000  H
  H510     1.0000 0.31970  0.02890  0.91020  Biso   1.000  H
  H511     1.0000 0.93030  0.02890  0.33980  Biso   1.000  H
  H512     1.0000 0.31970  0.22110  0.33980  Biso   1.000  H
  C641     1.0000 0.50890  0.19400  0.07690  Biso   1.000  C
  C642     1.0000 0.74110  0.05600  0.07690  Biso   1.000  C
  C643     1.0000 0.50890  0.05600  0.17310  Biso   1.000  C
  C644     1.0000 0.74110  0.19400  0.17310  Biso   1.000  C
  C645     1.0000 0.50890  0.69400  0.57690  Biso   1.000  C
  C646     1.0000 0.74110  0.55600  0.57690  Biso   1.000  C
  C647     1.0000 0.50890  0.55600  0.67310  Biso   1.000  C
  C648     1.0000 0.74110  0.69400  0.67310  Biso   1.000  C
  C649     1.0000 0.00890  0.19400  0.57690  Biso   1.000  C
  C650     1.0000 0.24110  0.05600  0.57690  Biso   1.000  C
  C651     1.0000 0.00890  0.05600  0.67310  Biso   1.000  C
  C652     1.0000 0.24110  0.19400  0.67310  Biso   1.000  C
  C653     1.0000 0.00890  0.69400  0.07690  Biso   1.000  C
  C654     1.0000 0.24110  0.55600  0.07690  Biso   1.000  C
  C655     1.0000 0.00890  0.55600  0.17310  Biso   1.000  C
  C656     1.0000 0.24110  0.69400  0.17310  Biso   1.000  C
  C657     1.0000 0.49110  0.80600  0.92310  Biso   1.000  C
  C658     1.0000 0.75890  0.44400  0.92310  Biso   1.000  C
  C659     1.0000 0.49110  0.44400  0.32690  Biso   1.000  C
  C660     1.0000 0.75890  0.80600  0.32690  Biso   1.000  C
  C661     1.0000 0.49110  0.30600  0.42310  Biso   1.000  C
  C662     1.0000 0.75890  0.94400  0.42310  Biso   1.000  C
  C663     1.0000 0.49110  0.94400  0.82690  Biso   1.000  C
  C664     1.0000 0.75890  0.30600  0.82690  Biso   1.000  C
  C665     1.0000 0.99110  0.80600  0.42310  Biso   1.000  C
  C666     1.0000 0.25890  0.44400  0.42310  Biso   1.000  C
  C667     1.0000 0.99110  0.44400  0.82690  Biso   1.000  C
  C668     1.0000 0.25890  0.80600  0.82690  Biso   1.000  C
  C669     1.0000 0.99110  0.30600  0.92310  Biso   1.000  C
  C670     1.0000 0.25890  0.94400  0.92310  Biso   1.000  C
  C671     1.0000 0.99110  0.94400  0.32690  Biso   1.000  C
  C672     1.0000 0.25890  0.30600  0.32690  Biso   1.000  C
  H513     1.0000 0.53880  0.18420  0.06640  Biso   1.000  H
  H514     1.0000 0.71120  0.06580  0.06640  Biso   1.000  H
  H515     1.0000 0.53880  0.06580  0.18360  Biso   1.000  H
  H516     1.0000 0.71120  0.18420  0.18360  Biso   1.000  H
  H517     1.0000 0.53880  0.68420  0.56640  Biso   1.000  H
  H518     1.0000 0.71120  0.56580  0.56640  Biso   1.000  H
  H519     1.0000 0.53880  0.56580  0.68360  Biso   1.000  H
  H520     1.0000 0.71120  0.68420  0.68360  Biso   1.000  H
  H521     1.0000 0.03880  0.18420  0.56640  Biso   1.000  H
  H522     1.0000 0.21120  0.06580  0.56640  Biso   1.000  H
  H523     1.0000 0.03880  0.06580  0.68360  Biso   1.000  H
  H524     1.0000 0.21120  0.18420  0.68360  Biso   1.000  H
  H525     1.0000 0.03880  0.68420  0.06640  Biso   1.000  H
  H526     1.0000 0.21120  0.56580  0.06640  Biso   1.000  H
  H527     1.0000 0.03880  0.56580  0.18360  Biso   1.000  H
  H528     1.0000 0.21120  0.68420  0.18360  Biso   1.000  H
  H529     1.0000 0.46120  0.81580  0.93360  Biso   1.000  H
  H530     1.0000 0.78880  0.43420  0.93360  Biso   1.000  H
  H531     1.0000 0.46120  0.43420  0.31640  Biso   1.000  H
  H532     1.0000 0.78880  0.81580  0.31640  Biso   1.000  H
  H533     1.0000 0.46120  0.31580  0.43360  Biso   1.000  H
  H534     1.0000 0.78880  0.93420  0.43360  Biso   1.000  H
  H535     1.0000 0.46120  0.93420  0.81640  Biso   1.000  H
  H536     1.0000 0.78880  0.31580  0.81640  Biso   1.000  H
  H537     1.0000 0.96120  0.81580  0.43360  Biso   1.000  H
  H538     1.0000 0.28880  0.43420  0.43360  Biso   1.000  H
  H539     1.0000 0.96120  0.43420  0.81640  Biso   1.000  H
  H540     1.0000 0.28880  0.81580  0.81640  Biso   1.000  H
  H541     1.0000 0.96120  0.31580  0.93360  Biso   1.000  H
  H542     1.0000 0.28880  0.93420  0.93360  Biso   1.000  H
  H543     1.0000 0.96120  0.93420  0.31640  Biso   1.000  H
  H544     1.0000 0.28880  0.31580  0.31640  Biso   1.000  H
  H545     1.0000 0.47030  0.18600  0.07140  Biso   1.000  H
  H546     1.0000 0.77970  0.06400  0.07140  Biso   1.000  H
  H547     1.0000 0.47030  0.06400  0.17860  Biso   1.000  H
  H548     1.0000 0.77970  0.18600  0.17860  Biso   1.000  H
  H549     1.0000 0.47030  0.68600  0.57140  Biso   1.000  H
  H550     1.0000 0.77970  0.56400  0.57140  Biso   1.000  H
  H551     1.0000 0.47030  0.56400  0.67860  Biso   1.000  H
  H552     1.0000 0.77970  0.68600  0.67860  Biso   1.000  H
  H553     1.0000 0.97030  0.18600  0.57140  Biso   1.000  H
  H554     1.0000 0.27970  0.06400  0.57140  Biso   1.000  H
  H555     1.0000 0.97030  0.06400  0.67860  Biso   1.000  H
  H556     1.0000 0.27970  0.18600  0.67860  Biso   1.000  H
  H557     1.0000 0.97030  0.68600  0.07140  Biso   1.000  H
  H558     1.0000 0.27970  0.56400  0.07140  Biso   1.000  H
  H559     1.0000 0.97030  0.56400  0.17860  Biso   1.000  H
  H560     1.0000 0.27970  0.68600  0.17860  Biso   1.000  H
  H561     1.0000 0.52970  0.81400  0.92860  Biso   1.000  H
  H562     1.0000 0.72030  0.43600  0.92860  Biso   1.000  H
  H563     1.0000 0.52970  0.43600  0.32140  Biso   1.000  H
  H564     1.0000 0.72030  0.81400  0.32140  Biso   1.000  H
  H565     1.0000 0.52970  0.31400  0.42860  Biso   1.000  H
  H566     1.0000 0.72030  0.93600  0.42860  Biso   1.000  H
  H567     1.0000 0.52970  0.93600  0.82140  Biso   1.000  H
  H568     1.0000 0.72030  0.31400  0.82140  Biso   1.000  H
  H569     1.0000 0.02970  0.81400  0.42860  Biso   1.000  H
  H570     1.0000 0.22030  0.43600  0.42860  Biso   1.000  H
  H571     1.0000 0.02970  0.43600  0.82140  Biso   1.000  H
  H572     1.0000 0.22030  0.81400  0.82140  Biso   1.000  H
  H573     1.0000 0.02970  0.31400  0.92860  Biso   1.000  H
  H574     1.0000 0.22030  0.93600  0.92860  Biso   1.000  H
  H575     1.0000 0.02970  0.93600  0.32140  Biso   1.000  H
  H576     1.0000 0.22030  0.31400  0.32140  Biso   1.000  H
  H577     1.0000 0.51550  0.18210  0.09190  Biso   1.000  H
  H578     1.0000 0.73450  0.06790  0.09190  Biso   1.000  H
  H579     1.0000 0.51550  0.06790  0.15810  Biso   1.000  H
  H580     1.0000 0.73450  0.18210  0.15810  Biso   1.000  H
  H581     1.0000 0.51550  0.68210  0.59190  Biso   1.000  H
  H582     1.0000 0.73450  0.56790  0.59190  Biso   1.000  H
  H583     1.0000 0.51550  0.56790  0.65810  Biso   1.000  H
  H584     1.0000 0.73450  0.68210  0.65810  Biso   1.000  H
  H585     1.0000 0.01550  0.18210  0.59190  Biso   1.000  H
  H586     1.0000 0.23450  0.06790  0.59190  Biso   1.000  H
  H587     1.0000 0.01550  0.06790  0.65810  Biso   1.000  H
  H588     1.0000 0.23450  0.18210  0.65810  Biso   1.000  H
  H589     1.0000 0.01550  0.68210  0.09190  Biso   1.000  H
  H590     1.0000 0.23450  0.56790  0.09190  Biso   1.000  H
  H591     1.0000 0.01550  0.56790  0.15810  Biso   1.000  H
  H592     1.0000 0.23450  0.68210  0.15810  Biso   1.000  H
  H593     1.0000 0.48450  0.81790  0.90810  Biso   1.000  H
  H594     1.0000 0.76550  0.43210  0.90810  Biso   1.000  H
  H595     1.0000 0.48450  0.43210  0.34190  Biso   1.000  H
  H596     1.0000 0.76550  0.81790  0.34190  Biso   1.000  H
  H597     1.0000 0.48450  0.31790  0.40810  Biso   1.000  H
  H598     1.0000 0.76550  0.93210  0.40810  Biso   1.000  H
  H599     1.0000 0.48450  0.93210  0.84190  Biso   1.000  H
  H600     1.0000 0.76550  0.31790  0.84190  Biso   1.000  H
  H601     1.0000 0.98450  0.81790  0.40810  Biso   1.000  H
  H602     1.0000 0.26550  0.43210  0.40810  Biso   1.000  H
  H603     1.0000 0.98450  0.43210  0.84190  Biso   1.000  H
  H604     1.0000 0.26550  0.81790  0.84190  Biso   1.000  H
  H605     1.0000 0.98450  0.31790  0.90810  Biso   1.000  H
  H606     1.0000 0.26550  0.93210  0.90810  Biso   1.000  H
  H607     1.0000 0.98450  0.93210  0.34190  Biso   1.000  H
  H608     1.0000 0.26550  0.31790  0.34190  Biso   1.000  H
  C673     1.0000 0.43630  0.28200  0.99046  Biso   1.000  C
  C674     1.0000 0.81370  0.96800  0.99046  Biso   1.000  C
  C675     1.0000 0.43630  0.96800  0.25954  Biso   1.000  C
  C676     1.0000 0.81370  0.28200  0.25954  Biso   1.000  C
  C677     1.0000 0.43630  0.78200  0.49046  Biso   1.000  C
  C678     1.0000 0.81370  0.46800  0.49046  Biso   1.000  C
  C679     1.0000 0.43630  0.46800  0.75954  Biso   1.000  C
  C680     1.0000 0.81370  0.78200  0.75954  Biso   1.000  C
  C681     1.0000 0.93630  0.28200  0.49046  Biso   1.000  C
  C682     1.0000 0.31370  0.96800  0.49046  Biso   1.000  C
  C683     1.0000 0.93630  0.96800  0.75954  Biso   1.000  C
  C684     1.0000 0.31370  0.28200  0.75954  Biso   1.000  C
  C685     1.0000 0.93630  0.78200  0.99046  Biso   1.000  C
  C686     1.0000 0.31370  0.46800  0.99046  Biso   1.000  C
  C687     1.0000 0.93630  0.46800  0.25954  Biso   1.000  C
  C688     1.0000 0.31370  0.78200  0.25954  Biso   1.000  C
  C689     1.0000 0.56370  0.71800  0.00954  Biso   1.000  C
  C690     1.0000 0.68630  0.53200  0.00954  Biso   1.000  C
  C691     1.0000 0.56370  0.53200  0.24046  Biso   1.000  C
  C692     1.0000 0.68630  0.71800  0.24046  Biso   1.000  C
  C693     1.0000 0.56370  0.21800  0.50954  Biso   1.000  C
  C694     1.0000 0.68630  0.03200  0.50954  Biso   1.000  C
  C695     1.0000 0.56370  0.03200  0.74046  Biso   1.000  C
  C696     1.0000 0.68630  0.21800  0.74046  Biso   1.000  C
  C697     1.0000 0.06370  0.71800  0.50954  Biso   1.000  C
  C698     1.0000 0.18630  0.53200  0.50954  Biso   1.000  C
  C699     1.0000 0.06370  0.53200  0.74046  Biso   1.000  C
  C700     1.0000 0.18630  0.71800  0.74046  Biso   1.000  C
  C701     1.0000 0.06370  0.21800  0.00954  Biso   1.000  C
  C702     1.0000 0.18630  0.03200  0.00954  Biso   1.000  C
  C703     1.0000 0.06370  0.03200  0.24046  Biso   1.000  C
  C704     1.0000 0.18630  0.21800  0.24046  Biso   1.000  C
  H609     1.0000 0.42190  0.31060  0.99030  Biso   1.000  H
  H610     1.0000 0.82810  0.93940  0.99030  Biso   1.000  H
  H611     1.0000 0.42190  0.93940  0.25970  Biso   1.000  H
  H612     1.0000 0.82810  0.31060  0.25970  Biso   1.000  H
  H613     1.0000 0.42190  0.81060  0.49030  Biso   1.000  H
  H614     1.0000 0.82810  0.43940  0.49030  Biso   1.000  H
  H615     1.0000 0.42190  0.43940  0.75970  Biso   1.000  H
  H616     1.0000 0.82810  0.81060  0.75970  Biso   1.000  H
  H617     1.0000 0.92190  0.31060  0.49030  Biso   1.000  H
  H618     1.0000 0.32810  0.93940  0.49030  Biso   1.000  H
  H619     1.0000 0.92190  0.93940  0.75970  Biso   1.000  H
  H620     1.0000 0.32810  0.31060  0.75970  Biso   1.000  H
  H621     1.0000 0.92190  0.81060  0.99030  Biso   1.000  H
  H622     1.0000 0.32810  0.43940  0.99030  Biso   1.000  H
  H623     1.0000 0.92190  0.43940  0.25970  Biso   1.000  H
  H624     1.0000 0.32810  0.81060  0.25970  Biso   1.000  H
  H625     1.0000 0.57810  0.68940  0.00970  Biso   1.000  H
  H626     1.0000 0.67190  0.56060  0.00970  Biso   1.000  H
  H627     1.0000 0.57810  0.56060  0.24030  Biso   1.000  H
  H628     1.0000 0.67190  0.68940  0.24030  Biso   1.000  H
  H629     1.0000 0.57810  0.18940  0.50970  Biso   1.000  H
  H630     1.0000 0.67190  0.06060  0.50970  Biso   1.000  H
  H631     1.0000 0.57810  0.06060  0.74030  Biso   1.000  H
  H632     1.0000 0.67190  0.18940  0.74030  Biso   1.000  H
  H633     1.0000 0.07810  0.68940  0.50970  Biso   1.000  H
  H634     1.0000 0.17190  0.56060  0.50970  Biso   1.000  H
  H635     1.0000 0.07810  0.56060  0.74030  Biso   1.000  H
  H636     1.0000 0.17190  0.68940  0.74030  Biso   1.000  H
  H637     1.0000 0.07810  0.18940  0.00970  Biso   1.000  H
  H638     1.0000 0.17190  0.06060  0.00970  Biso   1.000  H
  H639     1.0000 0.07810  0.06060  0.24030  Biso   1.000  H
  H640     1.0000 0.17190  0.18940  0.24030  Biso   1.000  H
  C705     1.0000 0.48750  0.28160  0.97504  Biso   1.000  C
  C706     1.0000 0.76250  0.96840  0.97504  Biso   1.000  C
  C707     1.0000 0.48750  0.96840  0.27496  Biso   1.000  C
  C708     1.0000 0.76250  0.28160  0.27496  Biso   1.000  C
  C709     1.0000 0.48750  0.78160  0.47504  Biso   1.000  C
  C710     1.0000 0.76250  0.46840  0.47504  Biso   1.000  C
  C711     1.0000 0.48750  0.46840  0.77496  Biso   1.000  C
  C712     1.0000 0.76250  0.78160  0.77496  Biso   1.000  C
  C713     1.0000 0.98750  0.28160  0.47504  Biso   1.000  C
  C714     1.0000 0.26250  0.96840  0.47504  Biso   1.000  C
  C715     1.0000 0.98750  0.96840  0.77496  Biso   1.000  C
  C716     1.0000 0.26250  0.28160  0.77496  Biso   1.000  C
  C717     1.0000 0.98750  0.78160  0.97504  Biso   1.000  C
  C718     1.0000 0.26250  0.46840  0.97504  Biso   1.000  C
  C719     1.0000 0.98750  0.46840  0.27496  Biso   1.000  C
  C720     1.0000 0.26250  0.78160  0.27496  Biso   1.000  C
  C721     1.0000 0.51250  0.71840  0.02496  Biso   1.000  C
  C722     1.0000 0.73750  0.53160  0.02496  Biso   1.000  C
  C723     1.0000 0.51250  0.53160  0.22504  Biso   1.000  C
  C724     1.0000 0.73750  0.71840  0.22504  Biso   1.000  C
  C725     1.0000 0.51250  0.21840  0.52496  Biso   1.000  C
  C726     1.0000 0.73750  0.03160  0.52496  Biso   1.000  C
  C727     1.0000 0.51250  0.03160  0.72504  Biso   1.000  C
  C728     1.0000 0.73750  0.21840  0.72504  Biso   1.000  C
  C729     1.0000 0.01250  0.71840  0.52496  Biso   1.000  C
  C730     1.0000 0.23750  0.53160  0.52496  Biso   1.000  C
  C731     1.0000 0.01250  0.53160  0.72504  Biso   1.000  C
  C732     1.0000 0.23750  0.71840  0.72504  Biso   1.000  C
  C733     1.0000 0.01250  0.21840  0.02496  Biso   1.000  C
  C734     1.0000 0.23750  0.03160  0.02496  Biso   1.000  C
  C735     1.0000 0.01250  0.03160  0.22504  Biso   1.000  C
  C736     1.0000 0.23750  0.21840  0.22504  Biso   1.000  C
  H641     1.0000 0.52010  0.29580  0.98220  Biso   1.000  H
  H642     1.0000 0.72990  0.95420  0.98220  Biso   1.000  H
  H643     1.0000 0.52010  0.95420  0.26780  Biso   1.000  H
  H644     1.0000 0.72990  0.29580  0.26780  Biso   1.000  H
  H645     1.0000 0.52010  0.79580  0.48220  Biso   1.000  H
  H646     1.0000 0.72990  0.45420  0.48220  Biso   1.000  H
  H647     1.0000 0.52010  0.45420  0.76780  Biso   1.000  H
  H648     1.0000 0.72990  0.79580  0.76780  Biso   1.000  H
  H649     1.0000 0.02010  0.29580  0.48220  Biso   1.000  H
  H650     1.0000 0.22990  0.95420  0.48220  Biso   1.000  H
  H651     1.0000 0.02010  0.95420  0.76780  Biso   1.000  H
  H652     1.0000 0.22990  0.29580  0.76780  Biso   1.000  H
  H653     1.0000 0.02010  0.79580  0.98220  Biso   1.000  H
  H654     1.0000 0.22990  0.45420  0.98220  Biso   1.000  H
  H655     1.0000 0.02010  0.45420  0.26780  Biso   1.000  H
  H656     1.0000 0.22990  0.79580  0.26780  Biso   1.000  H
  H657     1.0000 0.47990  0.70420  0.01780  Biso   1.000  H
  H658     1.0000 0.77010  0.54580  0.01780  Biso   1.000  H
  H659     1.0000 0.47990  0.54580  0.23220  Biso   1.000  H
  H660     1.0000 0.77010  0.70420  0.23220  Biso   1.000  H
  H661     1.0000 0.47990  0.20420  0.51780  Biso   1.000  H
  H662     1.0000 0.77010  0.04580  0.51780  Biso   1.000  H
  H663     1.0000 0.47990  0.04580  0.73220  Biso   1.000  H
  H664     1.0000 0.77010  0.20420  0.73220  Biso   1.000  H
  H665     1.0000 0.97990  0.70420  0.51780  Biso   1.000  H
  H666     1.0000 0.27010  0.54580  0.51780  Biso   1.000  H
  H667     1.0000 0.97990  0.54580  0.73220  Biso   1.000  H
  H668     1.0000 0.27010  0.70420  0.73220  Biso   1.000  H
  H669     1.0000 0.97990  0.20420  0.01780  Biso   1.000  H
  H670     1.0000 0.27010  0.04580  0.01780  Biso   1.000  H
  H671     1.0000 0.97990  0.04580  0.23220  Biso   1.000  H
  H672     1.0000 0.27010  0.20420  0.23220  Biso   1.000  H
  H673     1.0000 0.47740  0.29530  0.96090  Biso   1.000  H
  H674     1.0000 0.77260  0.95470  0.96090  Biso   1.000  H
  H675     1.0000 0.47740  0.95470  0.28910  Biso   1.000  H
  H676     1.0000 0.77260  0.29530  0.28910  Biso   1.000  H
  H677     1.0000 0.47740  0.79530  0.46090  Biso   1.000  H
  H678     1.0000 0.77260  0.45470  0.46090  Biso   1.000  H
  H679     1.0000 0.47740  0.45470  0.78910  Biso   1.000  H
  H680     1.0000 0.77260  0.79530  0.78910  Biso   1.000  H
  H681     1.0000 0.97740  0.29530  0.46090  Biso   1.000  H
  H682     1.0000 0.27260  0.95470  0.46090  Biso   1.000  H
  H683     1.0000 0.97740  0.95470  0.78910  Biso   1.000  H
  H684     1.0000 0.27260  0.29530  0.78910  Biso   1.000  H
  H685     1.0000 0.97740  0.79530  0.96090  Biso   1.000  H
  H686     1.0000 0.27260  0.45470  0.96090  Biso   1.000  H
  H687     1.0000 0.97740  0.45470  0.28910  Biso   1.000  H
  H688     1.0000 0.27260  0.79530  0.28910  Biso   1.000  H
  H689     1.0000 0.52260  0.70470  0.03910  Biso   1.000  H
  H690     1.0000 0.72740  0.54530  0.03910  Biso   1.000  H
  H691     1.0000 0.52260  0.54530  0.21090  Biso   1.000  H
  H692     1.0000 0.72740  0.70470  0.21090  Biso   1.000  H
  H693     1.0000 0.52260  0.20470  0.53910  Biso   1.000  H
  H694     1.0000 0.72740  0.04530  0.53910  Biso   1.000  H
  H695     1.0000 0.52260  0.04530  0.71090  Biso   1.000  H
  H696     1.0000 0.72740  0.20470  0.71090  Biso   1.000  H
  H697     1.0000 0.02260  0.70470  0.53910  Biso   1.000  H
  H698     1.0000 0.22740  0.54530  0.53910  Biso   1.000  H
  H699     1.0000 0.02260  0.54530  0.71090  Biso   1.000  H
  H700     1.0000 0.22740  0.70470  0.71090  Biso   1.000  H
  H701     1.0000 0.02260  0.20470  0.03910  Biso   1.000  H
  H702     1.0000 0.22740  0.04530  0.03910  Biso   1.000  H
  H703     1.0000 0.02260  0.04530  0.21090  Biso   1.000  H
  H704     1.0000 0.22740  0.20470  0.21090  Biso   1.000  H
  H705     1.0000 0.49870  0.25350  0.97190  Biso   1.000  H
  H706     1.0000 0.75130  0.99650  0.97190  Biso   1.000  H
  H707     1.0000 0.49870  0.99650  0.27810  Biso   1.000  H
  H708     1.0000 0.75130  0.25350  0.27810  Biso   1.000  H
  H709     1.0000 0.49870  0.75350  0.47190  Biso   1.000  H
  H710     1.0000 0.75130  0.49650  0.47190  Biso   1.000  H
  H711     1.0000 0.49870  0.49650  0.77810  Biso   1.000  H
  H712     1.0000 0.75130  0.75350  0.77810  Biso   1.000  H
  H713     1.0000 0.99870  0.25350  0.47190  Biso   1.000  H
  H714     1.0000 0.25130  0.99650  0.47190  Biso   1.000  H
  H715     1.0000 0.99870  0.99650  0.77810  Biso   1.000  H
  H716     1.0000 0.25130  0.25350  0.77810  Biso   1.000  H
  H717     1.0000 0.99870  0.75350  0.97190  Biso   1.000  H
  H718     1.0000 0.25130  0.49650  0.97190  Biso   1.000  H
  H719     1.0000 0.99870  0.49650  0.27810  Biso   1.000  H
  H720     1.0000 0.25130  0.75350  0.27810  Biso   1.000  H
  H721     1.0000 0.50130  0.74650  0.02810  Biso   1.000  H
  H722     1.0000 0.74870  0.50350  0.02810  Biso   1.000  H
  H723     1.0000 0.50130  0.50350  0.22190  Biso   1.000  H
  H724     1.0000 0.74870  0.74650  0.22190  Biso   1.000  H
  H725     1.0000 0.50130  0.24650  0.52810  Biso   1.000  H
  H726     1.0000 0.74870  0.00350  0.52810  Biso   1.000  H
  H727     1.0000 0.50130  0.00350  0.72190  Biso   1.000  H
  H728     1.0000 0.74870  0.24650  0.72190  Biso   1.000  H
  H729     1.0000 0.00130  0.74650  0.52810  Biso   1.000  H
  H730     1.0000 0.24870  0.50350  0.52810  Biso   1.000  H
  H731     1.0000 0.00130  0.50350  0.72190  Biso   1.000  H
  H732     1.0000 0.24870  0.74650  0.72190  Biso   1.000  H
  H733     1.0000 0.00130  0.24650  0.02810  Biso   1.000  H
  H734     1.0000 0.24870  0.00350  0.02810  Biso   1.000  H
  H735     1.0000 0.00130  0.00350  0.22190  Biso   1.000  H
  H736     1.0000 0.24870  0.24650  0.22190  Biso   1.000  H
  C737     1.0000 0.38570  0.25680  0.98260  Biso   1.000  C
  C738     1.0000 0.86430  0.99320  0.98260  Biso   1.000  C
  C739     1.0000 0.38570  0.99320  0.26740  Biso   1.000  C
  C740     1.0000 0.86430  0.25680  0.26740  Biso   1.000  C
  C741     1.0000 0.38570  0.75680  0.48260  Biso   1.000  C
  C742     1.0000 0.86430  0.49320  0.48260  Biso   1.000  C
  C743     1.0000 0.38570  0.49320  0.76740  Biso   1.000  C
  C744     1.0000 0.86430  0.75680  0.76740  Biso   1.000  C
  C745     1.0000 0.88570  0.25680  0.48260  Biso   1.000  C
  C746     1.0000 0.36430  0.99320  0.48260  Biso   1.000  C
  C747     1.0000 0.88570  0.99320  0.76740  Biso   1.000  C
  C748     1.0000 0.36430  0.25680  0.76740  Biso   1.000  C
  C749     1.0000 0.88570  0.75680  0.98260  Biso   1.000  C
  C750     1.0000 0.36430  0.49320  0.98260  Biso   1.000  C
  C751     1.0000 0.88570  0.49320  0.26740  Biso   1.000  C
  C752     1.0000 0.36430  0.75680  0.26740  Biso   1.000  C
  C753     1.0000 0.61430  0.74320  0.01740  Biso   1.000  C
  C754     1.0000 0.63570  0.50680  0.01740  Biso   1.000  C
  C755     1.0000 0.61430  0.50680  0.23260  Biso   1.000  C
  C756     1.0000 0.63570  0.74320  0.23260  Biso   1.000  C
  C757     1.0000 0.61430  0.24320  0.51740  Biso   1.000  C
  C758     1.0000 0.63570  0.00680  0.51740  Biso   1.000  C
  C759     1.0000 0.61430  0.00680  0.73260  Biso   1.000  C
  C760     1.0000 0.63570  0.24320  0.73260  Biso   1.000  C
  C761     1.0000 0.11430  0.74320  0.51740  Biso   1.000  C
  C762     1.0000 0.13570  0.50680  0.51740  Biso   1.000  C
  C763     1.0000 0.11430  0.50680  0.73260  Biso   1.000  C
  C764     1.0000 0.13570  0.74320  0.73260  Biso   1.000  C
  C765     1.0000 0.11430  0.24320  0.01740  Biso   1.000  C
  C766     1.0000 0.13570  0.00680  0.01740  Biso   1.000  C
  C767     1.0000 0.11430  0.00680  0.23260  Biso   1.000  C
  C768     1.0000 0.13570  0.24320  0.23260  Biso   1.000  C
  H737     1.0000 0.38080  0.23350  0.99270  Biso   1.000  H
  H738     1.0000 0.86920  0.01650  0.99270  Biso   1.000  H
  H739     1.0000 0.38080  0.01650  0.25730  Biso   1.000  H
  H740     1.0000 0.86920  0.23350  0.25730  Biso   1.000  H
  H741     1.0000 0.38080  0.73350  0.49270  Biso   1.000  H
  H742     1.0000 0.86920  0.51650  0.49270  Biso   1.000  H
  H743     1.0000 0.38080  0.51650  0.75730  Biso   1.000  H
  H744     1.0000 0.86920  0.73350  0.75730  Biso   1.000  H
  H745     1.0000 0.88080  0.23350  0.49270  Biso   1.000  H
  H746     1.0000 0.36920  0.01650  0.49270  Biso   1.000  H
  H747     1.0000 0.88080  0.01650  0.75730  Biso   1.000  H
  H748     1.0000 0.36920  0.23350  0.75730  Biso   1.000  H
  H749     1.0000 0.88080  0.73350  0.99270  Biso   1.000  H
  H750     1.0000 0.36920  0.51650  0.99270  Biso   1.000  H
  H751     1.0000 0.88080  0.51650  0.25730  Biso   1.000  H
  H752     1.0000 0.36920  0.73350  0.25730  Biso   1.000  H
  H753     1.0000 0.61920  0.76650  0.00730  Biso   1.000  H
  H754     1.0000 0.63080  0.48350  0.00730  Biso   1.000  H
  H755     1.0000 0.61920  0.48350  0.24270  Biso   1.000  H
  H756     1.0000 0.63080  0.76650  0.24270  Biso   1.000  H
  H757     1.0000 0.61920  0.26650  0.50730  Biso   1.000  H
  H758     1.0000 0.63080  0.98350  0.50730  Biso   1.000  H
  H759     1.0000 0.61920  0.98350  0.74270  Biso   1.000  H
  H760     1.0000 0.63080  0.26650  0.74270  Biso   1.000  H
  H761     1.0000 0.11920  0.76650  0.50730  Biso   1.000  H
  H762     1.0000 0.13080  0.48350  0.50730  Biso   1.000  H
  H763     1.0000 0.11920  0.48350  0.74270  Biso   1.000  H
  H764     1.0000 0.13080  0.76650  0.74270  Biso   1.000  H
  H765     1.0000 0.11920  0.26650  0.00730  Biso   1.000  H
  H766     1.0000 0.13080  0.98350  0.00730  Biso   1.000  H
  H767     1.0000 0.11920  0.98350  0.24270  Biso   1.000  H
  H768     1.0000 0.13080  0.26650  0.24270  Biso   1.000  H
  H769     1.0000 0.39310  0.24720  0.96720  Biso   1.000  H
  H770     1.0000 0.85690  0.00280  0.96720  Biso   1.000  H
  H771     1.0000 0.39310  0.00280  0.28280  Biso   1.000  H
  H772     1.0000 0.85690  0.24720  0.28280  Biso   1.000  H
  H773     1.0000 0.39310  0.74720  0.46720  Biso   1.000  H
  H774     1.0000 0.85690  0.50280  0.46720  Biso   1.000  H
  H775     1.0000 0.39310  0.50280  0.78280  Biso   1.000  H
  H776     1.0000 0.85690  0.74720  0.78280  Biso   1.000  H
  H777     1.0000 0.89310  0.24720  0.46720  Biso   1.000  H
  H778     1.0000 0.35690  0.00280  0.46720  Biso   1.000  H
  H779     1.0000 0.89310  0.00280  0.78280  Biso   1.000  H
  H780     1.0000 0.35690  0.24720  0.78280  Biso   1.000  H
  H781     1.0000 0.89310  0.74720  0.96720  Biso   1.000  H
  H782     1.0000 0.35690  0.50280  0.96720  Biso   1.000  H
  H783     1.0000 0.89310  0.50280  0.28280  Biso   1.000  H
  H784     1.0000 0.35690  0.74720  0.28280  Biso   1.000  H
  H785     1.0000 0.60690  0.75280  0.03280  Biso   1.000  H
  H786     1.0000 0.64310  0.49720  0.03280  Biso   1.000  H
  H787     1.0000 0.60690  0.49720  0.21720  Biso   1.000  H
  H788     1.0000 0.64310  0.75280  0.21720  Biso   1.000  H
  H789     1.0000 0.60690  0.25280  0.53280  Biso   1.000  H
  H790     1.0000 0.64310  0.99720  0.53280  Biso   1.000  H
  H791     1.0000 0.60690  0.99720  0.71720  Biso   1.000  H
  H792     1.0000 0.64310  0.25280  0.71720  Biso   1.000  H
  H793     1.0000 0.10690  0.75280  0.53280  Biso   1.000  H
  H794     1.0000 0.14310  0.49720  0.53280  Biso   1.000  H
  H795     1.0000 0.10690  0.49720  0.71720  Biso   1.000  H
  H796     1.0000 0.14310  0.75280  0.71720  Biso   1.000  H
  H797     1.0000 0.10690  0.25280  0.03280  Biso   1.000  H
  H798     1.0000 0.14310  0.99720  0.03280  Biso   1.000  H
  H799     1.0000 0.10690  0.99720  0.21720  Biso   1.000  H
  H800     1.0000 0.14310  0.25280  0.21720  Biso   1.000  H
  H801     1.0000 0.35020  0.27330  0.98280  Biso   1.000  H
  H802     1.0000 0.89980  0.97670  0.98280  Biso   1.000  H
  H803     1.0000 0.35020  0.97670  0.26720  Biso   1.000  H
  H804     1.0000 0.89980  0.27330  0.26720  Biso   1.000  H
  H805     1.0000 0.35020  0.77330  0.48280  Biso   1.000  H
  H806     1.0000 0.89980  0.47670  0.48280  Biso   1.000  H
  H807     1.0000 0.35020  0.47670  0.76720  Biso   1.000  H
  H808     1.0000 0.89980  0.77330  0.76720  Biso   1.000  H
  H809     1.0000 0.85020  0.27330  0.48280  Biso   1.000  H
  H810     1.0000 0.39980  0.97670  0.48280  Biso   1.000  H
  H811     1.0000 0.85020  0.97670  0.76720  Biso   1.000  H
  H812     1.0000 0.39980  0.27330  0.76720  Biso   1.000  H
  H813     1.0000 0.85020  0.77330  0.98280  Biso   1.000  H
  H814     1.0000 0.39980  0.47670  0.98280  Biso   1.000  H
  H815     1.0000 0.85020  0.47670  0.26720  Biso   1.000  H
  H816     1.0000 0.39980  0.77330  0.26720  Biso   1.000  H
  H817     1.0000 0.64980  0.72670  0.01720  Biso   1.000  H
  H818     1.0000 0.60020  0.52330  0.01720  Biso   1.000  H
  H819     1.0000 0.64980  0.52330  0.23280  Biso   1.000  H
  H820     1.0000 0.60020  0.72670  0.23280  Biso   1.000  H
  H821     1.0000 0.64980  0.22670  0.51720  Biso   1.000  H
  H822     1.0000 0.60020  0.02330  0.51720  Biso   1.000  H
  H823     1.0000 0.64980  0.02330  0.73280  Biso   1.000  H
  H824     1.0000 0.60020  0.22670  0.73280  Biso   1.000  H
  H825     1.0000 0.14980  0.72670  0.51720  Biso   1.000  H
  H826     1.0000 0.10020  0.52330  0.51720  Biso   1.000  H
  H827     1.0000 0.14980  0.52330  0.73280  Biso   1.000  H
  H828     1.0000 0.10020  0.72670  0.73280  Biso   1.000  H
  H829     1.0000 0.14980  0.22670  0.01720  Biso   1.000  H
  H830     1.0000 0.10020  0.02330  0.01720  Biso   1.000  H
  H831     1.0000 0.14980  0.02330  0.23280  Biso   1.000  H
  H832     1.0000 0.10020  0.22670  0.23280  Biso   1.000  H
  C769     1.0000 0.25960  0.34910  0.98469  Biso   1.000  C
  C770     1.0000 0.99040  0.90090  0.98469  Biso   1.000  C
  C771     1.0000 0.25960  0.90090  0.26531  Biso   1.000  C
  C772     1.0000 0.99040  0.34910  0.26531  Biso   1.000  C
  C773     1.0000 0.25960  0.84910  0.48469  Biso   1.000  C
  C774     1.0000 0.99040  0.40090  0.48469  Biso   1.000  C
  C775     1.0000 0.25960  0.40090  0.76531  Biso   1.000  C
  C776     1.0000 0.99040  0.84910  0.76531  Biso   1.000  C
  C777     1.0000 0.75960  0.34910  0.48469  Biso   1.000  C
  C778     1.0000 0.49040  0.90090  0.48469  Biso   1.000  C
  C779     1.0000 0.75960  0.90090  0.76531  Biso   1.000  C
  C780     1.0000 0.49040  0.34910  0.76531  Biso   1.000  C
  C781     1.0000 0.75960  0.84910  0.98469  Biso   1.000  C
  C782     1.0000 0.49040  0.40090  0.98469  Biso   1.000  C
  C783     1.0000 0.75960  0.40090  0.26531  Biso   1.000  C
  C784     1.0000 0.49040  0.84910  0.26531  Biso   1.000  C
  C785     1.0000 0.74040  0.65090  0.01531  Biso   1.000  C
  C786     1.0000 0.50960  0.59910  0.01531  Biso   1.000  C
  C787     1.0000 0.74040  0.59910  0.23469  Biso   1.000  C
  C788     1.0000 0.50960  0.65090  0.23469  Biso   1.000  C
  C789     1.0000 0.74040  0.15090  0.51531  Biso   1.000  C
  C790     1.0000 0.50960  0.09910  0.51531  Biso   1.000  C
  C791     1.0000 0.74040  0.09910  0.73469  Biso   1.000  C
  C792     1.0000 0.50960  0.15090  0.73469  Biso   1.000  C
  C793     1.0000 0.24040  0.65090  0.51531  Biso   1.000  C
  C794     1.0000 0.00960  0.59910  0.51531  Biso   1.000  C
  C795     1.0000 0.24040  0.59910  0.73469  Biso   1.000  C
  C796     1.0000 0.00960  0.65090  0.73469  Biso   1.000  C
  C797     1.0000 0.24040  0.15090  0.01531  Biso   1.000  C
  C798     1.0000 0.00960  0.09910  0.01531  Biso   1.000  C
  C799     1.0000 0.24040  0.09910  0.23469  Biso   1.000  C
  C800     1.0000 0.00960  0.15090  0.23469  Biso   1.000  C
  H833     1.0000 0.23510  0.37360  0.98750  Biso   1.000  H
  H834     1.0000 0.01490  0.87640  0.98750  Biso   1.000  H
  H835     1.0000 0.23510  0.87640  0.26250  Biso   1.000  H
  H836     1.0000 0.01490  0.37360  0.26250  Biso   1.000  H
  H837     1.0000 0.23510  0.87360  0.48750  Biso   1.000  H
  H838     1.0000 0.01490  0.37640  0.48750  Biso   1.000  H
  H839     1.0000 0.23510  0.37640  0.76250  Biso   1.000  H
  H840     1.0000 0.01490  0.87360  0.76250  Biso   1.000  H
  H841     1.0000 0.73510  0.37360  0.48750  Biso   1.000  H
  H842     1.0000 0.51490  0.87640  0.48750  Biso   1.000  H
  H843     1.0000 0.73510  0.87640  0.76250  Biso   1.000  H
  H844     1.0000 0.51490  0.37360  0.76250  Biso   1.000  H
  H845     1.0000 0.73510  0.87360  0.98750  Biso   1.000  H
  H846     1.0000 0.51490  0.37640  0.98750  Biso   1.000  H
  H847     1.0000 0.73510  0.37640  0.26250  Biso   1.000  H
  H848     1.0000 0.51490  0.87360  0.26250  Biso   1.000  H
  H849     1.0000 0.76490  0.62640  0.01250  Biso   1.000  H
  H850     1.0000 0.48510  0.62360  0.01250  Biso   1.000  H
  H851     1.0000 0.76490  0.62360  0.23750  Biso   1.000  H
  H852     1.0000 0.48510  0.62640  0.23750  Biso   1.000  H
  H853     1.0000 0.76490  0.12640  0.51250  Biso   1.000  H
  H854     1.0000 0.48510  0.12360  0.51250  Biso   1.000  H
  H855     1.0000 0.76490  0.12360  0.73750  Biso   1.000  H
  H856     1.0000 0.48510  0.12640  0.73750  Biso   1.000  H
  H857     1.0000 0.26490  0.62640  0.51250  Biso   1.000  H
  H858     1.0000 0.98510  0.62360  0.51250  Biso   1.000  H
  H859     1.0000 0.26490  0.62360  0.73750  Biso   1.000  H
  H860     1.0000 0.98510  0.62640  0.73750  Biso   1.000  H
  H861     1.0000 0.26490  0.12640  0.01250  Biso   1.000  H
  H862     1.0000 0.98510  0.12360  0.01250  Biso   1.000  H
  H863     1.0000 0.26490  0.12360  0.23750  Biso   1.000  H
  H864     1.0000 0.98510  0.12640  0.23750  Biso   1.000  H
  C801     1.0000 0.29210  0.35300  0.96114  Biso   1.000  C
  C802     1.0000 0.95790  0.89700  0.96114  Biso   1.000  C
  C803     1.0000 0.29210  0.89700  0.28886  Biso   1.000  C
  C804     1.0000 0.95790  0.35300  0.28886  Biso   1.000  C
  C805     1.0000 0.29210  0.85300  0.46114  Biso   1.000  C
  C806     1.0000 0.95790  0.39700  0.46114  Biso   1.000  C
  C807     1.0000 0.29210  0.39700  0.78886  Biso   1.000  C
  C808     1.0000 0.95790  0.85300  0.78886  Biso   1.000  C
  C809     1.0000 0.79210  0.35300  0.46114  Biso   1.000  C
  C810     1.0000 0.45790  0.89700  0.46114  Biso   1.000  C
  C811     1.0000 0.79210  0.89700  0.78886  Biso   1.000  C
  C812     1.0000 0.45790  0.35300  0.78886  Biso   1.000  C
  C813     1.0000 0.79210  0.85300  0.96114  Biso   1.000  C
  C814     1.0000 0.45790  0.39700  0.96114  Biso   1.000  C
  C815     1.0000 0.79210  0.39700  0.28886  Biso   1.000  C
  C816     1.0000 0.45790  0.85300  0.28886  Biso   1.000  C
  C817     1.0000 0.70790  0.64700  0.03886  Biso   1.000  C
  C818     1.0000 0.54210  0.60300  0.03886  Biso   1.000  C
  C819     1.0000 0.70790  0.60300  0.21114  Biso   1.000  C
  C820     1.0000 0.54210  0.64700  0.21114  Biso   1.000  C
  C821     1.0000 0.70790  0.14700  0.53886  Biso   1.000  C
  C822     1.0000 0.54210  0.10300  0.53886  Biso   1.000  C
  C823     1.0000 0.70790  0.10300  0.71114  Biso   1.000  C
  C824     1.0000 0.54210  0.14700  0.71114  Biso   1.000  C
  C825     1.0000 0.20790  0.64700  0.53886  Biso   1.000  C
  C826     1.0000 0.04210  0.60300  0.53886  Biso   1.000  C
  C827     1.0000 0.20790  0.60300  0.71114  Biso   1.000  C
  C828     1.0000 0.04210  0.64700  0.71114  Biso   1.000  C
  C829     1.0000 0.20790  0.14700  0.03886  Biso   1.000  C
  C830     1.0000 0.04210  0.10300  0.03886  Biso   1.000  C
  C831     1.0000 0.20790  0.10300  0.21114  Biso   1.000  C
  C832     1.0000 0.04210  0.14700  0.21114  Biso   1.000  C
  H865     1.0000 0.31720  0.32930  0.95890  Biso   1.000  H
  H866     1.0000 0.93280  0.92070  0.95890  Biso   1.000  H
  H867     1.0000 0.31720  0.92070  0.29110  Biso   1.000  H
  H868     1.0000 0.93280  0.32930  0.29110  Biso   1.000  H
  H869     1.0000 0.31720  0.82930  0.45890  Biso   1.000  H
  H870     1.0000 0.93280  0.42070  0.45890  Biso   1.000  H
  H871     1.0000 0.31720  0.42070  0.79110  Biso   1.000  H
  H872     1.0000 0.93280  0.82930  0.79110  Biso   1.000  H
  H873     1.0000 0.81720  0.32930  0.45890  Biso   1.000  H
  H874     1.0000 0.43280  0.92070  0.45890  Biso   1.000  H
  H875     1.0000 0.81720  0.92070  0.79110  Biso   1.000  H
  H876     1.0000 0.43280  0.32930  0.79110  Biso   1.000  H
  H877     1.0000 0.81720  0.82930  0.95890  Biso   1.000  H
  H878     1.0000 0.43280  0.42070  0.95890  Biso   1.000  H
  H879     1.0000 0.81720  0.42070  0.29110  Biso   1.000  H
  H880     1.0000 0.43280  0.82930  0.29110  Biso   1.000  H
  H881     1.0000 0.68280  0.67070  0.04110  Biso   1.000  H
  H882     1.0000 0.56720  0.57930  0.04110  Biso   1.000  H
  H883     1.0000 0.68280  0.57930  0.20890  Biso   1.000  H
  H884     1.0000 0.56720  0.67070  0.20890  Biso   1.000  H
  H885     1.0000 0.68280  0.17070  0.54110  Biso   1.000  H
  H886     1.0000 0.56720  0.07930  0.54110  Biso   1.000  H
  H887     1.0000 0.68280  0.07930  0.70890  Biso   1.000  H
  H888     1.0000 0.56720  0.17070  0.70890  Biso   1.000  H
  H889     1.0000 0.18280  0.67070  0.54110  Biso   1.000  H
  H890     1.0000 0.06720  0.57930  0.54110  Biso   1.000  H
  H891     1.0000 0.18280  0.57930  0.70890  Biso   1.000  H
  H892     1.0000 0.06720  0.67070  0.70890  Biso   1.000  H
  H893     1.0000 0.18280  0.17070  0.04110  Biso   1.000  H
  H894     1.0000 0.06720  0.07930  0.04110  Biso   1.000  H
  H895     1.0000 0.18280  0.07930  0.20890  Biso   1.000  H
  H896     1.0000 0.06720  0.17070  0.20890  Biso   1.000  H
  H897     1.0000 0.31590  0.37770  0.96110  Biso   1.000  H
  H898     1.0000 0.93410  0.87230  0.96110  Biso   1.000  H
  H899     1.0000 0.31590  0.87230  0.28890  Biso   1.000  H
  H900     1.0000 0.93410  0.37770  0.28890  Biso   1.000  H
  H901     1.0000 0.31590  0.87770  0.46110  Biso   1.000  H
  H902     1.0000 0.93410  0.37230  0.46110  Biso   1.000  H
  H903     1.0000 0.31590  0.37230  0.78890  Biso   1.000  H
  H904     1.0000 0.93410  0.87770  0.78890  Biso   1.000  H
  H905     1.0000 0.81590  0.37770  0.46110  Biso   1.000  H
  H906     1.0000 0.43410  0.87230  0.46110  Biso   1.000  H
  H907     1.0000 0.81590  0.87230  0.78890  Biso   1.000  H
  H908     1.0000 0.43410  0.37770  0.78890  Biso   1.000  H
  H909     1.0000 0.81590  0.87770  0.96110  Biso   1.000  H
  H910     1.0000 0.43410  0.37230  0.96110  Biso   1.000  H
  H911     1.0000 0.81590  0.37230  0.28890  Biso   1.000  H
  H912     1.0000 0.43410  0.87770  0.28890  Biso   1.000  H
  H913     1.0000 0.68410  0.62230  0.03890  Biso   1.000  H
  H914     1.0000 0.56590  0.62770  0.03890  Biso   1.000  H
  H915     1.0000 0.68410  0.62770  0.21110  Biso   1.000  H
  H916     1.0000 0.56590  0.62230  0.21110  Biso   1.000  H
  H917     1.0000 0.68410  0.12230  0.53890  Biso   1.000  H
  H918     1.0000 0.56590  0.12770  0.53890  Biso   1.000  H
  H919     1.0000 0.68410  0.12770  0.71110  Biso   1.000  H
  H920     1.0000 0.56590  0.12230  0.71110  Biso   1.000  H
  H921     1.0000 0.18410  0.62230  0.53890  Biso   1.000  H
  H922     1.0000 0.06590  0.62770  0.53890  Biso   1.000  H
  H923     1.0000 0.18410  0.62770  0.71110  Biso   1.000  H
  H924     1.0000 0.06590  0.62230  0.71110  Biso   1.000  H
  H925     1.0000 0.18410  0.12230  0.03890  Biso   1.000  H
  H926     1.0000 0.06590  0.12770  0.03890  Biso   1.000  H
  H927     1.0000 0.18410  0.12770  0.21110  Biso   1.000  H
  H928     1.0000 0.06590  0.12230  0.21110  Biso   1.000  H
  H929     1.0000 0.26330  0.35440  0.94890  Biso   1.000  H
  H930     1.0000 0.98670  0.89560  0.94890  Biso   1.000  H
  H931     1.0000 0.26330  0.89560  0.30110  Biso   1.000  H
  H932     1.0000 0.98670  0.35440  0.30110  Biso   1.000  H
  H933     1.0000 0.26330  0.85440  0.44890  Biso   1.000  H
  H934     1.0000 0.98670  0.39560  0.44890  Biso   1.000  H
  H935     1.0000 0.26330  0.39560  0.80110  Biso   1.000  H
  H936     1.0000 0.98670  0.85440  0.80110  Biso   1.000  H
  H937     1.0000 0.76330  0.35440  0.44890  Biso   1.000  H
  H938     1.0000 0.48670  0.89560  0.44890  Biso   1.000  H
  H939     1.0000 0.76330  0.89560  0.80110  Biso   1.000  H
  H940     1.0000 0.48670  0.35440  0.80110  Biso   1.000  H
  H941     1.0000 0.76330  0.85440  0.94890  Biso   1.000  H
  H942     1.0000 0.48670  0.39560  0.94890  Biso   1.000  H
  H943     1.0000 0.76330  0.39560  0.30110  Biso   1.000  H
  H944     1.0000 0.48670  0.85440  0.30110  Biso   1.000  H
  H945     1.0000 0.73670  0.64560  0.05110  Biso   1.000  H
  H946     1.0000 0.51330  0.60440  0.05110  Biso   1.000  H
  H947     1.0000 0.73670  0.60440  0.19890  Biso   1.000  H
  H948     1.0000 0.51330  0.64560  0.19890  Biso   1.000  H
  H949     1.0000 0.73670  0.14560  0.55110  Biso   1.000  H
  H950     1.0000 0.51330  0.10440  0.55110  Biso   1.000  H
  H951     1.0000 0.73670  0.10440  0.69890  Biso   1.000  H
  H952     1.0000 0.51330  0.14560  0.69890  Biso   1.000  H
  H953     1.0000 0.23670  0.64560  0.55110  Biso   1.000  H
  H954     1.0000 0.01330  0.60440  0.55110  Biso   1.000  H
  H955     1.0000 0.23670  0.60440  0.69890  Biso   1.000  H
  H956     1.0000 0.01330  0.64560  0.69890  Biso   1.000  H
  H957     1.0000 0.23670  0.14560  0.05110  Biso   1.000  H
  H958     1.0000 0.01330  0.10440  0.05110  Biso   1.000  H
  H959     1.0000 0.23670  0.10440  0.19890  Biso   1.000  H
  H960     1.0000 0.01330  0.14560  0.19890  Biso   1.000  H
  C833     1.0000 0.22130  0.30980  0.98610  Biso   1.000  C
  C834     1.0000 0.02870  0.94020  0.98610  Biso   1.000  C
  C835     1.0000 0.22130  0.94020  0.26390  Biso   1.000  C
  C836     1.0000 0.02870  0.30980  0.26390  Biso   1.000  C
  C837     1.0000 0.22130  0.80980  0.48610  Biso   1.000  C
  C838     1.0000 0.02870  0.44020  0.48610  Biso   1.000  C
  C839     1.0000 0.22130  0.44020  0.76390  Biso   1.000  C
  C840     1.0000 0.02870  0.80980  0.76390  Biso   1.000  C
  C841     1.0000 0.72130  0.30980  0.48610  Biso   1.000  C
  C842     1.0000 0.52870  0.94020  0.48610  Biso   1.000  C
  C843     1.0000 0.72130  0.94020  0.76390  Biso   1.000  C
  C844     1.0000 0.52870  0.30980  0.76390  Biso   1.000  C
  C845     1.0000 0.72130  0.80980  0.98610  Biso   1.000  C
  C846     1.0000 0.52870  0.44020  0.98610  Biso   1.000  C
  C847     1.0000 0.72130  0.44020  0.26390  Biso   1.000  C
  C848     1.0000 0.52870  0.80980  0.26390  Biso   1.000  C
  C849     1.0000 0.77870  0.69020  0.01390  Biso   1.000  C
  C850     1.0000 0.47130  0.55980  0.01390  Biso   1.000  C
  C851     1.0000 0.77870  0.55980  0.23610  Biso   1.000  C
  C852     1.0000 0.47130  0.69020  0.23610  Biso   1.000  C
  C853     1.0000 0.77870  0.19020  0.51390  Biso   1.000  C
  C854     1.0000 0.47130  0.05980  0.51390  Biso   1.000  C
  C855     1.0000 0.77870  0.05980  0.73610  Biso   1.000  C
  C856     1.0000 0.47130  0.19020  0.73610  Biso   1.000  C
  C857     1.0000 0.27870  0.69020  0.51390  Biso   1.000  C
  C858     1.0000 0.97130  0.55980  0.51390  Biso   1.000  C
  C859     1.0000 0.27870  0.55980  0.73610  Biso   1.000  C
  C860     1.0000 0.97130  0.69020  0.73610  Biso   1.000  C
  C861     1.0000 0.27870  0.19020  0.01390  Biso   1.000  C
  C862     1.0000 0.97130  0.05980  0.01390  Biso   1.000  C
  C863     1.0000 0.27870  0.05980  0.23610  Biso   1.000  C
  C864     1.0000 0.97130  0.19020  0.23610  Biso   1.000  C
  H961     1.0000 0.24630  0.28640  0.98920  Biso   1.000  H
  H962     1.0000 0.00370  0.96360  0.98920  Biso   1.000  H
  H963     1.0000 0.24630  0.96360  0.26080  Biso   1.000  H
  H964     1.0000 0.00370  0.28640  0.26080  Biso   1.000  H
  H965     1.0000 0.24630  0.78640  0.48920  Biso   1.000  H
  H966     1.0000 0.00370  0.46360  0.48920  Biso   1.000  H
  H967     1.0000 0.24630  0.46360  0.76080  Biso   1.000  H
  H968     1.0000 0.00370  0.78640  0.76080  Biso   1.000  H
  H969     1.0000 0.74630  0.28640  0.48920  Biso   1.000  H
  H970     1.0000 0.50370  0.96360  0.48920  Biso   1.000  H
  H971     1.0000 0.74630  0.96360  0.76080  Biso   1.000  H
  H972     1.0000 0.50370  0.28640  0.76080  Biso   1.000  H
  H973     1.0000 0.74630  0.78640  0.98920  Biso   1.000  H
  H974     1.0000 0.50370  0.46360  0.98920  Biso   1.000  H
  H975     1.0000 0.74630  0.46360  0.26080  Biso   1.000  H
  H976     1.0000 0.50370  0.78640  0.26080  Biso   1.000  H
  H977     1.0000 0.75370  0.71360  0.01080  Biso   1.000  H
  H978     1.0000 0.49630  0.53640  0.01080  Biso   1.000  H
  H979     1.0000 0.75370  0.53640  0.23920  Biso   1.000  H
  H980     1.0000 0.49630  0.71360  0.23920  Biso   1.000  H
  H981     1.0000 0.75370  0.21360  0.51080  Biso   1.000  H
  H982     1.0000 0.49630  0.03640  0.51080  Biso   1.000  H
  H983     1.0000 0.75370  0.03640  0.73920  Biso   1.000  H
  H984     1.0000 0.49630  0.21360  0.73920  Biso   1.000  H
  H985     1.0000 0.25370  0.71360  0.51080  Biso   1.000  H
  H986     1.0000 0.99630  0.53640  0.51080  Biso   1.000  H
  H987     1.0000 0.25370  0.53640  0.73920  Biso   1.000  H
  H988     1.0000 0.99630  0.71360  0.73920  Biso   1.000  H
  H989     1.0000 0.25370  0.21360  0.01080  Biso   1.000  H
  H990     1.0000 0.99630  0.03640  0.01080  Biso   1.000  H
  H991     1.0000 0.25370  0.03640  0.23920  Biso   1.000  H
  H992     1.0000 0.99630  0.21360  0.23920  Biso   1.000  H
  H993     1.0000 0.20110  0.30580  0.97170  Biso   1.000  H
  H994     1.0000 0.04890  0.94420  0.97170  Biso   1.000  H
  H995     1.0000 0.20110  0.94420  0.27830  Biso   1.000  H
  H996     1.0000 0.04890  0.30580  0.27830  Biso   1.000  H
  H997     1.0000 0.20110  0.80580  0.47170  Biso   1.000  H
  H998     1.0000 0.04890  0.44420  0.47170  Biso   1.000  H
  H999     1.0000 0.20110  0.44420  0.77830  Biso   1.000  H
  H1000    1.0000 0.04890  0.80580  0.77830  Biso   1.000  H
  H1001    1.0000 0.70110  0.30580  0.47170  Biso   1.000  H
  H1002    1.0000 0.54890  0.94420  0.47170  Biso   1.000  H
  H1003    1.0000 0.70110  0.94420  0.77830  Biso   1.000  H
  H1004    1.0000 0.54890  0.30580  0.77830  Biso   1.000  H
  H1005    1.0000 0.70110  0.80580  0.97170  Biso   1.000  H
  H1006    1.0000 0.54890  0.44420  0.97170  Biso   1.000  H
  H1007    1.0000 0.70110  0.44420  0.27830  Biso   1.000  H
  H1008    1.0000 0.54890  0.80580  0.27830  Biso   1.000  H
  H1009    1.0000 0.79890  0.69420  0.02830  Biso   1.000  H
  H1010    1.0000 0.45110  0.55580  0.02830  Biso   1.000  H
  H1011    1.0000 0.79890  0.55580  0.22170  Biso   1.000  H
  H1012    1.0000 0.45110  0.69420  0.22170  Biso   1.000  H
  H1013    1.0000 0.79890  0.19420  0.52830  Biso   1.000  H
  H1014    1.0000 0.45110  0.05580  0.52830  Biso   1.000  H
  H1015    1.0000 0.79890  0.05580  0.72170  Biso   1.000  H
  H1016    1.0000 0.45110  0.19420  0.72170  Biso   1.000  H
  H1017    1.0000 0.29890  0.69420  0.52830  Biso   1.000  H
  H1018    1.0000 0.95110  0.55580  0.52830  Biso   1.000  H
  H1019    1.0000 0.29890  0.55580  0.72170  Biso   1.000  H
  H1020    1.0000 0.95110  0.69420  0.72170  Biso   1.000  H
  H1021    1.0000 0.29890  0.19420  0.02830  Biso   1.000  H
  H1022    1.0000 0.95110  0.05580  0.02830  Biso   1.000  H
  H1023    1.0000 0.29890  0.05580  0.22170  Biso   1.000  H
  H1024    1.0000 0.95110  0.19420  0.22170  Biso   1.000  H
  H1025    1.0000 0.19270  0.31280  0.99830  Biso   1.000  H
  H1026    1.0000 0.05730  0.93720  0.99830  Biso   1.000  H
  H1027    1.0000 0.19270  0.93720  0.25170  Biso   1.000  H
  H1028    1.0000 0.05730  0.31280  0.25170  Biso   1.000  H
  H1029    1.0000 0.19270  0.81280  0.49830  Biso   1.000  H
  H1030    1.0000 0.05730  0.43720  0.49830  Biso   1.000  H
  H1031    1.0000 0.19270  0.43720  0.75170  Biso   1.000  H
  H1032    1.0000 0.05730  0.81280  0.75170  Biso   1.000  H
  H1033    1.0000 0.69270  0.31280  0.49830  Biso   1.000  H
  H1034    1.0000 0.55730  0.93720  0.49830  Biso   1.000  H
  H1035    1.0000 0.69270  0.93720  0.75170  Biso   1.000  H
  H1036    1.0000 0.55730  0.31280  0.75170  Biso   1.000  H
  H1037    1.0000 0.69270  0.81280  0.99830  Biso   1.000  H
  H1038    1.0000 0.55730  0.43720  0.99830  Biso   1.000  H
  H1039    1.0000 0.69270  0.43720  0.25170  Biso   1.000  H
  H1040    1.0000 0.55730  0.81280  0.25170  Biso   1.000  H
  H1041    1.0000 0.80730  0.68720  0.00170  Biso   1.000  H
  H1042    1.0000 0.44270  0.56280  0.00170  Biso   1.000  H
  H1043    1.0000 0.80730  0.56280  0.24830  Biso   1.000  H
  H1044    1.0000 0.44270  0.68720  0.24830  Biso   1.000  H
  H1045    1.0000 0.80730  0.18720  0.50170  Biso   1.000  H
  H1046    1.0000 0.44270  0.06280  0.50170  Biso   1.000  H
  H1047    1.0000 0.80730  0.06280  0.74830  Biso   1.000  H
  H1048    1.0000 0.44270  0.18720  0.74830  Biso   1.000  H
  H1049    1.0000 0.30730  0.68720  0.50170  Biso   1.000  H
  H1050    1.0000 0.94270  0.56280  0.50170  Biso   1.000  H
  H1051    1.0000 0.30730  0.56280  0.74830  Biso   1.000  H
  H1052    1.0000 0.94270  0.68720  0.74830  Biso   1.000  H
  H1053    1.0000 0.30730  0.18720  0.00170  Biso   1.000  H
  H1054    1.0000 0.94270  0.06280  0.00170  Biso   1.000  H
  H1055    1.0000 0.30730  0.06280  0.24830  Biso   1.000  H
  H1056    1.0000 0.94270  0.18720  0.24830  Biso   1.000  H
