data_image0
_cell_length_a       56.305
_cell_length_b       14.621
_cell_length_c       22.372
_cell_angle_alpha    90
_cell_angle_beta     110.706
_cell_angle_gamma    90

_symmetry_space_group_name_H-M    "P 1"
_symmetry_int_tables_number       1

loop_
  _symmetry_equiv_pos_as_xyz
  'x, y, z'

loop_
  _atom_site_label
  _atom_site_occupancy
  _atom_site_fract_x
  _atom_site_fract_y
  _atom_site_fract_z
  _atom_site_thermal_displace_type
  _atom_site_B_iso_or_equiv
  _atom_site_type_symbol
  As1      1.0000 0.92000  0.34000  0.70366  Biso   1.000  As
  As2      1.0000 0.42000  0.84000  0.70366  Biso   1.000  As
  As3      1.0000 0.08000  0.34000  0.79634  Biso   1.000  As
  As4      1.0000 0.58000  0.84000  0.79634  Biso   1.000  As
  As5      1.0000 0.08000  0.66000  0.29634  Biso   1.000  As
  As6      1.0000 0.58000  0.16000  0.29634  Biso   1.000  As
  As7      1.0000 0.92000  0.66000  0.20366  Biso   1.000  As
  As8      1.0000 0.42000  0.16000  0.20366  Biso   1.000  As
  As9      1.0000 0.95443  0.16632  0.77370  Biso   1.000  As
  As10     1.0000 0.45443  0.66632  0.77370  Biso   1.000  As
  As11     1.0000 0.04557  0.16632  0.72630  Biso   1.000  As
  As12     1.0000 0.54557  0.66632  0.72630  Biso   1.000  As
  As13     1.0000 0.04557  0.83368  0.22630  Biso   1.000  As
  As14     1.0000 0.54557  0.33368  0.22630  Biso   1.000  As
  As15     1.0000 0.95443  0.83368  0.27370  Biso   1.000  As
  As16     1.0000 0.45443  0.33368  0.27370  Biso   1.000  As
  As17     1.0000 0.87385  0.91306  0.61362  Biso   1.000  As
  As18     1.0000 0.37385  0.41306  0.61362  Biso   1.000  As
  As19     1.0000 0.12615  0.91306  0.88638  Biso   1.000  As
  As20     1.0000 0.62615  0.41306  0.88638  Biso   1.000  As
  As21     1.0000 0.12615  0.08694  0.38638  Biso   1.000  As
  As22     1.0000 0.62615  0.58694  0.38638  Biso   1.000  As
  As23     1.0000 0.87385  0.08694  0.11362  Biso   1.000  As
  As24     1.0000 0.37385  0.58694  0.11362  Biso   1.000  As
  As25     1.0000 0.84004  0.08629  0.54258  Biso   1.000  As
  As26     1.0000 0.34004  0.58629  0.54258  Biso   1.000  As
  As27     1.0000 0.15996  0.08629  0.95742  Biso   1.000  As
  As28     1.0000 0.65996  0.58629  0.95742  Biso   1.000  As
  As29     1.0000 0.15996  0.91371  0.45742  Biso   1.000  As
  As30     1.0000 0.65996  0.41371  0.45742  Biso   1.000  As
  As31     1.0000 0.84004  0.91371  0.04258  Biso   1.000  As
  As32     1.0000 0.34004  0.41371  0.04258  Biso   1.000  As
  As33     1.0000 0.85502  0.89991  0.88224  Biso   1.000  As
  As34     1.0000 0.35502  0.39991  0.88224  Biso   1.000  As
  As35     1.0000 0.14498  0.89991  0.61776  Biso   1.000  As
  As36     1.0000 0.64498  0.39991  0.61776  Biso   1.000  As
  As37     1.0000 0.14498  0.10009  0.11776  Biso   1.000  As
  As38     1.0000 0.64498  0.60009  0.11776  Biso   1.000  As
  As39     1.0000 0.85502  0.10009  0.38224  Biso   1.000  As
  As40     1.0000 0.35502  0.60009  0.38224  Biso   1.000  As
  As41     1.0000 0.89880  0.03253  0.97130  Biso   1.000  As
  As42     1.0000 0.39880  0.53253  0.97130  Biso   1.000  As
  As43     1.0000 0.10120  0.03253  0.52870  Biso   1.000  As
  As44     1.0000 0.60120  0.53253  0.52870  Biso   1.000  As
  As45     1.0000 0.10120  0.96747  0.02870  Biso   1.000  As
  As46     1.0000 0.60120  0.46747  0.02870  Biso   1.000  As
  As47     1.0000 0.89880  0.96747  0.47130  Biso   1.000  As
  As48     1.0000 0.39880  0.46747  0.47130  Biso   1.000  As
  As49     1.0000 0.79298  0.22358  0.75521  Biso   1.000  As
  As50     1.0000 0.29298  0.72358  0.75521  Biso   1.000  As
  As51     1.0000 0.20702  0.22358  0.74479  Biso   1.000  As
  As52     1.0000 0.70702  0.72358  0.74479  Biso   1.000  As
  As53     1.0000 0.20702  0.77642  0.24479  Biso   1.000  As
  As54     1.0000 0.70702  0.27642  0.24479  Biso   1.000  As
  As55     1.0000 0.79298  0.77642  0.25521  Biso   1.000  As
  As56     1.0000 0.29298  0.27642  0.25521  Biso   1.000  As
  As57     1.0000 0.83615  0.35672  0.84232  Biso   1.000  As
  As58     1.0000 0.33615  0.85672  0.84232  Biso   1.000  As
  As59     1.0000 0.16385  0.35672  0.65768  Biso   1.000  As
  As60     1.0000 0.66385  0.85672  0.65768  Biso   1.000  As
  As61     1.0000 0.16385  0.64328  0.15768  Biso   1.000  As
  As62     1.0000 0.66385  0.14328  0.15768  Biso   1.000  As
  As63     1.0000 0.83615  0.64328  0.34232  Biso   1.000  As
  As64     1.0000 0.33615  0.14328  0.34232  Biso   1.000  As
  V1       1.0000 0.92611  0.29487  0.86226  Biso   1.000  V
  V2       1.0000 0.42611  0.79487  0.86226  Biso   1.000  V
  V3       1.0000 0.07389  0.29487  0.63774  Biso   1.000  V
  V4       1.0000 0.57389  0.79487  0.63774  Biso   1.000  V
  V5       1.0000 0.07389  0.70513  0.13774  Biso   1.000  V
  V6       1.0000 0.57389  0.20513  0.13774  Biso   1.000  V
  V7       1.0000 0.92611  0.70513  0.36226  Biso   1.000  V
  V8       1.0000 0.42611  0.20513  0.36226  Biso   1.000  V
  V9       1.0000 0.93794  0.09469  0.89428  Biso   1.000  V
  V10      1.0000 0.43794  0.59469  0.89428  Biso   1.000  V
  V11      1.0000 0.06206  0.09469  0.60572  Biso   1.000  V
  V12      1.0000 0.56206  0.59469  0.60572  Biso   1.000  V
  V13      1.0000 0.06206  0.90531  0.10572  Biso   1.000  V
  V14      1.0000 0.56206  0.40531  0.10572  Biso   1.000  V
  V15      1.0000 0.93794  0.90531  0.39428  Biso   1.000  V
  V16      1.0000 0.43794  0.40531  0.39428  Biso   1.000  V
  V17      1.0000 0.91224  0.91210  0.85194  Biso   1.000  V
  V18      1.0000 0.41224  0.41210  0.85194  Biso   1.000  V
  V19      1.0000 0.08776  0.91210  0.64806  Biso   1.000  V
  V20      1.0000 0.58776  0.41210  0.64806  Biso   1.000  V
  V21      1.0000 0.08776  0.08790  0.14806  Biso   1.000  V
  V22      1.0000 0.58776  0.58790  0.14806  Biso   1.000  V
  V23      1.0000 0.91224  0.08790  0.35194  Biso   1.000  V
  V24      1.0000 0.41224  0.58790  0.35194  Biso   1.000  V
  V25      1.0000 0.86346  0.86351  0.74528  Biso   1.000  V
  V26      1.0000 0.36346  0.36351  0.74528  Biso   1.000  V
  V27      1.0000 0.13654  0.86351  0.75472  Biso   1.000  V
  V28      1.0000 0.63654  0.36351  0.75472  Biso   1.000  V
  V29      1.0000 0.13654  0.13649  0.25472  Biso   1.000  V
  V30      1.0000 0.63654  0.63649  0.25472  Biso   1.000  V
  V31      1.0000 0.86346  0.13649  0.24528  Biso   1.000  V
  V32      1.0000 0.36346  0.63649  0.24528  Biso   1.000  V
  V33      1.0000 0.81869  0.95970  0.64771  Biso   1.000  V
  V34      1.0000 0.31869  0.45970  0.64771  Biso   1.000  V
  V35      1.0000 0.18131  0.95970  0.85229  Biso   1.000  V
  V36      1.0000 0.68131  0.45970  0.85229  Biso   1.000  V
  V37      1.0000 0.18131  0.04030  0.35229  Biso   1.000  V
  V38      1.0000 0.68131  0.54030  0.35229  Biso   1.000  V
  V39      1.0000 0.81869  0.04030  0.14771  Biso   1.000  V
  V40      1.0000 0.31869  0.54030  0.14771  Biso   1.000  V
  V41      1.0000 0.80559  0.16180  0.62636  Biso   1.000  V
  V42      1.0000 0.30559  0.66180  0.62636  Biso   1.000  V
  V43      1.0000 0.19441  0.16180  0.87364  Biso   1.000  V
  V44      1.0000 0.69441  0.66180  0.87364  Biso   1.000  V
  V45      1.0000 0.19441  0.83820  0.37364  Biso   1.000  V
  V46      1.0000 0.69441  0.33820  0.37364  Biso   1.000  V
  V47      1.0000 0.80559  0.83820  0.12636  Biso   1.000  V
  V48      1.0000 0.30559  0.33820  0.12636  Biso   1.000  V
  V49      1.0000 0.82841  0.34380  0.68020  Biso   1.000  V
  V50      1.0000 0.32841  0.84380  0.68020  Biso   1.000  V
  V51      1.0000 0.17159  0.34380  0.81980  Biso   1.000  V
  V52      1.0000 0.67159  0.84380  0.81980  Biso   1.000  V
  V53      1.0000 0.17159  0.65620  0.31980  Biso   1.000  V
  V54      1.0000 0.67159  0.15620  0.31980  Biso   1.000  V
  V55      1.0000 0.82841  0.65620  0.18020  Biso   1.000  V
  V56      1.0000 0.32841  0.15620  0.18020  Biso   1.000  V
  V57      1.0000 0.87965  0.39392  0.77514  Biso   1.000  V
  V58      1.0000 0.37965  0.89392  0.77514  Biso   1.000  V
  V59      1.0000 0.12035  0.39392  0.72486  Biso   1.000  V
  V60      1.0000 0.62035  0.89392  0.72486  Biso   1.000  V
  V61      1.0000 0.12035  0.60608  0.22486  Biso   1.000  V
  V62      1.0000 0.62035  0.10608  0.22486  Biso   1.000  V
  V63      1.0000 0.87965  0.60608  0.27514  Biso   1.000  V
  V64      1.0000 0.37965  0.10608  0.27514  Biso   1.000  V
  V65      1.0000 0.86123  0.28270  0.61613  Biso   1.000  V
  V66      1.0000 0.36123  0.78270  0.61613  Biso   1.000  V
  V67      1.0000 0.13877  0.28270  0.88387  Biso   1.000  V
  V68      1.0000 0.63877  0.78270  0.88387  Biso   1.000  V
  V69      1.0000 0.13877  0.71730  0.38387  Biso   1.000  V
  V70      1.0000 0.63877  0.21730  0.38387  Biso   1.000  V
  V71      1.0000 0.86123  0.71730  0.11613  Biso   1.000  V
  V72      1.0000 0.36123  0.21730  0.11613  Biso   1.000  V
  V73      1.0000 0.90219  0.12650  0.63671  Biso   1.000  V
  V74      1.0000 0.40219  0.62650  0.63671  Biso   1.000  V
  V75      1.0000 0.09781  0.12650  0.86329  Biso   1.000  V
  V76      1.0000 0.59781  0.62650  0.86329  Biso   1.000  V
  V77      1.0000 0.09781  0.87350  0.36329  Biso   1.000  V
  V78      1.0000 0.59781  0.37350  0.36329  Biso   1.000  V
  V79      1.0000 0.90219  0.87350  0.13671  Biso   1.000  V
  V80      1.0000 0.40219  0.37350  0.13671  Biso   1.000  V
  V81      1.0000 0.92260  0.97190  0.74096  Biso   1.000  V
  V82      1.0000 0.42260  0.47190  0.74096  Biso   1.000  V
  V83      1.0000 0.07740  0.97190  0.75904  Biso   1.000  V
  V84      1.0000 0.57740  0.47190  0.75904  Biso   1.000  V
  V85      1.0000 0.07740  0.02810  0.25904  Biso   1.000  V
  V86      1.0000 0.57740  0.52810  0.25904  Biso   1.000  V
  V87      1.0000 0.92260  0.02810  0.24096  Biso   1.000  V
  V88      1.0000 0.42260  0.52810  0.24096  Biso   1.000  V
  V89      1.0000 0.88991  0.24720  0.91947  Biso   1.000  V
  V90      1.0000 0.38991  0.74720  0.91947  Biso   1.000  V
  V91      1.0000 0.11009  0.24720  0.58053  Biso   1.000  V
  V92      1.0000 0.61009  0.74720  0.58053  Biso   1.000  V
  V93      1.0000 0.11009  0.75280  0.08053  Biso   1.000  V
  V94      1.0000 0.61009  0.25280  0.08053  Biso   1.000  V
  V95      1.0000 0.88991  0.75280  0.41947  Biso   1.000  V
  V96      1.0000 0.38991  0.25280  0.41947  Biso   1.000  V
  V97      1.0000 0.84114  0.12974  0.88258  Biso   1.000  V
  V98      1.0000 0.34114  0.62974  0.88258  Biso   1.000  V
  V99      1.0000 0.15886  0.12974  0.61742  Biso   1.000  V
  V100     1.0000 0.65886  0.62974  0.61742  Biso   1.000  V
  V101     1.0000 0.15886  0.87026  0.11742  Biso   1.000  V
  V102     1.0000 0.65886  0.37026  0.11742  Biso   1.000  V
  V103     1.0000 0.84114  0.87026  0.38258  Biso   1.000  V
  V104     1.0000 0.34114  0.37026  0.38258  Biso   1.000  V
  V105     1.0000 0.81144  0.00890  0.76206  Biso   1.000  V
  V106     1.0000 0.31144  0.50890  0.76206  Biso   1.000  V
  V107     1.0000 0.18856  0.00890  0.73794  Biso   1.000  V
  V108     1.0000 0.68856  0.50890  0.73794  Biso   1.000  V
  V109     1.0000 0.18856  0.99110  0.23794  Biso   1.000  V
  V110     1.0000 0.68856  0.49110  0.23794  Biso   1.000  V
  V111     1.0000 0.81144  0.99110  0.26206  Biso   1.000  V
  V112     1.0000 0.31144  0.49110  0.26206  Biso   1.000  V
  Cu1      1.0000 0.80112  0.83190  0.49815  Biso   1.000  Cu
  Cu2      1.0000 0.30112  0.33190  0.49815  Biso   1.000  Cu
  Cu3      1.0000 0.19888  0.83190  0.00185  Biso   1.000  Cu
  Cu4      1.0000 0.69888  0.33190  0.00185  Biso   1.000  Cu
  Cu5      1.0000 0.19888  0.16810  0.50185  Biso   1.000  Cu
  Cu6      1.0000 0.69888  0.66810  0.50185  Biso   1.000  Cu
  Cu7      1.0000 0.80112  0.16810  0.99815  Biso   1.000  Cu
  Cu8      1.0000 0.30112  0.66810  0.99815  Biso   1.000  Cu
  Cu9      1.0000 0.97815  0.41010  0.85416  Biso   1.000  Cu
  Cu10     1.0000 0.47815  0.91010  0.85416  Biso   1.000  Cu
  Cu11     1.0000 0.02185  0.41010  0.64584  Biso   1.000  Cu
  Cu12     1.0000 0.52185  0.91010  0.64584  Biso   1.000  Cu
  Cu13     1.0000 0.02185  0.58990  0.14584  Biso   1.000  Cu
  Cu14     1.0000 0.52185  0.08990  0.14584  Biso   1.000  Cu
  Cu15     1.0000 0.97815  0.58990  0.35416  Biso   1.000  Cu
  Cu16     1.0000 0.47815  0.08990  0.35416  Biso   1.000  Cu
  Cu17     1.0000 0.95237  0.40000  0.02339  Biso   1.000  Cu
  Cu18     1.0000 0.45237  0.90000  0.02339  Biso   1.000  Cu
  Cu19     1.0000 0.04763  0.40000  0.47661  Biso   1.000  Cu
  Cu20     1.0000 0.54763  0.90000  0.47661  Biso   1.000  Cu
  Cu21     1.0000 0.04763  0.60000  0.97661  Biso   1.000  Cu
  Cu22     1.0000 0.54763  0.10000  0.97661  Biso   1.000  Cu
  Cu23     1.0000 0.95237  0.60000  0.52339  Biso   1.000  Cu
  Cu24     1.0000 0.45237  0.10000  0.52339  Biso   1.000  Cu
  Cu25     1.0000 0.75498  0.84590  0.65488  Biso   1.000  Cu
  Cu26     1.0000 0.25498  0.34590  0.65488  Biso   1.000  Cu
  Cu27     1.0000 0.24502  0.84590  0.84512  Biso   1.000  Cu
  Cu28     1.0000 0.74502  0.34590  0.84512  Biso   1.000  Cu
  Cu29     1.0000 0.24502  0.15410  0.34512  Biso   1.000  Cu
  Cu30     1.0000 0.74502  0.65410  0.34512  Biso   1.000  Cu
  Cu31     1.0000 0.75498  0.15410  0.15488  Biso   1.000  Cu
  Cu32     1.0000 0.25498  0.65410  0.15488  Biso   1.000  Cu
  O1       1.0000 0.80417  0.05800  0.68010  Biso   1.000  O
  O2       1.0000 0.30417  0.55800  0.68010  Biso   1.000  O
  O3       1.0000 0.19583  0.05800  0.81990  Biso   1.000  O
  O4       1.0000 0.69583  0.55800  0.81990  Biso   1.000  O
  O5       1.0000 0.19583  0.94200  0.31990  Biso   1.000  O
  O6       1.0000 0.69583  0.44200  0.31990  Biso   1.000  O
  O7       1.0000 0.80417  0.94200  0.18010  Biso   1.000  O
  O8       1.0000 0.30417  0.44200  0.18010  Biso   1.000  O
  O9       1.0000 0.94739  0.27200  0.73030  Biso   1.000  O
  O10      1.0000 0.44739  0.77200  0.73030  Biso   1.000  O
  O11      1.0000 0.05261  0.27200  0.76970  Biso   1.000  O
  O12      1.0000 0.55261  0.77200  0.76970  Biso   1.000  O
  O13      1.0000 0.05261  0.72800  0.26970  Biso   1.000  O
  O14      1.0000 0.55261  0.22800  0.26970  Biso   1.000  O
  O15      1.0000 0.94739  0.72800  0.23030  Biso   1.000  O
  O16      1.0000 0.44739  0.22800  0.23030  Biso   1.000  O
  O17      1.0000 0.78690  0.96320  0.76610  Biso   1.000  O
  O18      1.0000 0.28690  0.46320  0.76610  Biso   1.000  O
  O19      1.0000 0.21310  0.96320  0.73390  Biso   1.000  O
  O20      1.0000 0.71310  0.46320  0.73390  Biso   1.000  O
  O21      1.0000 0.21310  0.03680  0.23390  Biso   1.000  O
  O22      1.0000 0.71310  0.53680  0.23390  Biso   1.000  O
  O23      1.0000 0.78690  0.03680  0.26610  Biso   1.000  O
  O24      1.0000 0.28690  0.53680  0.26610  Biso   1.000  O
  O25      1.0000 0.94812  0.36150  0.90330  Biso   1.000  O
  O26      1.0000 0.44812  0.86150  0.90330  Biso   1.000  O
  O27      1.0000 0.05188  0.36150  0.59670  Biso   1.000  O
  O28      1.0000 0.55188  0.86150  0.59670  Biso   1.000  O
  O29      1.0000 0.05188  0.63850  0.09670  Biso   1.000  O
  O30      1.0000 0.55188  0.13850  0.09670  Biso   1.000  O
  O31      1.0000 0.94812  0.63850  0.40330  Biso   1.000  O
  O32      1.0000 0.44812  0.13850  0.40330  Biso   1.000  O
  O33      1.0000 0.91221  0.34340  0.77420  Biso   1.000  O
  O34      1.0000 0.41221  0.84340  0.77420  Biso   1.000  O
  O35      1.0000 0.08779  0.34340  0.72580  Biso   1.000  O
  O36      1.0000 0.58779  0.84340  0.72580  Biso   1.000  O
  O37      1.0000 0.08779  0.65660  0.22580  Biso   1.000  O
  O38      1.0000 0.58779  0.15660  0.22580  Biso   1.000  O
  O39      1.0000 0.91221  0.65660  0.27420  Biso   1.000  O
  O40      1.0000 0.41221  0.15660  0.27420  Biso   1.000  O
  O41      1.0000 0.89857  0.25610  0.66020  Biso   1.000  O
  O42      1.0000 0.39857  0.75610  0.66020  Biso   1.000  O
  O43      1.0000 0.10143  0.25610  0.83980  Biso   1.000  O
  O44      1.0000 0.60143  0.75610  0.83980  Biso   1.000  O
  O45      1.0000 0.10143  0.74390  0.33980  Biso   1.000  O
  O46      1.0000 0.60143  0.24390  0.33980  Biso   1.000  O
  O47      1.0000 0.89857  0.74390  0.16020  Biso   1.000  O
  O48      1.0000 0.39857  0.24390  0.16020  Biso   1.000  O
  O49      1.0000 0.87710  0.94280  0.95400  Biso   1.000  O
  O50      1.0000 0.37710  0.44280  0.95400  Biso   1.000  O
  O51      1.0000 0.12290  0.94280  0.54600  Biso   1.000  O
  O52      1.0000 0.62290  0.44280  0.54600  Biso   1.000  O
  O53      1.0000 0.12290  0.05720  0.04600  Biso   1.000  O
  O54      1.0000 0.62290  0.55720  0.04600  Biso   1.000  O
  O55      1.0000 0.87710  0.05720  0.45400  Biso   1.000  O
  O56      1.0000 0.37710  0.55720  0.45400  Biso   1.000  O
  O57      1.0000 0.85820  0.34200  0.55560  Biso   1.000  O
  O58      1.0000 0.35820  0.84200  0.55560  Biso   1.000  O
  O59      1.0000 0.14180  0.34200  0.94440  Biso   1.000  O
  O60      1.0000 0.64180  0.84200  0.94440  Biso   1.000  O
  O61      1.0000 0.14180  0.65800  0.44440  Biso   1.000  O
  O62      1.0000 0.64180  0.15800  0.44440  Biso   1.000  O
  O63      1.0000 0.85820  0.65800  0.05560  Biso   1.000  O
  O64      1.0000 0.35820  0.15800  0.05560  Biso   1.000  O
  O65      1.0000 0.87780  0.12140  0.92580  Biso   1.000  O
  O66      1.0000 0.37780  0.62140  0.92580  Biso   1.000  O
  O67      1.0000 0.12220  0.12140  0.57420  Biso   1.000  O
  O68      1.0000 0.62220  0.62140  0.57420  Biso   1.000  O
  O69      1.0000 0.12220  0.87860  0.07420  Biso   1.000  O
  O70      1.0000 0.62220  0.37860  0.07420  Biso   1.000  O
  O71      1.0000 0.87780  0.87860  0.42580  Biso   1.000  O
  O72      1.0000 0.37780  0.37860  0.42580  Biso   1.000  O
  O73      1.0000 0.83140  0.91760  0.73670  Biso   1.000  O
  O74      1.0000 0.33140  0.41760  0.73670  Biso   1.000  O
  O75      1.0000 0.16860  0.91760  0.76330  Biso   1.000  O
  O76      1.0000 0.66860  0.41760  0.76330  Biso   1.000  O
  O77      1.0000 0.16860  0.08240  0.26330  Biso   1.000  O
  O78      1.0000 0.66860  0.58240  0.26330  Biso   1.000  O
  O79      1.0000 0.83140  0.08240  0.23670  Biso   1.000  O
  O80      1.0000 0.33140  0.58240  0.23670  Biso   1.000  O
  O81      1.0000 0.82346  0.06500  0.59580  Biso   1.000  O
  O82      1.0000 0.32346  0.56500  0.59580  Biso   1.000  O
  O83      1.0000 0.17654  0.06500  0.90420  Biso   1.000  O
  O84      1.0000 0.67654  0.56500  0.90420  Biso   1.000  O
  O85      1.0000 0.17654  0.93500  0.40420  Biso   1.000  O
  O86      1.0000 0.67654  0.43500  0.40420  Biso   1.000  O
  O87      1.0000 0.82346  0.93500  0.09580  Biso   1.000  O
  O88      1.0000 0.32346  0.43500  0.09580  Biso   1.000  O
  O89      1.0000 0.91499  0.00810  0.91920  Biso   1.000  O
  O90      1.0000 0.41499  0.50810  0.91920  Biso   1.000  O
  O91      1.0000 0.08501  0.00810  0.58080  Biso   1.000  O
  O92      1.0000 0.58501  0.50810  0.58080  Biso   1.000  O
  O93      1.0000 0.08501  0.99190  0.08080  Biso   1.000  O
  O94      1.0000 0.58501  0.49190  0.08080  Biso   1.000  O
  O95      1.0000 0.91499  0.99190  0.41920  Biso   1.000  O
  O96      1.0000 0.41499  0.49190  0.41920  Biso   1.000  O
  O97      1.0000 0.89367  0.33750  0.85940  Biso   1.000  O
  O98      1.0000 0.39367  0.83750  0.85940  Biso   1.000  O
  O99      1.0000 0.10633  0.33750  0.64060  Biso   1.000  O
  O100     1.0000 0.60633  0.83750  0.64060  Biso   1.000  O
  O101     1.0000 0.10633  0.66250  0.14060  Biso   1.000  O
  O102     1.0000 0.60633  0.16250  0.14060  Biso   1.000  O
  O103     1.0000 0.89367  0.66250  0.35940  Biso   1.000  O
  O104     1.0000 0.39367  0.16250  0.35940  Biso   1.000  O
  O105     1.0000 0.86378  0.36150  0.68650  Biso   1.000  O
  O106     1.0000 0.36378  0.86150  0.68650  Biso   1.000  O
  O107     1.0000 0.13622  0.36150  0.81350  Biso   1.000  O
  O108     1.0000 0.63622  0.86150  0.81350  Biso   1.000  O
  O109     1.0000 0.13622  0.63850  0.31350  Biso   1.000  O
  O110     1.0000 0.63622  0.13850  0.31350  Biso   1.000  O
  O111     1.0000 0.86378  0.63850  0.18650  Biso   1.000  O
  O112     1.0000 0.36378  0.13850  0.18650  Biso   1.000  O
  O113     1.0000 0.93314  0.00400  0.82990  Biso   1.000  O
  O114     1.0000 0.43314  0.50400  0.82990  Biso   1.000  O
  O115     1.0000 0.06686  0.00400  0.67010  Biso   1.000  O
  O116     1.0000 0.56686  0.50400  0.67010  Biso   1.000  O
  O117     1.0000 0.06686  0.99600  0.17010  Biso   1.000  O
  O118     1.0000 0.56686  0.49600  0.17010  Biso   1.000  O
  O119     1.0000 0.93314  0.99600  0.32990  Biso   1.000  O
  O120     1.0000 0.43314  0.49600  0.32990  Biso   1.000  O
  O121     1.0000 0.87660  0.89330  0.83730  Biso   1.000  O
  O122     1.0000 0.37660  0.39330  0.83730  Biso   1.000  O
  O123     1.0000 0.12340  0.89330  0.66270  Biso   1.000  O
  O124     1.0000 0.62340  0.39330  0.66270  Biso   1.000  O
  O125     1.0000 0.12340  0.10670  0.16270  Biso   1.000  O
  O126     1.0000 0.62340  0.60670  0.16270  Biso   1.000  O
  O127     1.0000 0.87660  0.10670  0.33730  Biso   1.000  O
  O128     1.0000 0.37660  0.60670  0.33730  Biso   1.000  O
  O129     1.0000 0.84485  0.36690  0.77200  Biso   1.000  O
  O130     1.0000 0.34485  0.86690  0.77200  Biso   1.000  O
  O131     1.0000 0.15515  0.36690  0.72800  Biso   1.000  O
  O132     1.0000 0.65515  0.86690  0.72800  Biso   1.000  O
  O133     1.0000 0.15515  0.63310  0.22800  Biso   1.000  O
  O134     1.0000 0.65515  0.13310  0.22800  Biso   1.000  O
  O135     1.0000 0.84485  0.63310  0.27200  Biso   1.000  O
  O136     1.0000 0.34485  0.13310  0.27200  Biso   1.000  O
  O137     1.0000 0.89828  0.89730  0.76000  Biso   1.000  O
  O138     1.0000 0.39828  0.39730  0.76000  Biso   1.000  O
  O139     1.0000 0.10172  0.89730  0.74000  Biso   1.000  O
  O140     1.0000 0.60172  0.39730  0.74000  Biso   1.000  O
  O141     1.0000 0.10172  0.10270  0.24000  Biso   1.000  O
  O142     1.0000 0.60172  0.60270  0.24000  Biso   1.000  O
  O143     1.0000 0.89828  0.10270  0.26000  Biso   1.000  O
  O144     1.0000 0.39828  0.60270  0.26000  Biso   1.000  O
  O145     1.0000 0.82920  0.25030  0.61710  Biso   1.000  O
  O146     1.0000 0.32920  0.75030  0.61710  Biso   1.000  O
  O147     1.0000 0.17080  0.25030  0.88290  Biso   1.000  O
  O148     1.0000 0.67080  0.75030  0.88290  Biso   1.000  O
  O149     1.0000 0.17080  0.74970  0.38290  Biso   1.000  O
  O150     1.0000 0.67080  0.24970  0.38290  Biso   1.000  O
  O151     1.0000 0.82920  0.74970  0.11710  Biso   1.000  O
  O152     1.0000 0.32920  0.24970  0.11710  Biso   1.000  O
  O153     1.0000 0.92850  0.82630  0.88650  Biso   1.000  O
  O154     1.0000 0.42850  0.32630  0.88650  Biso   1.000  O
  O155     1.0000 0.07150  0.82630  0.61350  Biso   1.000  O
  O156     1.0000 0.57150  0.32630  0.61350  Biso   1.000  O
  O157     1.0000 0.07150  0.17370  0.11350  Biso   1.000  O
  O158     1.0000 0.57150  0.67370  0.11350  Biso   1.000  O
  O159     1.0000 0.92850  0.17370  0.38650  Biso   1.000  O
  O160     1.0000 0.42850  0.67370  0.38650  Biso   1.000  O
  O161     1.0000 0.88340  0.50250  0.78320  Biso   1.000  O
  O162     1.0000 0.38340  0.00250  0.78320  Biso   1.000  O
  O163     1.0000 0.11660  0.50250  0.71680  Biso   1.000  O
  O164     1.0000 0.61660  0.00250  0.71680  Biso   1.000  O
  O165     1.0000 0.11660  0.49750  0.21680  Biso   1.000  O
  O166     1.0000 0.61660  0.99750  0.21680  Biso   1.000  O
  O167     1.0000 0.88340  0.49750  0.28320  Biso   1.000  O
  O168     1.0000 0.38340  0.99750  0.28320  Biso   1.000  O
  O169     1.0000 0.81100  0.42700  0.64600  Biso   1.000  O
  O170     1.0000 0.31100  0.92700  0.64600  Biso   1.000  O
  O171     1.0000 0.18900  0.42700  0.85400  Biso   1.000  O
  O172     1.0000 0.68900  0.92700  0.85400  Biso   1.000  O
  O173     1.0000 0.18900  0.57300  0.35400  Biso   1.000  O
  O174     1.0000 0.68900  0.07300  0.35400  Biso   1.000  O
  O175     1.0000 0.81100  0.57300  0.14600  Biso   1.000  O
  O176     1.0000 0.31100  0.07300  0.14600  Biso   1.000  O
  O177     1.0000 0.89630  0.29110  0.98750  Biso   1.000  O
  O178     1.0000 0.39630  0.79110  0.98750  Biso   1.000  O
  O179     1.0000 0.10370  0.29110  0.51250  Biso   1.000  O
  O180     1.0000 0.60370  0.79110  0.51250  Biso   1.000  O
  O181     1.0000 0.10370  0.70890  0.01250  Biso   1.000  O
  O182     1.0000 0.60370  0.20890  0.01250  Biso   1.000  O
  O183     1.0000 0.89630  0.70890  0.48750  Biso   1.000  O
  O184     1.0000 0.39630  0.20890  0.48750  Biso   1.000  O
  O185     1.0000 0.80490  0.31120  0.80640  Biso   1.000  O
  O186     1.0000 0.30490  0.81120  0.80640  Biso   1.000  O
  O187     1.0000 0.19510  0.31120  0.69360  Biso   1.000  O
  O188     1.0000 0.69510  0.81120  0.69360  Biso   1.000  O
  O189     1.0000 0.19510  0.68880  0.19360  Biso   1.000  O
  O190     1.0000 0.69510  0.18880  0.19360  Biso   1.000  O
  O191     1.0000 0.80490  0.68880  0.30640  Biso   1.000  O
  O192     1.0000 0.30490  0.18880  0.30640  Biso   1.000  O
  O193     1.0000 0.86030  0.75340  0.74140  Biso   1.000  O
  O194     1.0000 0.36030  0.25340  0.74140  Biso   1.000  O
  O195     1.0000 0.13970  0.75340  0.75860  Biso   1.000  O
  O196     1.0000 0.63970  0.25340  0.75860  Biso   1.000  O
  O197     1.0000 0.13970  0.24660  0.25860  Biso   1.000  O
  O198     1.0000 0.63970  0.74660  0.25860  Biso   1.000  O
  O199     1.0000 0.86030  0.24660  0.24140  Biso   1.000  O
  O200     1.0000 0.36030  0.74660  0.24140  Biso   1.000  O
  O201     1.0000 0.79680  0.89380  0.60790  Biso   1.000  O
  O202     1.0000 0.29680  0.39380  0.60790  Biso   1.000  O
  O203     1.0000 0.20320  0.89380  0.89210  Biso   1.000  O
  O204     1.0000 0.70320  0.39380  0.89210  Biso   1.000  O
  O205     1.0000 0.20320  0.10620  0.39210  Biso   1.000  O
  O206     1.0000 0.70320  0.60620  0.39210  Biso   1.000  O
  O207     1.0000 0.79680  0.10620  0.10790  Biso   1.000  O
  O208     1.0000 0.29680  0.60620  0.10790  Biso   1.000  O
  O209     1.0000 0.85370  0.25850  0.87430  Biso   1.000  O
  O210     1.0000 0.35370  0.75850  0.87430  Biso   1.000  O
  O211     1.0000 0.14630  0.25850  0.62570  Biso   1.000  O
  O212     1.0000 0.64630  0.75850  0.62570  Biso   1.000  O
  O213     1.0000 0.14630  0.74150  0.12570  Biso   1.000  O
  O214     1.0000 0.64630  0.24150  0.12570  Biso   1.000  O
  O215     1.0000 0.85370  0.74150  0.37430  Biso   1.000  O
  O216     1.0000 0.35370  0.24150  0.37430  Biso   1.000  O
  O217     1.0000 0.83850  0.99540  0.84730  Biso   1.000  O
  O218     1.0000 0.33850  0.49540  0.84730  Biso   1.000  O
  O219     1.0000 0.16150  0.99540  0.65270  Biso   1.000  O
  O220     1.0000 0.66150  0.49540  0.65270  Biso   1.000  O
  O221     1.0000 0.16150  0.00460  0.15270  Biso   1.000  O
  O222     1.0000 0.66150  0.50460  0.15270  Biso   1.000  O
  O223     1.0000 0.83850  0.00460  0.34730  Biso   1.000  O
  O224     1.0000 0.33850  0.50460  0.34730  Biso   1.000  O
  O225     1.0000 0.94114  0.19030  0.83310  Biso   1.000  O
  O226     1.0000 0.44114  0.69030  0.83310  Biso   1.000  O
  O227     1.0000 0.05886  0.19030  0.66690  Biso   1.000  O
  O228     1.0000 0.55886  0.69030  0.66690  Biso   1.000  O
  O229     1.0000 0.05886  0.80970  0.16690  Biso   1.000  O
  O230     1.0000 0.55886  0.30970  0.16690  Biso   1.000  O
  O231     1.0000 0.94114  0.80970  0.33310  Biso   1.000  O
  O232     1.0000 0.44114  0.30970  0.33310  Biso   1.000  O
  O233     1.0000 0.94330  0.90910  0.72850  Biso   1.000  O
  O234     1.0000 0.44330  0.40910  0.72850  Biso   1.000  O
  O235     1.0000 0.05670  0.90910  0.77150  Biso   1.000  O
  O236     1.0000 0.55670  0.40910  0.77150  Biso   1.000  O
  O237     1.0000 0.05670  0.09090  0.27150  Biso   1.000  O
  O238     1.0000 0.55670  0.59090  0.27150  Biso   1.000  O
  O239     1.0000 0.94330  0.09090  0.22850  Biso   1.000  O
  O240     1.0000 0.44330  0.59090  0.22850  Biso   1.000  O
  O241     1.0000 0.77907  0.17470  0.57290  Biso   1.000  O
  O242     1.0000 0.27907  0.67470  0.57290  Biso   1.000  O
  O243     1.0000 0.22093  0.17470  0.92710  Biso   1.000  O
  O244     1.0000 0.72093  0.67470  0.92710  Biso   1.000  O
  O245     1.0000 0.22093  0.82530  0.42710  Biso   1.000  O
  O246     1.0000 0.72093  0.32530  0.42710  Biso   1.000  O
  O247     1.0000 0.77907  0.82530  0.07290  Biso   1.000  O
  O248     1.0000 0.27907  0.32530  0.07290  Biso   1.000  O
  O249     1.0000 0.96490  0.08350  0.94770  Biso   1.000  O
  O250     1.0000 0.46490  0.58350  0.94770  Biso   1.000  O
  O251     1.0000 0.03510  0.08350  0.55230  Biso   1.000  O
  O252     1.0000 0.53510  0.58350  0.55230  Biso   1.000  O
  O253     1.0000 0.03510  0.91650  0.05230  Biso   1.000  O
  O254     1.0000 0.53510  0.41650  0.05230  Biso   1.000  O
  O255     1.0000 0.96490  0.91650  0.44770  Biso   1.000  O
  O256     1.0000 0.46490  0.41650  0.44770  Biso   1.000  O
  O257     1.0000 0.80731  0.24740  0.69730  Biso   1.000  O
  O258     1.0000 0.30731  0.74740  0.69730  Biso   1.000  O
  O259     1.0000 0.19269  0.24740  0.80270  Biso   1.000  O
  O260     1.0000 0.69269  0.74740  0.80270  Biso   1.000  O
  O261     1.0000 0.19269  0.75260  0.30270  Biso   1.000  O
  O262     1.0000 0.69269  0.25260  0.30270  Biso   1.000  O
  O263     1.0000 0.80731  0.75260  0.19730  Biso   1.000  O
  O264     1.0000 0.30731  0.25260  0.19730  Biso   1.000  O
  O265     1.0000 0.85271  0.91280  0.65570  Biso   1.000  O
  O266     1.0000 0.35271  0.41280  0.65570  Biso   1.000  O
  O267     1.0000 0.14729  0.91280  0.84430  Biso   1.000  O
  O268     1.0000 0.64729  0.41280  0.84430  Biso   1.000  O
  O269     1.0000 0.14729  0.08720  0.34430  Biso   1.000  O
  O270     1.0000 0.64729  0.58720  0.34430  Biso   1.000  O
  O271     1.0000 0.85271  0.08720  0.15570  Biso   1.000  O
  O272     1.0000 0.35271  0.58720  0.15570  Biso   1.000  O
  O273     1.0000 0.86600  0.14930  0.59570  Biso   1.000  O
  O274     1.0000 0.36600  0.64930  0.59570  Biso   1.000  O
  O275     1.0000 0.13400  0.14930  0.90430  Biso   1.000  O
  O276     1.0000 0.63400  0.64930  0.90430  Biso   1.000  O
  O277     1.0000 0.13400  0.85070  0.40430  Biso   1.000  O
  O278     1.0000 0.63400  0.35070  0.40430  Biso   1.000  O
  O279     1.0000 0.86600  0.85070  0.09570  Biso   1.000  O
  O280     1.0000 0.36600  0.35070  0.09570  Biso   1.000  O
  O281     1.0000 0.85606  0.97770  0.54840  Biso   1.000  O
  O282     1.0000 0.35606  0.47770  0.54840  Biso   1.000  O
  O283     1.0000 0.14394  0.97770  0.95160  Biso   1.000  O
  O284     1.0000 0.64394  0.47770  0.95160  Biso   1.000  O
  O285     1.0000 0.14394  0.02230  0.45160  Biso   1.000  O
  O286     1.0000 0.64394  0.52230  0.45160  Biso   1.000  O
  O287     1.0000 0.85606  0.02230  0.04840  Biso   1.000  O
  O288     1.0000 0.35606  0.52230  0.04840  Biso   1.000  O
  O289     1.0000 0.91971  0.19980  0.91450  Biso   1.000  O
  O290     1.0000 0.41971  0.69980  0.91450  Biso   1.000  O
  O291     1.0000 0.08029  0.19980  0.58550  Biso   1.000  O
  O292     1.0000 0.58029  0.69980  0.58550  Biso   1.000  O
  O293     1.0000 0.08029  0.80020  0.08550  Biso   1.000  O
  O294     1.0000 0.58029  0.30020  0.08550  Biso   1.000  O
  O295     1.0000 0.91971  0.80020  0.41450  Biso   1.000  O
  O296     1.0000 0.41971  0.30020  0.41450  Biso   1.000  O
  O297     1.0000 0.89533  0.99480  0.65670  Biso   1.000  O
  O298     1.0000 0.39533  0.49480  0.65670  Biso   1.000  O
  O299     1.0000 0.10467  0.99480  0.84330  Biso   1.000  O
  O300     1.0000 0.60467  0.49480  0.84330  Biso   1.000  O
  O301     1.0000 0.10467  0.00520  0.34330  Biso   1.000  O
  O302     1.0000 0.60467  0.50520  0.34330  Biso   1.000  O
  O303     1.0000 0.89533  0.00520  0.15670  Biso   1.000  O
  O304     1.0000 0.39533  0.50520  0.15670  Biso   1.000  O
  O305     1.0000 0.92898  0.10290  0.72200  Biso   1.000  O
  O306     1.0000 0.42898  0.60290  0.72200  Biso   1.000  O
  O307     1.0000 0.07102  0.10290  0.77800  Biso   1.000  O
  O308     1.0000 0.57102  0.60290  0.77800  Biso   1.000  O
  O309     1.0000 0.07102  0.89710  0.27800  Biso   1.000  O
  O310     1.0000 0.57102  0.39710  0.27800  Biso   1.000  O
  O311     1.0000 0.92898  0.89710  0.22200  Biso   1.000  O
  O312     1.0000 0.42898  0.39710  0.22200  Biso   1.000  O
  O313     1.0000 0.91522  0.12460  0.58530  Biso   1.000  O
  O314     1.0000 0.41522  0.62460  0.58530  Biso   1.000  O
  O315     1.0000 0.08478  0.12460  0.91470  Biso   1.000  O
  O316     1.0000 0.58478  0.62460  0.91470  Biso   1.000  O
  O317     1.0000 0.08478  0.87540  0.41470  Biso   1.000  O
  O318     1.0000 0.58478  0.37540  0.41470  Biso   1.000  O
  O319     1.0000 0.91522  0.87540  0.08530  Biso   1.000  O
  O320     1.0000 0.41522  0.37540  0.08530  Biso   1.000  O
  O321     1.0000 0.82756  0.13440  0.93270  Biso   1.000  O
  O322     1.0000 0.32756  0.63440  0.93270  Biso   1.000  O
  O323     1.0000 0.17244  0.13440  0.56730  Biso   1.000  O
  O324     1.0000 0.67244  0.63440  0.56730  Biso   1.000  O
  O325     1.0000 0.17244  0.86560  0.06730  Biso   1.000  O
  O326     1.0000 0.67244  0.36560  0.06730  Biso   1.000  O
  O327     1.0000 0.82756  0.86560  0.43270  Biso   1.000  O
  O328     1.0000 0.32756  0.36560  0.43270  Biso   1.000  O
  O329     1.0000 0.81420  0.13510  0.79660  Biso   1.000  O
  O330     1.0000 0.31420  0.63510  0.79660  Biso   1.000  O
  O331     1.0000 0.18580  0.13510  0.70340  Biso   1.000  O
  O332     1.0000 0.68580  0.63510  0.70340  Biso   1.000  O
  O333     1.0000 0.18580  0.86490  0.20340  Biso   1.000  O
  O334     1.0000 0.68580  0.36490  0.20340  Biso   1.000  O
  O335     1.0000 0.81420  0.86490  0.29660  Biso   1.000  O
  O336     1.0000 0.31420  0.36490  0.29660  Biso   1.000  O
  N1       1.0000 0.72150  0.57810  0.54540  Biso   1.000  N
  N2       1.0000 0.22150  0.07810  0.54540  Biso   1.000  N
  N3       1.0000 0.27850  0.57810  0.95460  Biso   1.000  N
  N4       1.0000 0.77850  0.07810  0.95460  Biso   1.000  N
  N5       1.0000 0.27850  0.42190  0.45460  Biso   1.000  N
  N6       1.0000 0.77850  0.92190  0.45460  Biso   1.000  N
  N7       1.0000 0.72150  0.42190  0.04540  Biso   1.000  N
  N8       1.0000 0.22150  0.92190  0.04540  Biso   1.000  N
  C1       1.0000 0.74500  0.56370  0.53880  Biso   1.000  C
  C2       1.0000 0.24500  0.06370  0.53880  Biso   1.000  C
  C3       1.0000 0.25500  0.56370  0.96120  Biso   1.000  C
  C4       1.0000 0.75500  0.06370  0.96120  Biso   1.000  C
  C5       1.0000 0.25500  0.43630  0.46120  Biso   1.000  C
  C6       1.0000 0.75500  0.93630  0.46120  Biso   1.000  C
  C7       1.0000 0.74500  0.43630  0.03880  Biso   1.000  C
  C8       1.0000 0.24500  0.93630  0.03880  Biso   1.000  C
  H1       1.0000 0.75240  0.60120  0.51670  Biso   1.000  H
  H2       1.0000 0.25240  0.10120  0.51670  Biso   1.000  H
  H3       1.0000 0.24760  0.60120  0.98330  Biso   1.000  H
  H4       1.0000 0.74760  0.10120  0.98330  Biso   1.000  H
  H5       1.0000 0.24760  0.39880  0.48330  Biso   1.000  H
  H6       1.0000 0.74760  0.89880  0.48330  Biso   1.000  H
  H7       1.0000 0.75240  0.39880  0.01670  Biso   1.000  H
  H8       1.0000 0.25240  0.89880  0.01670  Biso   1.000  H
  C9       1.0000 0.75540  0.48280  0.57120  Biso   1.000  C
  C10      1.0000 0.25540  0.98280  0.57120  Biso   1.000  C
  C11      1.0000 0.24460  0.48280  0.92880  Biso   1.000  C
  C12      1.0000 0.74460  0.98280  0.92880  Biso   1.000  C
  C13      1.0000 0.24460  0.51720  0.42880  Biso   1.000  C
  C14      1.0000 0.74460  0.01720  0.42880  Biso   1.000  C
  C15      1.0000 0.75540  0.51720  0.07120  Biso   1.000  C
  C16      1.0000 0.25540  0.01720  0.07120  Biso   1.000  C
  H9       1.0000 0.77090  0.45730  0.57440  Biso   1.000  H
  H10      1.0000 0.27090  0.95730  0.57440  Biso   1.000  H
  H11      1.0000 0.22910  0.45730  0.92560  Biso   1.000  H
  H12      1.0000 0.72910  0.95730  0.92560  Biso   1.000  H
  H13      1.0000 0.22910  0.54270  0.42560  Biso   1.000  H
  H14      1.0000 0.72910  0.04270  0.42560  Biso   1.000  H
  H15      1.0000 0.77090  0.54270  0.07440  Biso   1.000  H
  H16      1.0000 0.27090  0.04270  0.07440  Biso   1.000  H
  N9       1.0000 0.73830  0.44720  0.59780  Biso   1.000  N
  N10      1.0000 0.23830  0.94720  0.59780  Biso   1.000  N
  N11      1.0000 0.26170  0.44720  0.90220  Biso   1.000  N
  N12      1.0000 0.76170  0.94720  0.90220  Biso   1.000  N
  N13      1.0000 0.26170  0.55280  0.40220  Biso   1.000  N
  N14      1.0000 0.76170  0.05280  0.40220  Biso   1.000  N
  N15      1.0000 0.73830  0.55280  0.09780  Biso   1.000  N
  N16      1.0000 0.23830  0.05280  0.09780  Biso   1.000  N
  C17      1.0000 0.71730  0.50610  0.58190  Biso   1.000  C
  C18      1.0000 0.21730  0.00610  0.58190  Biso   1.000  C
  C19      1.0000 0.28270  0.50610  0.91810  Biso   1.000  C
  C20      1.0000 0.78270  0.00610  0.91810  Biso   1.000  C
  C21      1.0000 0.28270  0.49390  0.41810  Biso   1.000  C
  C22      1.0000 0.78270  0.99390  0.41810  Biso   1.000  C
  C23      1.0000 0.71730  0.49390  0.08190  Biso   1.000  C
  C24      1.0000 0.21730  0.99390  0.08190  Biso   1.000  C
  H17      1.0000 0.70310  0.49870  0.59360  Biso   1.000  H
  H18      1.0000 0.20310  0.99870  0.59360  Biso   1.000  H
  H19      1.0000 0.29690  0.49870  0.90640  Biso   1.000  H
  H20      1.0000 0.79690  0.99870  0.90640  Biso   1.000  H
  H21      1.0000 0.29690  0.50130  0.40640  Biso   1.000  H
  H22      1.0000 0.79690  0.00130  0.40640  Biso   1.000  H
  H23      1.0000 0.70310  0.50130  0.09360  Biso   1.000  H
  H24      1.0000 0.20310  0.00130  0.09360  Biso   1.000  H
  N17      1.0000 0.71810  0.06870  0.55830  Biso   1.000  N
  N18      1.0000 0.21810  0.56870  0.55830  Biso   1.000  N
  N19      1.0000 0.28190  0.06870  0.94170  Biso   1.000  N
  N20      1.0000 0.78190  0.56870  0.94170  Biso   1.000  N
  N21      1.0000 0.28190  0.93130  0.44170  Biso   1.000  N
  N22      1.0000 0.78190  0.43130  0.44170  Biso   1.000  N
  N23      1.0000 0.71810  0.93130  0.05830  Biso   1.000  N
  N24      1.0000 0.21810  0.43130  0.05830  Biso   1.000  N
  C25      1.0000 0.73920  0.02710  0.59840  Biso   1.000  C
  C26      1.0000 0.23920  0.52710  0.59840  Biso   1.000  C
  C27      1.0000 0.26080  0.02710  0.90160  Biso   1.000  C
  C28      1.0000 0.76080  0.52710  0.90160  Biso   1.000  C
  C29      1.0000 0.26080  0.97290  0.40160  Biso   1.000  C
  C30      1.0000 0.76080  0.47290  0.40160  Biso   1.000  C
  C31      1.0000 0.73920  0.97290  0.09840  Biso   1.000  C
  C32      1.0000 0.23920  0.47290  0.09840  Biso   1.000  C
  H25      1.0000 0.75530  0.05300  0.61540  Biso   1.000  H
  H26      1.0000 0.25530  0.55300  0.61540  Biso   1.000  H
  H27      1.0000 0.24470  0.05300  0.88460  Biso   1.000  H
  H28      1.0000 0.74470  0.55300  0.88460  Biso   1.000  H
  H29      1.0000 0.24470  0.94700  0.38460  Biso   1.000  H
  H30      1.0000 0.74470  0.44700  0.38460  Biso   1.000  H
  H31      1.0000 0.75530  0.94700  0.11540  Biso   1.000  H
  H32      1.0000 0.25530  0.44700  0.11540  Biso   1.000  H
  N25      1.0000 0.73280  0.94100  0.60950  Biso   1.000  N
  N26      1.0000 0.23280  0.44100  0.60950  Biso   1.000  N
  N27      1.0000 0.26720  0.94100  0.89050  Biso   1.000  N
  N28      1.0000 0.76720  0.44100  0.89050  Biso   1.000  N
  N29      1.0000 0.26720  0.05900  0.39050  Biso   1.000  N
  N30      1.0000 0.76720  0.55900  0.39050  Biso   1.000  N
  N31      1.0000 0.73280  0.05900  0.10950  Biso   1.000  N
  N32      1.0000 0.23280  0.55900  0.10950  Biso   1.000  N
  C33      1.0000 0.70770  0.92940  0.57620  Biso   1.000  C
  C34      1.0000 0.20770  0.42940  0.57620  Biso   1.000  C
  C35      1.0000 0.29230  0.92940  0.92380  Biso   1.000  C
  C36      1.0000 0.79230  0.42940  0.92380  Biso   1.000  C
  C37      1.0000 0.29230  0.07060  0.42380  Biso   1.000  C
  C38      1.0000 0.79230  0.57060  0.42380  Biso   1.000  C
  C39      1.0000 0.70770  0.07060  0.07620  Biso   1.000  C
  C40      1.0000 0.20770  0.57060  0.07620  Biso   1.000  C
  H33      1.0000 0.69830  0.87660  0.57530  Biso   1.000  H
  H34      1.0000 0.19830  0.37660  0.57530  Biso   1.000  H
  H35      1.0000 0.30170  0.87660  0.92470  Biso   1.000  H
  H36      1.0000 0.80170  0.37660  0.92470  Biso   1.000  H
  H37      1.0000 0.30170  0.12340  0.42470  Biso   1.000  H
  H38      1.0000 0.80170  0.62340  0.42470  Biso   1.000  H
  H39      1.0000 0.69830  0.12340  0.07530  Biso   1.000  H
  H40      1.0000 0.19830  0.62340  0.07530  Biso   1.000  H
  C41      1.0000 0.69860  0.00840  0.54460  Biso   1.000  C
  C42      1.0000 0.19860  0.50840  0.54460  Biso   1.000  C
  C43      1.0000 0.30140  0.00840  0.95540  Biso   1.000  C
  C44      1.0000 0.80140  0.50840  0.95540  Biso   1.000  C
  C45      1.0000 0.30140  0.99160  0.45540  Biso   1.000  C
  C46      1.0000 0.80140  0.49160  0.45540  Biso   1.000  C
  C47      1.0000 0.69860  0.99160  0.04460  Biso   1.000  C
  C48      1.0000 0.19860  0.49160  0.04460  Biso   1.000  C
  H41      1.0000 0.68190  0.01920  0.51820  Biso   1.000  H
  H42      1.0000 0.18190  0.51920  0.51820  Biso   1.000  H
  H43      1.0000 0.31810  0.01920  0.98180  Biso   1.000  H
  H44      1.0000 0.81810  0.51920  0.98180  Biso   1.000  H
  H45      1.0000 0.31810  0.98080  0.48180  Biso   1.000  H
  H46      1.0000 0.81810  0.48080  0.48180  Biso   1.000  H
  H47      1.0000 0.68190  0.98080  0.01820  Biso   1.000  H
  H48      1.0000 0.18190  0.48080  0.01820  Biso   1.000  H
  N33      1.0000 0.82280  0.73030  0.54110  Biso   1.000  N
  N34      1.0000 0.32280  0.23030  0.54110  Biso   1.000  N
  N35      1.0000 0.17720  0.73030  0.95890  Biso   1.000  N
  N36      1.0000 0.67720  0.23030  0.95890  Biso   1.000  N
  N37      1.0000 0.17720  0.26970  0.45890  Biso   1.000  N
  N38      1.0000 0.67720  0.76970  0.45890  Biso   1.000  N
  N39      1.0000 0.82280  0.26970  0.04110  Biso   1.000  N
  N40      1.0000 0.32280  0.76970  0.04110  Biso   1.000  N
  C49      1.0000 0.81650  0.67450  0.58210  Biso   1.000  C
  C50      1.0000 0.31650  0.17450  0.58210  Biso   1.000  C
  C51      1.0000 0.18350  0.67450  0.91790  Biso   1.000  C
  C52      1.0000 0.68350  0.17450  0.91790  Biso   1.000  C
  C53      1.0000 0.18350  0.32550  0.41790  Biso   1.000  C
  C54      1.0000 0.68350  0.82550  0.41790  Biso   1.000  C
  C55      1.0000 0.81650  0.32550  0.08210  Biso   1.000  C
  C56      1.0000 0.31650  0.82550  0.08210  Biso   1.000  C
  H49      1.0000 0.80260  0.68140  0.59470  Biso   1.000  H
  H50      1.0000 0.30260  0.18140  0.59470  Biso   1.000  H
  H51      1.0000 0.19740  0.68140  0.90530  Biso   1.000  H
  H52      1.0000 0.69740  0.18140  0.90530  Biso   1.000  H
  H53      1.0000 0.19740  0.31860  0.40530  Biso   1.000  H
  H54      1.0000 0.69740  0.81860  0.40530  Biso   1.000  H
  H55      1.0000 0.80260  0.31860  0.09470  Biso   1.000  H
  H56      1.0000 0.30260  0.81860  0.09470  Biso   1.000  H
  C57      1.0000 0.83430  0.60680  0.60130  Biso   1.000  C
  C58      1.0000 0.33430  0.10680  0.60130  Biso   1.000  C
  C59      1.0000 0.16570  0.60680  0.89870  Biso   1.000  C
  C60      1.0000 0.66570  0.10680  0.89870  Biso   1.000  C
  C61      1.0000 0.16570  0.39320  0.39870  Biso   1.000  C
  C62      1.0000 0.66570  0.89320  0.39870  Biso   1.000  C
  C63      1.0000 0.83430  0.39320  0.10130  Biso   1.000  C
  C64      1.0000 0.33430  0.89320  0.10130  Biso   1.000  C
  H57      1.0000 0.83460  0.55950  0.62930  Biso   1.000  H
  H58      1.0000 0.33460  0.05950  0.62930  Biso   1.000  H
  H59      1.0000 0.16540  0.55950  0.87070  Biso   1.000  H
  H60      1.0000 0.66540  0.05950  0.87070  Biso   1.000  H
  H61      1.0000 0.16540  0.44050  0.37070  Biso   1.000  H
  H62      1.0000 0.66540  0.94050  0.37070  Biso   1.000  H
  H63      1.0000 0.83460  0.44050  0.12930  Biso   1.000  H
  H64      1.0000 0.33460  0.94050  0.12930  Biso   1.000  H
  N41      1.0000 0.85160  0.62080  0.57220  Biso   1.000  N
  N42      1.0000 0.35160  0.12080  0.57220  Biso   1.000  N
  N43      1.0000 0.14840  0.62080  0.92780  Biso   1.000  N
  N44      1.0000 0.64840  0.12080  0.92780  Biso   1.000  N
  N45      1.0000 0.14840  0.37920  0.42780  Biso   1.000  N
  N46      1.0000 0.64840  0.87920  0.42780  Biso   1.000  N
  N47      1.0000 0.85160  0.37920  0.07220  Biso   1.000  N
  N48      1.0000 0.35160  0.87920  0.07220  Biso   1.000  N
  C65      1.0000 0.84450  0.69710  0.53500  Biso   1.000  C
  C66      1.0000 0.34450  0.19710  0.53500  Biso   1.000  C
  C67      1.0000 0.15550  0.69710  0.96500  Biso   1.000  C
  C68      1.0000 0.65550  0.19710  0.96500  Biso   1.000  C
  C69      1.0000 0.15550  0.30290  0.46500  Biso   1.000  C
  C70      1.0000 0.65550  0.80290  0.46500  Biso   1.000  C
  C71      1.0000 0.84450  0.30290  0.03500  Biso   1.000  C
  C72      1.0000 0.34450  0.80290  0.03500  Biso   1.000  C
  H65      1.0000 0.85300  0.72210  0.50990  Biso   1.000  H
  H66      1.0000 0.35300  0.22210  0.50990  Biso   1.000  H
  H67      1.0000 0.14700  0.72210  0.99010  Biso   1.000  H
  H68      1.0000 0.64700  0.22210  0.99010  Biso   1.000  H
  H69      1.0000 0.14700  0.27790  0.49010  Biso   1.000  H
  H70      1.0000 0.64700  0.77790  0.49010  Biso   1.000  H
  H71      1.0000 0.85300  0.27790  0.00990  Biso   1.000  H
  H72      1.0000 0.35300  0.77790  0.00990  Biso   1.000  H
  N49      1.0000 0.93790  0.62860  0.76260  Biso   1.000  N
  N50      1.0000 0.43790  0.12860  0.76260  Biso   1.000  N
  N51      1.0000 0.06210  0.62860  0.73740  Biso   1.000  N
  N52      1.0000 0.56210  0.12860  0.73740  Biso   1.000  N
  N53      1.0000 0.06210  0.37140  0.23740  Biso   1.000  N
  N54      1.0000 0.56210  0.87140  0.23740  Biso   1.000  N
  N55      1.0000 0.93790  0.37140  0.26260  Biso   1.000  N
  N56      1.0000 0.43790  0.87140  0.26260  Biso   1.000  N
  C73      1.0000 0.94130  0.55450  0.79990  Biso   1.000  C
  C74      1.0000 0.44130  0.05450  0.79990  Biso   1.000  C
  C75      1.0000 0.05870  0.55450  0.70010  Biso   1.000  C
  C76      1.0000 0.55870  0.05450  0.70010  Biso   1.000  C
  C77      1.0000 0.05870  0.44550  0.20010  Biso   1.000  C
  C78      1.0000 0.55870  0.94550  0.20010  Biso   1.000  C
  C79      1.0000 0.94130  0.44550  0.29990  Biso   1.000  C
  C80      1.0000 0.44130  0.94550  0.29990  Biso   1.000  C
  H73      1.0000 0.92930  0.53240  0.81600  Biso   1.000  H
  H74      1.0000 0.42930  0.03240  0.81600  Biso   1.000  H
  H75      1.0000 0.07070  0.53240  0.68400  Biso   1.000  H
  H76      1.0000 0.57070  0.03240  0.68400  Biso   1.000  H
  H77      1.0000 0.07070  0.46760  0.18400  Biso   1.000  H
  H78      1.0000 0.57070  0.96760  0.18400  Biso   1.000  H
  H79      1.0000 0.92930  0.46760  0.31600  Biso   1.000  H
  H80      1.0000 0.42930  0.96760  0.31600  Biso   1.000  H
  N57      1.0000 0.96330  0.51740  0.81090  Biso   1.000  N
  N58      1.0000 0.46330  0.01740  0.81090  Biso   1.000  N
  N59      1.0000 0.03670  0.51740  0.68910  Biso   1.000  N
  N60      1.0000 0.53670  0.01740  0.68910  Biso   1.000  N
  N61      1.0000 0.03670  0.48260  0.18910  Biso   1.000  N
  N62      1.0000 0.53670  0.98260  0.18910  Biso   1.000  N
  N63      1.0000 0.96330  0.48260  0.31090  Biso   1.000  N
  N64      1.0000 0.46330  0.98260  0.31090  Biso   1.000  N
  C81      1.0000 0.97810  0.57750  0.78980  Biso   1.000  C
  C82      1.0000 0.47810  0.07750  0.78980  Biso   1.000  C
  C83      1.0000 0.02190  0.57750  0.71020  Biso   1.000  C
  C84      1.0000 0.52190  0.07750  0.71020  Biso   1.000  C
  C85      1.0000 0.02190  0.42250  0.21020  Biso   1.000  C
  C86      1.0000 0.52190  0.92250  0.21020  Biso   1.000  C
  C87      1.0000 0.97810  0.42250  0.28980  Biso   1.000  C
  C88      1.0000 0.47810  0.92250  0.28980  Biso   1.000  C
  H81      1.0000 0.99530  0.57260  0.79630  Biso   1.000  H
  H82      1.0000 0.49530  0.07260  0.79630  Biso   1.000  H
  H83      1.0000 0.00470  0.57260  0.70370  Biso   1.000  H
  H84      1.0000 0.50470  0.07260  0.70370  Biso   1.000  H
  H85      1.0000 0.00470  0.42740  0.20370  Biso   1.000  H
  H86      1.0000 0.50470  0.92740  0.20370  Biso   1.000  H
  H87      1.0000 0.99530  0.42740  0.29630  Biso   1.000  H
  H88      1.0000 0.49530  0.92740  0.29630  Biso   1.000  H
  C89      1.0000 0.96110  0.64770  0.75640  Biso   1.000  C
  C90      1.0000 0.46110  0.14770  0.75640  Biso   1.000  C
  C91      1.0000 0.03890  0.64770  0.74360  Biso   1.000  C
  C92      1.0000 0.53890  0.14770  0.74360  Biso   1.000  C
  C93      1.0000 0.03890  0.35230  0.24360  Biso   1.000  C
  C94      1.0000 0.53890  0.85230  0.24360  Biso   1.000  C
  C95      1.0000 0.96110  0.35230  0.25640  Biso   1.000  C
  C96      1.0000 0.46110  0.85230  0.25640  Biso   1.000  C
  H89      1.0000 0.96480  0.69670  0.73470  Biso   1.000  H
  H90      1.0000 0.46480  0.19670  0.73470  Biso   1.000  H
  H91      1.0000 0.03520  0.69670  0.76530  Biso   1.000  H
  H92      1.0000 0.53520  0.19670  0.76530  Biso   1.000  H
  H93      1.0000 0.03520  0.30330  0.26530  Biso   1.000  H
  H94      1.0000 0.53520  0.80330  0.26530  Biso   1.000  H
  H95      1.0000 0.96480  0.30330  0.23470  Biso   1.000  H
  H96      1.0000 0.46480  0.80330  0.23470  Biso   1.000  H
  N65      1.0000 0.99880  0.31260  0.87630  Biso   1.000  N
  N66      1.0000 0.49880  0.81260  0.87630  Biso   1.000  N
  N67      1.0000 0.00120  0.31260  0.62370  Biso   1.000  N
  N68      1.0000 0.50120  0.81260  0.62370  Biso   1.000  N
  N69      1.0000 0.00120  0.68740  0.12370  Biso   1.000  N
  N70      1.0000 0.50120  0.18740  0.12370  Biso   1.000  N
  N71      1.0000 0.99880  0.68740  0.37630  Biso   1.000  N
  N72      1.0000 0.49880  0.18740  0.37630  Biso   1.000  N
  C97      1.0000 0.00100  0.24090  0.91720  Biso   1.000  C
  C98      1.0000 0.50100  0.74090  0.91720  Biso   1.000  C
  C99      1.0000 0.99900  0.24090  0.58280  Biso   1.000  C
  C100     1.0000 0.49900  0.74090  0.58280  Biso   1.000  C
  C101     1.0000 0.99900  0.75910  0.08280  Biso   1.000  C
  C102     1.0000 0.49900  0.25910  0.08280  Biso   1.000  C
  C103     1.0000 0.00100  0.75910  0.41720  Biso   1.000  C
  C104     1.0000 0.50100  0.25910  0.41720  Biso   1.000  C
  H97      1.0000 0.99100  0.23510  0.94230  Biso   1.000  H
  H98      1.0000 0.49100  0.73510  0.94230  Biso   1.000  H
  H99      1.0000 0.00900  0.23510  0.55770  Biso   1.000  H
  H100     1.0000 0.50900  0.73510  0.55770  Biso   1.000  H
  H101     1.0000 0.00900  0.76490  0.05770  Biso   1.000  H
  H102     1.0000 0.50900  0.26490  0.05770  Biso   1.000  H
  H103     1.0000 0.99100  0.76490  0.44230  Biso   1.000  H
  H104     1.0000 0.49100  0.26490  0.44230  Biso   1.000  H
  N73      1.0000 0.01920  0.17830  0.91800  Biso   1.000  N
  N74      1.0000 0.51920  0.67830  0.91800  Biso   1.000  N
  N75      1.0000 0.98080  0.17830  0.58200  Biso   1.000  N
  N76      1.0000 0.48080  0.67830  0.58200  Biso   1.000  N
  N77      1.0000 0.98080  0.82170  0.08200  Biso   1.000  N
  N78      1.0000 0.48080  0.32170  0.08200  Biso   1.000  N
  N79      1.0000 0.01920  0.82170  0.41800  Biso   1.000  N
  N80      1.0000 0.51920  0.32170  0.41800  Biso   1.000  N
  C105     1.0000 0.03040  0.20610  0.87860  Biso   1.000  C
  C106     1.0000 0.53040  0.70610  0.87860  Biso   1.000  C
  C107     1.0000 0.96960  0.20610  0.62140  Biso   1.000  C
  C108     1.0000 0.46960  0.70610  0.62140  Biso   1.000  C
  C109     1.0000 0.96960  0.79390  0.12140  Biso   1.000  C
  C110     1.0000 0.46960  0.29390  0.12140  Biso   1.000  C
  C111     1.0000 0.03040  0.79390  0.37860  Biso   1.000  C
  C112     1.0000 0.53040  0.29390  0.37860  Biso   1.000  C
  H105     1.0000 0.04420  0.17960  0.87130  Biso   1.000  H
  H106     1.0000 0.54420  0.67960  0.87130  Biso   1.000  H
  H107     1.0000 0.95580  0.17960  0.62870  Biso   1.000  H
  H108     1.0000 0.45580  0.67960  0.62870  Biso   1.000  H
  H109     1.0000 0.95580  0.82040  0.12870  Biso   1.000  H
  H110     1.0000 0.45580  0.32040  0.12870  Biso   1.000  H
  H111     1.0000 0.04420  0.82040  0.37130  Biso   1.000  H
  H112     1.0000 0.54420  0.32040  0.37130  Biso   1.000  H
  C113     1.0000 0.01710  0.28400  0.85040  Biso   1.000  C
  C114     1.0000 0.51710  0.78400  0.85040  Biso   1.000  C
  C115     1.0000 0.98290  0.28400  0.64960  Biso   1.000  C
  C116     1.0000 0.48290  0.78400  0.64960  Biso   1.000  C
  C117     1.0000 0.98290  0.71600  0.14960  Biso   1.000  C
  C118     1.0000 0.48290  0.21600  0.14960  Biso   1.000  C
  C119     1.0000 0.01710  0.71600  0.35040  Biso   1.000  C
  C120     1.0000 0.51710  0.21600  0.35040  Biso   1.000  C
  H113     1.0000 0.01990  0.31480  0.81720  Biso   1.000  H
  H114     1.0000 0.51990  0.81480  0.81720  Biso   1.000  H
  H115     1.0000 0.98010  0.31480  0.68280  Biso   1.000  H
  H116     1.0000 0.48010  0.81480  0.68280  Biso   1.000  H
  H117     1.0000 0.98010  0.68520  0.18280  Biso   1.000  H
  H118     1.0000 0.48010  0.18520  0.18280  Biso   1.000  H
  H119     1.0000 0.01990  0.68520  0.31720  Biso   1.000  H
  H120     1.0000 0.51990  0.18520  0.31720  Biso   1.000  H
  N81      1.0000 0.00600  0.81720  0.88090  Biso   1.000  N
  N82      1.0000 0.50600  0.31720  0.88090  Biso   1.000  N
  N83      1.0000 0.99400  0.81720  0.61910  Biso   1.000  N
  N84      1.0000 0.49400  0.31720  0.61910  Biso   1.000  N
  N85      1.0000 0.99400  0.18280  0.11910  Biso   1.000  N
  N86      1.0000 0.49400  0.68280  0.11910  Biso   1.000  N
  N87      1.0000 0.00600  0.18280  0.38090  Biso   1.000  N
  N88      1.0000 0.50600  0.68280  0.38090  Biso   1.000  N
  C121     1.0000 0.02860  0.77740  0.90280  Biso   1.000  C
  C122     1.0000 0.52860  0.27740  0.90280  Biso   1.000  C
  C123     1.0000 0.97140  0.77740  0.59720  Biso   1.000  C
  C124     1.0000 0.47140  0.27740  0.59720  Biso   1.000  C
  C125     1.0000 0.97140  0.22260  0.09720  Biso   1.000  C
  C126     1.0000 0.47140  0.72260  0.09720  Biso   1.000  C
  C127     1.0000 0.02860  0.22260  0.40280  Biso   1.000  C
  C128     1.0000 0.52860  0.72260  0.40280  Biso   1.000  C
  H121     1.0000 0.04320  0.79760  0.89640  Biso   1.000  H
  H122     1.0000 0.54320  0.29760  0.89640  Biso   1.000  H
  H123     1.0000 0.95680  0.79760  0.60360  Biso   1.000  H
  H124     1.0000 0.45680  0.29760  0.60360  Biso   1.000  H
  H125     1.0000 0.95680  0.20240  0.10360  Biso   1.000  H
  H126     1.0000 0.45680  0.70240  0.10360  Biso   1.000  H
  H127     1.0000 0.04320  0.20240  0.39640  Biso   1.000  H
  H128     1.0000 0.54320  0.70240  0.39640  Biso   1.000  H
  N89      1.0000 0.02670  0.70390  0.93530  Biso   1.000  N
  N90      1.0000 0.52670  0.20390  0.93530  Biso   1.000  N
  N91      1.0000 0.97330  0.70390  0.56470  Biso   1.000  N
  N92      1.0000 0.47330  0.20390  0.56470  Biso   1.000  N
  N93      1.0000 0.97330  0.29610  0.06470  Biso   1.000  N
  N94      1.0000 0.47330  0.79610  0.06470  Biso   1.000  N
  N95      1.0000 0.02670  0.29610  0.43530  Biso   1.000  N
  N96      1.0000 0.52670  0.79610  0.43530  Biso   1.000  N
  C129     1.0000 0.00310  0.69820  0.93360  Biso   1.000  C
  C130     1.0000 0.50310  0.19820  0.93360  Biso   1.000  C
  C131     1.0000 0.99690  0.69820  0.56640  Biso   1.000  C
  C132     1.0000 0.49690  0.19820  0.56640  Biso   1.000  C
  C133     1.0000 0.99690  0.30180  0.06640  Biso   1.000  C
  C134     1.0000 0.49690  0.80180  0.06640  Biso   1.000  C
  C135     1.0000 0.00310  0.30180  0.43360  Biso   1.000  C
  C136     1.0000 0.50310  0.80180  0.43360  Biso   1.000  C
  H129     1.0000 0.99650  0.65300  0.95260  Biso   1.000  H
  H130     1.0000 0.49650  0.15300  0.95260  Biso   1.000  H
  H131     1.0000 0.00350  0.65300  0.54740  Biso   1.000  H
  H132     1.0000 0.50350  0.15300  0.54740  Biso   1.000  H
  H133     1.0000 0.00350  0.34700  0.04740  Biso   1.000  H
  H134     1.0000 0.50350  0.84700  0.04740  Biso   1.000  H
  H135     1.0000 0.99650  0.34700  0.45260  Biso   1.000  H
  H136     1.0000 0.49650  0.84700  0.45260  Biso   1.000  H
  C137     1.0000 0.99030  0.76820  0.89990  Biso   1.000  C
  C138     1.0000 0.49030  0.26820  0.89990  Biso   1.000  C
  C139     1.0000 0.00970  0.76820  0.60010  Biso   1.000  C
  C140     1.0000 0.50970  0.26820  0.60010  Biso   1.000  C
  C141     1.0000 0.00970  0.23180  0.10010  Biso   1.000  C
  C142     1.0000 0.50970  0.73180  0.10010  Biso   1.000  C
  C143     1.0000 0.99030  0.23180  0.39990  Biso   1.000  C
  C144     1.0000 0.49030  0.73180  0.39990  Biso   1.000  C
  H137     1.0000 0.97320  0.78080  0.89120  Biso   1.000  H
  H138     1.0000 0.47320  0.28080  0.89120  Biso   1.000  H
  H139     1.0000 0.02680  0.78080  0.60880  Biso   1.000  H
  H140     1.0000 0.52680  0.28080  0.60880  Biso   1.000  H
  H141     1.0000 0.02680  0.21920  0.10880  Biso   1.000  H
  H142     1.0000 0.52680  0.71920  0.10880  Biso   1.000  H
  H143     1.0000 0.97320  0.21920  0.39120  Biso   1.000  H
  H144     1.0000 0.47320  0.71920  0.39120  Biso   1.000  H
  N97      1.0000 0.93390  0.50640  0.00160  Biso   1.000  N
  N98      1.0000 0.43390  0.00640  0.00160  Biso   1.000  N
  N99      1.0000 0.06610  0.50640  0.49840  Biso   1.000  N
  N100     1.0000 0.56610  0.00640  0.49840  Biso   1.000  N
  N101     1.0000 0.06610  0.49360  0.99840  Biso   1.000  N
  N102     1.0000 0.56610  0.99360  0.99840  Biso   1.000  N
  N103     1.0000 0.93390  0.49360  0.50160  Biso   1.000  N
  N104     1.0000 0.43390  0.99360  0.50160  Biso   1.000  N
  C145     1.0000 0.91220  0.52140  0.94840  Biso   1.000  C
  C146     1.0000 0.41220  0.02140  0.94840  Biso   1.000  C
  C147     1.0000 0.08780  0.52140  0.55160  Biso   1.000  C
  C148     1.0000 0.58780  0.02140  0.55160  Biso   1.000  C
  C149     1.0000 0.08780  0.47860  0.05160  Biso   1.000  C
  C150     1.0000 0.58780  0.97860  0.05160  Biso   1.000  C
  C151     1.0000 0.91220  0.47860  0.44840  Biso   1.000  C
  C152     1.0000 0.41220  0.97860  0.44840  Biso   1.000  C
  H145     1.0000 0.90520  0.48090  0.91470  Biso   1.000  H
  H146     1.0000 0.40520  0.98090  0.91470  Biso   1.000  H
  H147     1.0000 0.09480  0.48090  0.58530  Biso   1.000  H
  H148     1.0000 0.59480  0.98090  0.58530  Biso   1.000  H
  H149     1.0000 0.09480  0.51910  0.08530  Biso   1.000  H
  H150     1.0000 0.59480  0.01910  0.08530  Biso   1.000  H
  H151     1.0000 0.90520  0.51910  0.41470  Biso   1.000  H
  H152     1.0000 0.40520  0.01910  0.41470  Biso   1.000  H
  N105     1.0000 0.90300  0.60760  0.95420  Biso   1.000  N
  N106     1.0000 0.40300  0.10760  0.95420  Biso   1.000  N
  N107     1.0000 0.09700  0.60760  0.54580  Biso   1.000  N
  N108     1.0000 0.59700  0.10760  0.54580  Biso   1.000  N
  N109     1.0000 0.09700  0.39240  0.04580  Biso   1.000  N
  N110     1.0000 0.59700  0.89240  0.04580  Biso   1.000  N
  N111     1.0000 0.90300  0.39240  0.45420  Biso   1.000  N
  N112     1.0000 0.40300  0.89240  0.45420  Biso   1.000  N
  C153     1.0000 0.91890  0.64590  0.01110  Biso   1.000  C
  C154     1.0000 0.41890  0.14590  0.01110  Biso   1.000  C
  C155     1.0000 0.08110  0.64590  0.48890  Biso   1.000  C
  C156     1.0000 0.58110  0.14590  0.48890  Biso   1.000  C
  C157     1.0000 0.08110  0.35410  0.98890  Biso   1.000  C
  C158     1.0000 0.58110  0.85410  0.98890  Biso   1.000  C
  C159     1.0000 0.91890  0.35410  0.51110  Biso   1.000  C
  C160     1.0000 0.41890  0.85410  0.51110  Biso   1.000  C
  H153     1.0000 0.91710  0.70330  0.02680  Biso   1.000  H
  H154     1.0000 0.41710  0.20330  0.02680  Biso   1.000  H
  H155     1.0000 0.08290  0.70330  0.47320  Biso   1.000  H
  H156     1.0000 0.58290  0.20330  0.47320  Biso   1.000  H
  H157     1.0000 0.08290  0.29670  0.97320  Biso   1.000  H
  H158     1.0000 0.58290  0.79670  0.97320  Biso   1.000  H
  H159     1.0000 0.91710  0.29670  0.52680  Biso   1.000  H
  H160     1.0000 0.41710  0.79670  0.52680  Biso   1.000  H
  C161     1.0000 0.93800  0.58330  0.04040  Biso   1.000  C
  C162     1.0000 0.43800  0.08330  0.04040  Biso   1.000  C
  C163     1.0000 0.06200  0.58330  0.45960  Biso   1.000  C
  C164     1.0000 0.56200  0.08330  0.45960  Biso   1.000  C
  C165     1.0000 0.06200  0.41670  0.95960  Biso   1.000  C
  C166     1.0000 0.56200  0.91670  0.95960  Biso   1.000  C
  C167     1.0000 0.93800  0.41670  0.54040  Biso   1.000  C
  C168     1.0000 0.43800  0.91670  0.54040  Biso   1.000  C
  H161     1.0000 0.95130  0.59140  0.07910  Biso   1.000  H
  H162     1.0000 0.45130  0.09140  0.07910  Biso   1.000  H
  H163     1.0000 0.04870  0.59140  0.42090  Biso   1.000  H
  H164     1.0000 0.54870  0.09140  0.42090  Biso   1.000  H
  H165     1.0000 0.04870  0.40860  0.92090  Biso   1.000  H
  H166     1.0000 0.54870  0.90860  0.92090  Biso   1.000  H
  H167     1.0000 0.95130  0.40860  0.57910  Biso   1.000  H
  H168     1.0000 0.45130  0.90860  0.57910  Biso   1.000  H
  N113     1.0000 0.80150  0.64190  0.74740  Biso   1.000  N
  N114     1.0000 0.30150  0.14190  0.74740  Biso   1.000  N
  N115     1.0000 0.19850  0.64190  0.75260  Biso   1.000  N
  N116     1.0000 0.69850  0.14190  0.75260  Biso   1.000  N
  N117     1.0000 0.19850  0.35810  0.25260  Biso   1.000  N
  N118     1.0000 0.69850  0.85810  0.25260  Biso   1.000  N
  N119     1.0000 0.80150  0.35810  0.24740  Biso   1.000  N
  N120     1.0000 0.30150  0.85810  0.24740  Biso   1.000  N
  C169     1.0000 0.77860  0.59810  0.72870  Biso   1.000  C
  C170     1.0000 0.27860  0.09810  0.72870  Biso   1.000  C
  C171     1.0000 0.22140  0.59810  0.77130  Biso   1.000  C
  C172     1.0000 0.72140  0.09810  0.77130  Biso   1.000  C
  C173     1.0000 0.22140  0.40190  0.27130  Biso   1.000  C
  C174     1.0000 0.72140  0.90190  0.27130  Biso   1.000  C
  C175     1.0000 0.77860  0.40190  0.22870  Biso   1.000  C
  C176     1.0000 0.27860  0.90190  0.22870  Biso   1.000  C
  H169     1.0000 0.77590  0.53750  0.73730  Biso   1.000  H
  H170     1.0000 0.27590  0.03750  0.73730  Biso   1.000  H
  H171     1.0000 0.22410  0.53750  0.76270  Biso   1.000  H
  H172     1.0000 0.72410  0.03750  0.76270  Biso   1.000  H
  H173     1.0000 0.22410  0.46250  0.26270  Biso   1.000  H
  H174     1.0000 0.72410  0.96250  0.26270  Biso   1.000  H
  H175     1.0000 0.77590  0.46250  0.23730  Biso   1.000  H
  H176     1.0000 0.27590  0.96250  0.23730  Biso   1.000  H
  C177     1.0000 0.76030  0.65890  0.69520  Biso   1.000  C
  C178     1.0000 0.26030  0.15890  0.69520  Biso   1.000  C
  C179     1.0000 0.23970  0.65890  0.80480  Biso   1.000  C
  C180     1.0000 0.73970  0.15890  0.80480  Biso   1.000  C
  C181     1.0000 0.23970  0.34110  0.30480  Biso   1.000  C
  C182     1.0000 0.73970  0.84110  0.30480  Biso   1.000  C
  C183     1.0000 0.76030  0.34110  0.19520  Biso   1.000  C
  C184     1.0000 0.26030  0.84110  0.19520  Biso   1.000  C
  H177     1.0000 0.74300  0.64700  0.67690  Biso   1.000  H
  H178     1.0000 0.24300  0.14700  0.67690  Biso   1.000  H
  H179     1.0000 0.25700  0.64700  0.82310  Biso   1.000  H
  H180     1.0000 0.75700  0.14700  0.82310  Biso   1.000  H
  H181     1.0000 0.25700  0.35300  0.32310  Biso   1.000  H
  H182     1.0000 0.75700  0.85300  0.32310  Biso   1.000  H
  H183     1.0000 0.74300  0.35300  0.17690  Biso   1.000  H
  H184     1.0000 0.24300  0.85300  0.17690  Biso   1.000  H
  N121     1.0000 0.77200  0.74030  0.69320  Biso   1.000  N
  N122     1.0000 0.27200  0.24030  0.69320  Biso   1.000  N
  N123     1.0000 0.22800  0.74030  0.80680  Biso   1.000  N
  N124     1.0000 0.72800  0.24030  0.80680  Biso   1.000  N
  N125     1.0000 0.22800  0.25970  0.30680  Biso   1.000  N
  N126     1.0000 0.72800  0.75970  0.30680  Biso   1.000  N
  N127     1.0000 0.77200  0.25970  0.19320  Biso   1.000  N
  N128     1.0000 0.27200  0.75970  0.19320  Biso   1.000  N
  C185     1.0000 0.79740  0.72970  0.72540  Biso   1.000  C
  C186     1.0000 0.29740  0.22970  0.72540  Biso   1.000  C
  C187     1.0000 0.20260  0.72970  0.77460  Biso   1.000  C
  C188     1.0000 0.70260  0.22970  0.77460  Biso   1.000  C
  C189     1.0000 0.20260  0.27030  0.27460  Biso   1.000  C
  C190     1.0000 0.70260  0.77030  0.27460  Biso   1.000  C
  C191     1.0000 0.79740  0.27030  0.22540  Biso   1.000  C
  C192     1.0000 0.29740  0.77030  0.22540  Biso   1.000  C
  H185     1.0000 0.80970  0.77450  0.73140  Biso   1.000  H
  H186     1.0000 0.30970  0.27450  0.73140  Biso   1.000  H
  H187     1.0000 0.19030  0.77450  0.76860  Biso   1.000  H
  H188     1.0000 0.69030  0.27450  0.76860  Biso   1.000  H
  H189     1.0000 0.19030  0.22550  0.26860  Biso   1.000  H
  H190     1.0000 0.69030  0.72550  0.26860  Biso   1.000  H
  H191     1.0000 0.80970  0.22550  0.23140  Biso   1.000  H
  H192     1.0000 0.30970  0.72550  0.23140  Biso   1.000  H
  C193     1.0000 0.73000  0.25420  0.61630  Biso   1.000  C
  C194     1.0000 0.23000  0.75420  0.61630  Biso   1.000  C
  C195     1.0000 0.27000  0.25420  0.88370  Biso   1.000  C
  C196     1.0000 0.77000  0.75420  0.88370  Biso   1.000  C
  C197     1.0000 0.27000  0.74580  0.38370  Biso   1.000  C
  C198     1.0000 0.77000  0.24580  0.38370  Biso   1.000  C
  C199     1.0000 0.73000  0.74580  0.11630  Biso   1.000  C
  C200     1.0000 0.23000  0.24580  0.11630  Biso   1.000  C
  H193     1.0000 0.72540  0.23530  0.65220  Biso   1.000  H
  H194     1.0000 0.22540  0.73530  0.65220  Biso   1.000  H
  H195     1.0000 0.27460  0.23530  0.84780  Biso   1.000  H
  H196     1.0000 0.77460  0.73530  0.84780  Biso   1.000  H
  H197     1.0000 0.27460  0.76470  0.34780  Biso   1.000  H
  H198     1.0000 0.77460  0.26470  0.34780  Biso   1.000  H
  H199     1.0000 0.72540  0.76470  0.15220  Biso   1.000  H
  H200     1.0000 0.22540  0.26470  0.15220  Biso   1.000  H
  H201     1.0000 0.74570  0.22300  0.61990  Biso   1.000  H
  H202     1.0000 0.24570  0.72300  0.61990  Biso   1.000  H
  H203     1.0000 0.25430  0.22300  0.88010  Biso   1.000  H
  H204     1.0000 0.75430  0.72300  0.88010  Biso   1.000  H
  H205     1.0000 0.25430  0.77700  0.38010  Biso   1.000  H
  H206     1.0000 0.75430  0.27700  0.38010  Biso   1.000  H
  H207     1.0000 0.74570  0.77700  0.11990  Biso   1.000  H
  H208     1.0000 0.24570  0.27700  0.11990  Biso   1.000  H
  C201     1.0000 0.71060  0.22500  0.55900  Biso   1.000  C
  C202     1.0000 0.21060  0.72500  0.55900  Biso   1.000  C
  C203     1.0000 0.28940  0.22500  0.94100  Biso   1.000  C
  C204     1.0000 0.78940  0.72500  0.94100  Biso   1.000  C
  C205     1.0000 0.28940  0.77500  0.44100  Biso   1.000  C
  C206     1.0000 0.78940  0.27500  0.44100  Biso   1.000  C
  C207     1.0000 0.71060  0.77500  0.05900  Biso   1.000  C
  C208     1.0000 0.21060  0.27500  0.05900  Biso   1.000  C
  H209     1.0000 0.70570  0.27650  0.52970  Biso   1.000  H
  H210     1.0000 0.20570  0.77650  0.52970  Biso   1.000  H
  H211     1.0000 0.29430  0.27650  0.97030  Biso   1.000  H
  H212     1.0000 0.79430  0.77650  0.97030  Biso   1.000  H
  H213     1.0000 0.29430  0.72350  0.47030  Biso   1.000  H
  H214     1.0000 0.79430  0.22350  0.47030  Biso   1.000  H
  H215     1.0000 0.70570  0.72350  0.02970  Biso   1.000  H
  H216     1.0000 0.20570  0.22350  0.02970  Biso   1.000  H
  H217     1.0000 0.69590  0.20660  0.56880  Biso   1.000  H
  H218     1.0000 0.19590  0.70660  0.56880  Biso   1.000  H
  H219     1.0000 0.30410  0.20660  0.93120  Biso   1.000  H
  H220     1.0000 0.80410  0.70660  0.93120  Biso   1.000  H
  H221     1.0000 0.30410  0.79340  0.43120  Biso   1.000  H
  H222     1.0000 0.80410  0.29340  0.43120  Biso   1.000  H
  H223     1.0000 0.69590  0.79340  0.06880  Biso   1.000  H
  H224     1.0000 0.19590  0.29340  0.06880  Biso   1.000  H
  C209     1.0000 0.71680  0.15950  0.53020  Biso   1.000  C
  C210     1.0000 0.21680  0.65950  0.53020  Biso   1.000  C
  C211     1.0000 0.28320  0.15950  0.96980  Biso   1.000  C
  C212     1.0000 0.78320  0.65950  0.96980  Biso   1.000  C
  C213     1.0000 0.28320  0.84050  0.46980  Biso   1.000  C
  C214     1.0000 0.78320  0.34050  0.46980  Biso   1.000  C
  C215     1.0000 0.71680  0.84050  0.03020  Biso   1.000  C
  C216     1.0000 0.21680  0.34050  0.03020  Biso   1.000  C
  H225     1.0000 0.70460  0.15720  0.48680  Biso   1.000  H
  H226     1.0000 0.20460  0.65720  0.48680  Biso   1.000  H
  H227     1.0000 0.29540  0.15720  0.01320  Biso   1.000  H
  H228     1.0000 0.79540  0.65720  0.01320  Biso   1.000  H
  H229     1.0000 0.29540  0.84280  0.51320  Biso   1.000  H
  H230     1.0000 0.79540  0.34280  0.51320  Biso   1.000  H
  H231     1.0000 0.70460  0.84280  0.98680  Biso   1.000  H
  H232     1.0000 0.20460  0.34280  0.98680  Biso   1.000  H
  H233     1.0000 0.73320  0.17330  0.52770  Biso   1.000  H
  H234     1.0000 0.23320  0.67330  0.52770  Biso   1.000  H
  H235     1.0000 0.26680  0.17330  0.97230  Biso   1.000  H
  H236     1.0000 0.76680  0.67330  0.97230  Biso   1.000  H
  H237     1.0000 0.26680  0.82670  0.47230  Biso   1.000  H
  H238     1.0000 0.76680  0.32670  0.47230  Biso   1.000  H
  H239     1.0000 0.73320  0.82670  0.02770  Biso   1.000  H
  H240     1.0000 0.23320  0.32670  0.02770  Biso   1.000  H
  C217     1.0000 0.87240  0.57330  0.58000  Biso   1.000  C
  C218     1.0000 0.37240  0.07330  0.58000  Biso   1.000  C
  C219     1.0000 0.12760  0.57330  0.92000  Biso   1.000  C
  C220     1.0000 0.62760  0.07330  0.92000  Biso   1.000  C
  C221     1.0000 0.12760  0.42670  0.42000  Biso   1.000  C
  C222     1.0000 0.62760  0.92670  0.42000  Biso   1.000  C
  C223     1.0000 0.87240  0.42670  0.08000  Biso   1.000  C
  C224     1.0000 0.37240  0.92670  0.08000  Biso   1.000  C
  H241     1.0000 0.87960  0.59280  0.54840  Biso   1.000  H
  H242     1.0000 0.37960  0.09280  0.54840  Biso   1.000  H
  H243     1.0000 0.12040  0.59280  0.95160  Biso   1.000  H
  H244     1.0000 0.62040  0.09280  0.95160  Biso   1.000  H
  H245     1.0000 0.12040  0.40720  0.45160  Biso   1.000  H
  H246     1.0000 0.62040  0.90720  0.45160  Biso   1.000  H
  H247     1.0000 0.87960  0.40720  0.04840  Biso   1.000  H
  H248     1.0000 0.37960  0.90720  0.04840  Biso   1.000  H
  H249     1.0000 0.86810  0.50910  0.57270  Biso   1.000  H
  H250     1.0000 0.36810  0.00910  0.57270  Biso   1.000  H
  H251     1.0000 0.13190  0.50910  0.92730  Biso   1.000  H
  H252     1.0000 0.63190  0.00910  0.92730  Biso   1.000  H
  H253     1.0000 0.13190  0.49090  0.42730  Biso   1.000  H
  H254     1.0000 0.63190  0.99090  0.42730  Biso   1.000  H
  H255     1.0000 0.86810  0.49090  0.07270  Biso   1.000  H
  H256     1.0000 0.36810  0.99090  0.07270  Biso   1.000  H
  C225     1.0000 0.89140  0.58470  0.64350  Biso   1.000  C
  C226     1.0000 0.39140  0.08470  0.64350  Biso   1.000  C
  C227     1.0000 0.10860  0.58470  0.85650  Biso   1.000  C
  C228     1.0000 0.60860  0.08470  0.85650  Biso   1.000  C
  C229     1.0000 0.10860  0.41530  0.35650  Biso   1.000  C
  C230     1.0000 0.60860  0.91530  0.35650  Biso   1.000  C
  C231     1.0000 0.89140  0.41530  0.14350  Biso   1.000  C
  C232     1.0000 0.39140  0.91530  0.14350  Biso   1.000  C
  H257     1.0000 0.88400  0.55950  0.67310  Biso   1.000  H
  H258     1.0000 0.38400  0.05950  0.67310  Biso   1.000  H
  H259     1.0000 0.11600  0.55950  0.82690  Biso   1.000  H
  H260     1.0000 0.61600  0.05950  0.82690  Biso   1.000  H
  H261     1.0000 0.11600  0.44050  0.32690  Biso   1.000  H
  H262     1.0000 0.61600  0.94050  0.32690  Biso   1.000  H
  H263     1.0000 0.88400  0.44050  0.17310  Biso   1.000  H
  H264     1.0000 0.38400  0.94050  0.17310  Biso   1.000  H
  H265     1.0000 0.90550  0.54510  0.64550  Biso   1.000  H
  H266     1.0000 0.40550  0.04510  0.64550  Biso   1.000  H
  H267     1.0000 0.09450  0.54510  0.85450  Biso   1.000  H
  H268     1.0000 0.59450  0.04510  0.85450  Biso   1.000  H
  H269     1.0000 0.09450  0.45490  0.35450  Biso   1.000  H
  H270     1.0000 0.59450  0.95490  0.35450  Biso   1.000  H
  H271     1.0000 0.90550  0.45490  0.14550  Biso   1.000  H
  H272     1.0000 0.40550  0.95490  0.14550  Biso   1.000  H
  C233     1.0000 0.90220  0.67130  0.66940  Biso   1.000  C
  C234     1.0000 0.40220  0.17130  0.66940  Biso   1.000  C
  C235     1.0000 0.09780  0.67130  0.83060  Biso   1.000  C
  C236     1.0000 0.59780  0.17130  0.83060  Biso   1.000  C
  C237     1.0000 0.09780  0.32870  0.33060  Biso   1.000  C
  C238     1.0000 0.59780  0.82870  0.33060  Biso   1.000  C
  C239     1.0000 0.90220  0.32870  0.16940  Biso   1.000  C
  C240     1.0000 0.40220  0.82870  0.16940  Biso   1.000  C
  H273     1.0000 0.88850  0.71570  0.65650  Biso   1.000  H
  H274     1.0000 0.38850  0.21570  0.65650  Biso   1.000  H
  H275     1.0000 0.11150  0.71570  0.84350  Biso   1.000  H
  H276     1.0000 0.61150  0.21570  0.84350  Biso   1.000  H
  H277     1.0000 0.11150  0.28430  0.34350  Biso   1.000  H
  H278     1.0000 0.61150  0.78430  0.34350  Biso   1.000  H
  H279     1.0000 0.88850  0.28430  0.15650  Biso   1.000  H
  H280     1.0000 0.38850  0.78430  0.15650  Biso   1.000  H
  H281     1.0000 0.91380  0.68820  0.64800  Biso   1.000  H
  H282     1.0000 0.41380  0.18820  0.64800  Biso   1.000  H
  H283     1.0000 0.08620  0.68820  0.85200  Biso   1.000  H
  H284     1.0000 0.58620  0.18820  0.85200  Biso   1.000  H
  H285     1.0000 0.08620  0.31180  0.35200  Biso   1.000  H
  H286     1.0000 0.58620  0.81180  0.35200  Biso   1.000  H
  H287     1.0000 0.91380  0.31180  0.14800  Biso   1.000  H
  H288     1.0000 0.41380  0.81180  0.14800  Biso   1.000  H
  C241     1.0000 0.91570  0.68410  0.73750  Biso   1.000  C
  C242     1.0000 0.41570  0.18410  0.73750  Biso   1.000  C
  C243     1.0000 0.08430  0.68410  0.76250  Biso   1.000  C
  C244     1.0000 0.58430  0.18410  0.76250  Biso   1.000  C
  C245     1.0000 0.08430  0.31590  0.26250  Biso   1.000  C
  C246     1.0000 0.58430  0.81590  0.26250  Biso   1.000  C
  C247     1.0000 0.91570  0.31590  0.23750  Biso   1.000  C
  C248     1.0000 0.41570  0.81590  0.23750  Biso   1.000  C
  H289     1.0000 0.92060  0.74780  0.74540  Biso   1.000  H
  H290     1.0000 0.42060  0.24780  0.74540  Biso   1.000  H
  H291     1.0000 0.07940  0.74780  0.75460  Biso   1.000  H
  H292     1.0000 0.57940  0.24780  0.75460  Biso   1.000  H
  H293     1.0000 0.07940  0.25220  0.25460  Biso   1.000  H
  H294     1.0000 0.57940  0.75220  0.25460  Biso   1.000  H
  H295     1.0000 0.92060  0.25220  0.24540  Biso   1.000  H
  H296     1.0000 0.42060  0.75220  0.24540  Biso   1.000  H
  H297     1.0000 0.90430  0.67010  0.76020  Biso   1.000  H
  H298     1.0000 0.40430  0.17010  0.76020  Biso   1.000  H
  H299     1.0000 0.09570  0.67010  0.73980  Biso   1.000  H
  H300     1.0000 0.59570  0.17010  0.73980  Biso   1.000  H
  H301     1.0000 0.09570  0.32990  0.23980  Biso   1.000  H
  H302     1.0000 0.59570  0.82990  0.23980  Biso   1.000  H
  H303     1.0000 0.90430  0.32990  0.26020  Biso   1.000  H
  H304     1.0000 0.40430  0.82990  0.26020  Biso   1.000  H
  C249     1.0000 0.02740  0.10520  0.95850  Biso   1.000  C
  C250     1.0000 0.52740  0.60520  0.95850  Biso   1.000  C
  C251     1.0000 0.97260  0.10520  0.54150  Biso   1.000  C
  C252     1.0000 0.47260  0.60520  0.54150  Biso   1.000  C
  C253     1.0000 0.97260  0.89480  0.04150  Biso   1.000  C
  C254     1.0000 0.47260  0.39480  0.04150  Biso   1.000  C
  C255     1.0000 0.02740  0.89480  0.45850  Biso   1.000  C
  C256     1.0000 0.52740  0.39480  0.45850  Biso   1.000  C
  H305     1.0000 0.01540  0.09220  0.97990  Biso   1.000  H
  H306     1.0000 0.51540  0.59220  0.97990  Biso   1.000  H
  H307     1.0000 0.98460  0.09220  0.52010  Biso   1.000  H
  H308     1.0000 0.48460  0.59220  0.52010  Biso   1.000  H
  H309     1.0000 0.98460  0.90780  0.02010  Biso   1.000  H
  H310     1.0000 0.48460  0.40780  0.02010  Biso   1.000  H
  H311     1.0000 0.01540  0.90780  0.47990  Biso   1.000  H
  H312     1.0000 0.51540  0.40780  0.47990  Biso   1.000  H
  H313     1.0000 0.04380  0.11800  0.99060  Biso   1.000  H
  H314     1.0000 0.54380  0.61800  0.99060  Biso   1.000  H
  H315     1.0000 0.95620  0.11800  0.50940  Biso   1.000  H
  H316     1.0000 0.45620  0.61800  0.50940  Biso   1.000  H
  H317     1.0000 0.95620  0.88200  0.00940  Biso   1.000  H
  H318     1.0000 0.45620  0.38200  0.00940  Biso   1.000  H
  H319     1.0000 0.04380  0.88200  0.49060  Biso   1.000  H
  H320     1.0000 0.54380  0.38200  0.49060  Biso   1.000  H
  C257     1.0000 0.02910  0.02380  0.91680  Biso   1.000  C
  C258     1.0000 0.52910  0.52380  0.91680  Biso   1.000  C
  C259     1.0000 0.97090  0.02380  0.58320  Biso   1.000  C
  C260     1.0000 0.47090  0.52380  0.58320  Biso   1.000  C
  C261     1.0000 0.97090  0.97620  0.08320  Biso   1.000  C
  C262     1.0000 0.47090  0.47620  0.08320  Biso   1.000  C
  C263     1.0000 0.02910  0.97620  0.41680  Biso   1.000  C
  C264     1.0000 0.52910  0.47620  0.41680  Biso   1.000  C
  H321     1.0000 0.04000  0.04210  0.89380  Biso   1.000  H
  H322     1.0000 0.54000  0.54210  0.89380  Biso   1.000  H
  H323     1.0000 0.96000  0.04210  0.60620  Biso   1.000  H
  H324     1.0000 0.46000  0.54210  0.60620  Biso   1.000  H
  H325     1.0000 0.96000  0.95790  0.10620  Biso   1.000  H
  H326     1.0000 0.46000  0.45790  0.10620  Biso   1.000  H
  H327     1.0000 0.04000  0.95790  0.39380  Biso   1.000  H
  H328     1.0000 0.54000  0.45790  0.39380  Biso   1.000  H
  H329     1.0000 0.03770  0.97480  0.94550  Biso   1.000  H
  H330     1.0000 0.53770  0.47480  0.94550  Biso   1.000  H
  H331     1.0000 0.96230  0.97480  0.55450  Biso   1.000  H
  H332     1.0000 0.46230  0.47480  0.55450  Biso   1.000  H
  H333     1.0000 0.96230  0.02520  0.05450  Biso   1.000  H
  H334     1.0000 0.46230  0.52520  0.05450  Biso   1.000  H
  H335     1.0000 0.03770  0.02520  0.44550  Biso   1.000  H
  H336     1.0000 0.53770  0.52520  0.44550  Biso   1.000  H
  C265     1.0000 0.00600  0.98480  0.87010  Biso   1.000  C
  C266     1.0000 0.50600  0.48480  0.87010  Biso   1.000  C
  C267     1.0000 0.99400  0.98480  0.62990  Biso   1.000  C
  C268     1.0000 0.49400  0.48480  0.62990  Biso   1.000  C
  C269     1.0000 0.99400  0.01520  0.12990  Biso   1.000  C
  C270     1.0000 0.49400  0.51520  0.12990  Biso   1.000  C
  C271     1.0000 0.00600  0.01520  0.37010  Biso   1.000  C
  C272     1.0000 0.50600  0.51520  0.37010  Biso   1.000  C
  H337     1.0000 0.99980  0.02600  0.83390  Biso   1.000  H
  H338     1.0000 0.49980  0.52600  0.83390  Biso   1.000  H
  H339     1.0000 0.00020  0.02600  0.66610  Biso   1.000  H
  H340     1.0000 0.50020  0.52600  0.66610  Biso   1.000  H
  H341     1.0000 0.00020  0.97400  0.16610  Biso   1.000  H
  H342     1.0000 0.50020  0.47400  0.16610  Biso   1.000  H
  H343     1.0000 0.99980  0.97400  0.33390  Biso   1.000  H
  H344     1.0000 0.49980  0.47400  0.33390  Biso   1.000  H
  H345     1.0000 0.99310  0.98030  0.88940  Biso   1.000  H
  H346     1.0000 0.49310  0.48030  0.88940  Biso   1.000  H
  H347     1.0000 0.00690  0.98030  0.61060  Biso   1.000  H
  H348     1.0000 0.50690  0.48030  0.61060  Biso   1.000  H
  H349     1.0000 0.00690  0.01970  0.11060  Biso   1.000  H
  H350     1.0000 0.50690  0.51970  0.11060  Biso   1.000  H
  H351     1.0000 0.99310  0.01970  0.38940  Biso   1.000  H
  H352     1.0000 0.49310  0.51970  0.38940  Biso   1.000  H
  C273     1.0000 0.01040  0.88810  0.84580  Biso   1.000  C
  C274     1.0000 0.51040  0.38810  0.84580  Biso   1.000  C
  C275     1.0000 0.98960  0.88810  0.65420  Biso   1.000  C
  C276     1.0000 0.48960  0.38810  0.65420  Biso   1.000  C
  C277     1.0000 0.98960  0.11190  0.15420  Biso   1.000  C
  C278     1.0000 0.48960  0.61190  0.15420  Biso   1.000  C
  C279     1.0000 0.01040  0.11190  0.34580  Biso   1.000  C
  C280     1.0000 0.51040  0.61190  0.34580  Biso   1.000  C
  H353     1.0000 0.99920  0.88130  0.80160  Biso   1.000  H
  H354     1.0000 0.49920  0.38130  0.80160  Biso   1.000  H
  H355     1.0000 0.00080  0.88130  0.69840  Biso   1.000  H
  H356     1.0000 0.50080  0.38130  0.69840  Biso   1.000  H
  H357     1.0000 0.00080  0.11870  0.19840  Biso   1.000  H
  H358     1.0000 0.50080  0.61870  0.19840  Biso   1.000  H
  H359     1.0000 0.99920  0.11870  0.30160  Biso   1.000  H
  H360     1.0000 0.49920  0.61870  0.30160  Biso   1.000  H
  H361     1.0000 0.02770  0.88420  0.84680  Biso   1.000  H
  H362     1.0000 0.52770  0.38420  0.84680  Biso   1.000  H
  H363     1.0000 0.97230  0.88420  0.65320  Biso   1.000  H
  H364     1.0000 0.47230  0.38420  0.65320  Biso   1.000  H
  H365     1.0000 0.97230  0.11580  0.15320  Biso   1.000  H
  H366     1.0000 0.47230  0.61580  0.15320  Biso   1.000  H
  H367     1.0000 0.02770  0.11580  0.34680  Biso   1.000  H
  H368     1.0000 0.52770  0.61580  0.34680  Biso   1.000  H
  C281     1.0000 0.88030  0.64330  0.90840  Biso   1.000  C
  C282     1.0000 0.38030  0.14330  0.90840  Biso   1.000  C
  C283     1.0000 0.11970  0.64330  0.59160  Biso   1.000  C
  C284     1.0000 0.61970  0.14330  0.59160  Biso   1.000  C
  C285     1.0000 0.11970  0.35670  0.09160  Biso   1.000  C
  C286     1.0000 0.61970  0.85670  0.09160  Biso   1.000  C
  C287     1.0000 0.88030  0.35670  0.40840  Biso   1.000  C
  C288     1.0000 0.38030  0.85670  0.40840  Biso   1.000  C
  H369     1.0000 0.88250  0.64470  0.86730  Biso   1.000  H
  H370     1.0000 0.38250  0.14470  0.86730  Biso   1.000  H
  H371     1.0000 0.11750  0.64470  0.63270  Biso   1.000  H
  H372     1.0000 0.61750  0.14470  0.63270  Biso   1.000  H
  H373     1.0000 0.11750  0.35530  0.13270  Biso   1.000  H
  H374     1.0000 0.61750  0.85530  0.13270  Biso   1.000  H
  H375     1.0000 0.88250  0.35530  0.36730  Biso   1.000  H
  H376     1.0000 0.38250  0.85530  0.36730  Biso   1.000  H
  H377     1.0000 0.87840  0.70610  0.91990  Biso   1.000  H
  H378     1.0000 0.37840  0.20610  0.91990  Biso   1.000  H
  H379     1.0000 0.12160  0.70610  0.58010  Biso   1.000  H
  H380     1.0000 0.62160  0.20610  0.58010  Biso   1.000  H
  H381     1.0000 0.12160  0.29390  0.08010  Biso   1.000  H
  H382     1.0000 0.62160  0.79390  0.08010  Biso   1.000  H
  H383     1.0000 0.87840  0.29390  0.41990  Biso   1.000  H
  H384     1.0000 0.37840  0.79390  0.41990  Biso   1.000  H
  C289     1.0000 0.85880  0.59940  0.90100  Biso   1.000  C
  C290     1.0000 0.35880  0.09940  0.90100  Biso   1.000  C
  C291     1.0000 0.14120  0.59940  0.59900  Biso   1.000  C
  C292     1.0000 0.64120  0.09940  0.59900  Biso   1.000  C
  C293     1.0000 0.14120  0.40060  0.09900  Biso   1.000  C
  C294     1.0000 0.64120  0.90060  0.09900  Biso   1.000  C
  C295     1.0000 0.85880  0.40060  0.40100  Biso   1.000  C
  C296     1.0000 0.35880  0.90060  0.40100  Biso   1.000  C
  H385     1.0000 0.86050  0.53730  0.88770  Biso   1.000  H
  H386     1.0000 0.36050  0.03730  0.88770  Biso   1.000  H
  H387     1.0000 0.13950  0.53730  0.61230  Biso   1.000  H
  H388     1.0000 0.63950  0.03730  0.61230  Biso   1.000  H
  H389     1.0000 0.13950  0.46270  0.11230  Biso   1.000  H
  H390     1.0000 0.63950  0.96270  0.11230  Biso   1.000  H
  H391     1.0000 0.86050  0.46270  0.38770  Biso   1.000  H
  H392     1.0000 0.36050  0.96270  0.38770  Biso   1.000  H
  H393     1.0000 0.85700  0.59570  0.94250  Biso   1.000  H
  H394     1.0000 0.35700  0.09570  0.94250  Biso   1.000  H
  H395     1.0000 0.14300  0.59570  0.55750  Biso   1.000  H
  H396     1.0000 0.64300  0.09570  0.55750  Biso   1.000  H
  H397     1.0000 0.14300  0.40430  0.05750  Biso   1.000  H
  H398     1.0000 0.64300  0.90430  0.05750  Biso   1.000  H
  H399     1.0000 0.85700  0.40430  0.44250  Biso   1.000  H
  H400     1.0000 0.35700  0.90430  0.44250  Biso   1.000  H
  C297     1.0000 0.83360  0.64060  0.85250  Biso   1.000  C
  C298     1.0000 0.33360  0.14060  0.85250  Biso   1.000  C
  C299     1.0000 0.16640  0.64060  0.64750  Biso   1.000  C
  C300     1.0000 0.66640  0.14060  0.64750  Biso   1.000  C
  C301     1.0000 0.16640  0.35940  0.14750  Biso   1.000  C
  C302     1.0000 0.66640  0.85940  0.14750  Biso   1.000  C
  C303     1.0000 0.83360  0.35940  0.35250  Biso   1.000  C
  C304     1.0000 0.33360  0.85940  0.35250  Biso   1.000  C
  H401     1.0000 0.83530  0.70660  0.85290  Biso   1.000  H
  H402     1.0000 0.33530  0.20660  0.85290  Biso   1.000  H
  H403     1.0000 0.16470  0.70660  0.64710  Biso   1.000  H
  H404     1.0000 0.66470  0.20660  0.64710  Biso   1.000  H
  H405     1.0000 0.16470  0.29340  0.14710  Biso   1.000  H
  H406     1.0000 0.66470  0.79340  0.14710  Biso   1.000  H
  H407     1.0000 0.83530  0.29340  0.35290  Biso   1.000  H
  H408     1.0000 0.33530  0.79340  0.35290  Biso   1.000  H
  H409     1.0000 0.81990  0.62620  0.86760  Biso   1.000  H
  H410     1.0000 0.31990  0.12620  0.86760  Biso   1.000  H
  H411     1.0000 0.18010  0.62620  0.63240  Biso   1.000  H
  H412     1.0000 0.68010  0.12620  0.63240  Biso   1.000  H
  H413     1.0000 0.18010  0.37380  0.13240  Biso   1.000  H
  H414     1.0000 0.68010  0.87380  0.13240  Biso   1.000  H
  H415     1.0000 0.81990  0.37380  0.36760  Biso   1.000  H
  H416     1.0000 0.31990  0.87380  0.36760  Biso   1.000  H
  C305     1.0000 0.82650  0.60930  0.78690  Biso   1.000  C
  C306     1.0000 0.32650  0.10930  0.78690  Biso   1.000  C
  C307     1.0000 0.17350  0.60930  0.71310  Biso   1.000  C
  C308     1.0000 0.67350  0.10930  0.71310  Biso   1.000  C
  C309     1.0000 0.17350  0.39070  0.21310  Biso   1.000  C
  C310     1.0000 0.67350  0.89070  0.21310  Biso   1.000  C
  C311     1.0000 0.82650  0.39070  0.28690  Biso   1.000  C
  C312     1.0000 0.32650  0.89070  0.28690  Biso   1.000  C
  H417     1.0000 0.82660  0.54300  0.78620  Biso   1.000  H
  H418     1.0000 0.32660  0.04300  0.78620  Biso   1.000  H
  H419     1.0000 0.17340  0.54300  0.71380  Biso   1.000  H
  H420     1.0000 0.67340  0.04300  0.71380  Biso   1.000  H
  H421     1.0000 0.17340  0.45700  0.21380  Biso   1.000  H
  H422     1.0000 0.67340  0.95700  0.21380  Biso   1.000  H
  H423     1.0000 0.82660  0.45700  0.28620  Biso   1.000  H
  H424     1.0000 0.32660  0.95700  0.28620  Biso   1.000  H
  H425     1.0000 0.83890  0.63080  0.76920  Biso   1.000  H
  H426     1.0000 0.33890  0.13080  0.76920  Biso   1.000  H
  H427     1.0000 0.16110  0.63080  0.73080  Biso   1.000  H
  H428     1.0000 0.66110  0.13080  0.73080  Biso   1.000  H
  H429     1.0000 0.16110  0.36920  0.23080  Biso   1.000  H
  H430     1.0000 0.66110  0.86920  0.23080  Biso   1.000  H
  H431     1.0000 0.83890  0.36920  0.26920  Biso   1.000  H
  H432     1.0000 0.33890  0.86920  0.26920  Biso   1.000  H
  O337     1.0000 0.87160  0.12980  0.75910  Biso   1.000  O
  O338     1.0000 0.37160  0.62980  0.75910  Biso   1.000  O
  O339     1.0000 0.12840  0.12980  0.74090  Biso   1.000  O
  O340     1.0000 0.62840  0.62980  0.74090  Biso   1.000  O
  O341     1.0000 0.12840  0.87020  0.24090  Biso   1.000  O
  O342     1.0000 0.62840  0.37020  0.24090  Biso   1.000  O
  O343     1.0000 0.87160  0.87020  0.25910  Biso   1.000  O
  O344     1.0000 0.37160  0.37020  0.25910  Biso   1.000  O
  C313     1.0000 0.73550  0.36300  0.62200  Biso   1.000  C
  C314     1.0000 0.23550  0.86300  0.62200  Biso   1.000  C
  C315     1.0000 0.26450  0.36300  0.87800  Biso   1.000  C
  C316     1.0000 0.76450  0.86300  0.87800  Biso   1.000  C
  C317     1.0000 0.26450  0.63700  0.37800  Biso   1.000  C
  C318     1.0000 0.76450  0.13700  0.37800  Biso   1.000  C
  C319     1.0000 0.73550  0.63700  0.12200  Biso   1.000  C
  C320     1.0000 0.23550  0.13700  0.12200  Biso   1.000  C
  H433     1.0000 0.75140  0.36170  0.65780  Biso   1.000  H
  H434     1.0000 0.25140  0.86170  0.65780  Biso   1.000  H
  H435     1.0000 0.24860  0.36170  0.84220  Biso   1.000  H
  H436     1.0000 0.74860  0.86170  0.84220  Biso   1.000  H
  H437     1.0000 0.24860  0.63830  0.34220  Biso   1.000  H
  H438     1.0000 0.74860  0.13830  0.34220  Biso   1.000  H
  H439     1.0000 0.75140  0.63830  0.15780  Biso   1.000  H
  H440     1.0000 0.25140  0.13830  0.15780  Biso   1.000  H
  H441     1.0000 0.72310  0.37990  0.64090  Biso   1.000  H
  H442     1.0000 0.22310  0.87990  0.64090  Biso   1.000  H
  H443     1.0000 0.27690  0.37990  0.85910  Biso   1.000  H
  H444     1.0000 0.77690  0.87990  0.85910  Biso   1.000  H
  H445     1.0000 0.27690  0.62010  0.35910  Biso   1.000  H
  H446     1.0000 0.77690  0.12010  0.35910  Biso   1.000  H
  H447     1.0000 0.72310  0.62010  0.14090  Biso   1.000  H
  H448     1.0000 0.22310  0.12010  0.14090  Biso   1.000  H
