data_image0
_cell_length_a       23.067
_cell_length_b       23.176
_cell_length_c       24.948
_cell_angle_alpha    90
_cell_angle_beta     90
_cell_angle_gamma    90

_symmetry_space_group_name_H-M    "P 1"
_symmetry_int_tables_number       1

loop_
  _symmetry_equiv_pos_as_xyz
  'x, y, z'

loop_
  _atom_site_label
  _atom_site_occupancy
  _atom_site_fract_x
  _atom_site_fract_y
  _atom_site_fract_z
  _atom_site_thermal_displace_type
  _atom_site_B_iso_or_equiv
  _atom_site_type_symbol
  V1       1.0000 0.24710  0.25441  0.96527  Biso   1.000  V
  V2       1.0000 0.75290  0.74559  0.96527  Biso   1.000  V
  V3       1.0000 0.24710  0.74559  0.03473  Biso   1.000  V
  V4       1.0000 0.75290  0.25441  0.03473  Biso   1.000  V
  V5       1.0000 0.74710  0.75441  0.46527  Biso   1.000  V
  V6       1.0000 0.25290  0.24559  0.46527  Biso   1.000  V
  V7       1.0000 0.74710  0.24559  0.53473  Biso   1.000  V
  V8       1.0000 0.25290  0.75441  0.53473  Biso   1.000  V
  V9       1.0000 0.27979  0.39878  0.92212  Biso   1.000  V
  V10      1.0000 0.72021  0.60122  0.92212  Biso   1.000  V
  V11      1.0000 0.27979  0.60122  0.07788  Biso   1.000  V
  V12      1.0000 0.72021  0.39878  0.07788  Biso   1.000  V
  V13      1.0000 0.77979  0.89878  0.42212  Biso   1.000  V
  V14      1.0000 0.22021  0.10122  0.42212  Biso   1.000  V
  V15      1.0000 0.77979  0.10122  0.57788  Biso   1.000  V
  V16      1.0000 0.22021  0.89878  0.57788  Biso   1.000  V
  V17      1.0000 0.10624  0.29127  0.91763  Biso   1.000  V
  V18      1.0000 0.89376  0.70873  0.91763  Biso   1.000  V
  V19      1.0000 0.10624  0.70873  0.08237  Biso   1.000  V
  V20      1.0000 0.89376  0.29127  0.08237  Biso   1.000  V
  V21      1.0000 0.60624  0.79127  0.41763  Biso   1.000  V
  V22      1.0000 0.39376  0.20873  0.41763  Biso   1.000  V
  V23      1.0000 0.60624  0.20873  0.58237  Biso   1.000  V
  V24      1.0000 0.39376  0.79127  0.58237  Biso   1.000  V
  V25      1.0000 0.21627  0.11736  0.90991  Biso   1.000  V
  V26      1.0000 0.78373  0.88264  0.90991  Biso   1.000  V
  V27      1.0000 0.21627  0.88264  0.09009  Biso   1.000  V
  V28      1.0000 0.78373  0.11736  0.09009  Biso   1.000  V
  V29      1.0000 0.71627  0.61736  0.40991  Biso   1.000  V
  V30      1.0000 0.28373  0.38264  0.40991  Biso   1.000  V
  V31      1.0000 0.71627  0.38264  0.59009  Biso   1.000  V
  V32      1.0000 0.28373  0.61736  0.59009  Biso   1.000  V
  V33      1.0000 0.32952  0.14615  0.83224  Biso   1.000  V
  V34      1.0000 0.67048  0.85385  0.83224  Biso   1.000  V
  V35      1.0000 0.32952  0.85385  0.16776  Biso   1.000  V
  V36      1.0000 0.67048  0.14615  0.16776  Biso   1.000  V
  V37      1.0000 0.82952  0.64615  0.33224  Biso   1.000  V
  V38      1.0000 0.17048  0.35385  0.33224  Biso   1.000  V
  V39      1.0000 0.82952  0.35385  0.66776  Biso   1.000  V
  V40      1.0000 0.17048  0.64615  0.66776  Biso   1.000  V
  V41      1.0000 0.38962  0.22653  0.91502  Biso   1.000  V
  V42      1.0000 0.61038  0.77347  0.91502  Biso   1.000  V
  V43      1.0000 0.38962  0.77347  0.08498  Biso   1.000  V
  V44      1.0000 0.61038  0.22653  0.08498  Biso   1.000  V
  V45      1.0000 0.88962  0.72653  0.41502  Biso   1.000  V
  V46      1.0000 0.11038  0.27347  0.41502  Biso   1.000  V
  V47      1.0000 0.88962  0.27347  0.58498  Biso   1.000  V
  V48      1.0000 0.11038  0.72653  0.58498  Biso   1.000  V
  V49      1.0000 0.37486  0.34560  0.84089  Biso   1.000  V
  V50      1.0000 0.62514  0.65440  0.84089  Biso   1.000  V
  V51      1.0000 0.37486  0.65440  0.15911  Biso   1.000  V
  V52      1.0000 0.62514  0.34560  0.15911  Biso   1.000  V
  V53      1.0000 0.87486  0.84560  0.34089  Biso   1.000  V
  V54      1.0000 0.12514  0.15440  0.34089  Biso   1.000  V
  V55      1.0000 0.87486  0.15440  0.65911  Biso   1.000  V
  V56      1.0000 0.12514  0.84560  0.65911  Biso   1.000  V
  V57      1.0000 0.25302  0.27254  0.78889  Biso   1.000  V
  V58      1.0000 0.74698  0.72746  0.78889  Biso   1.000  V
  V59      1.0000 0.25302  0.72746  0.21111  Biso   1.000  V
  V60      1.0000 0.74698  0.27254  0.21111  Biso   1.000  V
  V61      1.0000 0.75302  0.77254  0.28889  Biso   1.000  V
  V62      1.0000 0.24698  0.22746  0.28889  Biso   1.000  V
  V63      1.0000 0.75302  0.22746  0.71111  Biso   1.000  V
  V64      1.0000 0.24698  0.77254  0.71111  Biso   1.000  V
  V65      1.0000 0.17184  0.38986  0.84134  Biso   1.000  V
  V66      1.0000 0.82816  0.61014  0.84134  Biso   1.000  V
  V67      1.0000 0.17184  0.61014  0.15866  Biso   1.000  V
  V68      1.0000 0.82816  0.38986  0.15866  Biso   1.000  V
  V69      1.0000 0.67184  0.88986  0.34134  Biso   1.000  V
  V70      1.0000 0.32816  0.11014  0.34134  Biso   1.000  V
  V71      1.0000 0.67184  0.11014  0.65866  Biso   1.000  V
  V72      1.0000 0.32816  0.88986  0.65866  Biso   1.000  V
  V73      1.0000 0.13227  0.19079  0.83491  Biso   1.000  V
  V74      1.0000 0.86773  0.80921  0.83491  Biso   1.000  V
  V75      1.0000 0.13227  0.80921  0.16509  Biso   1.000  V
  V76      1.0000 0.86773  0.19079  0.16509  Biso   1.000  V
  V77      1.0000 0.63227  0.69079  0.33491  Biso   1.000  V
  V78      1.0000 0.36773  0.30921  0.33491  Biso   1.000  V
  V79      1.0000 0.63227  0.30921  0.66509  Biso   1.000  V
  V80      1.0000 0.36773  0.69079  0.66509  Biso   1.000  V
  Cu1      1.0000 0.25138  0.24478  0.12192  Biso   1.000  Cu
  Cu2      1.0000 0.74862  0.75522  0.12192  Biso   1.000  Cu
  Cu3      1.0000 0.25138  0.75522  0.87808  Biso   1.000  Cu
  Cu4      1.0000 0.74862  0.24478  0.87808  Biso   1.000  Cu
  Cu5      1.0000 0.75138  0.74478  0.62192  Biso   1.000  Cu
  Cu6      1.0000 0.24862  0.25522  0.62192  Biso   1.000  Cu
  Cu7      1.0000 0.75138  0.25522  0.37808  Biso   1.000  Cu
  Cu8      1.0000 0.24862  0.74478  0.37808  Biso   1.000  Cu
  Cu9      1.0000 0.51606  0.43129  0.77261  Biso   1.000  Cu
  Cu10     1.0000 0.48394  0.56871  0.77261  Biso   1.000  Cu
  Cu11     1.0000 0.51606  0.56871  0.22739  Biso   1.000  Cu
  Cu12     1.0000 0.48394  0.43129  0.22739  Biso   1.000  Cu
  Cu13     1.0000 0.01606  0.93129  0.27261  Biso   1.000  Cu
  Cu14     1.0000 0.98394  0.06871  0.27261  Biso   1.000  Cu
  Cu15     1.0000 0.01606  0.06871  0.72739  Biso   1.000  Cu
  Cu16     1.0000 0.98394  0.93129  0.72739  Biso   1.000  Cu
  Cu17     1.0000 0.06800  0.51963  0.77153  Biso   1.000  Cu
  Cu18     1.0000 0.93200  0.48037  0.77153  Biso   1.000  Cu
  Cu19     1.0000 0.06800  0.48037  0.22847  Biso   1.000  Cu
  Cu20     1.0000 0.93200  0.51963  0.22847  Biso   1.000  Cu
  Cu21     1.0000 0.56800  0.01963  0.27153  Biso   1.000  Cu
  Cu22     1.0000 0.43200  0.98037  0.27153  Biso   1.000  Cu
  Cu23     1.0000 0.56800  0.98037  0.72847  Biso   1.000  Cu
  Cu24     1.0000 0.43200  0.01963  0.72847  Biso   1.000  Cu
  C1       1.0000 0.37140  0.25530  0.16490  Biso   1.000  C
  C2       1.0000 0.62860  0.74470  0.16490  Biso   1.000  C
  C3       1.0000 0.37140  0.74470  0.83510  Biso   1.000  C
  C4       1.0000 0.62860  0.25530  0.83510  Biso   1.000  C
  C5       1.0000 0.87140  0.75530  0.66490  Biso   1.000  C
  C6       1.0000 0.12860  0.24470  0.66490  Biso   1.000  C
  C7       1.0000 0.87140  0.24470  0.33510  Biso   1.000  C
  C8       1.0000 0.12860  0.75530  0.33510  Biso   1.000  C
  H1       1.0000 0.35800  0.27130  0.19670  Biso   1.000  H
  H2       1.0000 0.64200  0.72870  0.19670  Biso   1.000  H
  H3       1.0000 0.35800  0.72870  0.80330  Biso   1.000  H
  H4       1.0000 0.64200  0.27130  0.80330  Biso   1.000  H
  H5       1.0000 0.85800  0.77130  0.69670  Biso   1.000  H
  H6       1.0000 0.14200  0.22870  0.69670  Biso   1.000  H
  H7       1.0000 0.85800  0.22870  0.30330  Biso   1.000  H
  H8       1.0000 0.14200  0.77130  0.30330  Biso   1.000  H
  C9       1.0000 0.37450  0.22220  0.08390  Biso   1.000  C
  C10      1.0000 0.62550  0.77780  0.08390  Biso   1.000  C
  C11      1.0000 0.37450  0.77780  0.91610  Biso   1.000  C
  C12      1.0000 0.62550  0.22220  0.91610  Biso   1.000  C
  C13      1.0000 0.87450  0.72220  0.58390  Biso   1.000  C
  C14      1.0000 0.12550  0.27780  0.58390  Biso   1.000  C
  C15      1.0000 0.87450  0.27780  0.41610  Biso   1.000  C
  C16      1.0000 0.12550  0.72220  0.41610  Biso   1.000  C
  H9       1.0000 0.36340  0.21030  0.04980  Biso   1.000  H
  H10      1.0000 0.63660  0.78970  0.04980  Biso   1.000  H
  H11      1.0000 0.36340  0.78970  0.95020  Biso   1.000  H
  H12      1.0000 0.63660  0.21030  0.95020  Biso   1.000  H
  H13      1.0000 0.86340  0.71030  0.54980  Biso   1.000  H
  H14      1.0000 0.13660  0.28970  0.54980  Biso   1.000  H
  H15      1.0000 0.86340  0.28970  0.45020  Biso   1.000  H
  H16      1.0000 0.13660  0.71030  0.45020  Biso   1.000  H
  C17      1.0000 0.42970  0.22430  0.10240  Biso   1.000  C
  C18      1.0000 0.57030  0.77570  0.10240  Biso   1.000  C
  C19      1.0000 0.42970  0.77570  0.89760  Biso   1.000  C
  C20      1.0000 0.57030  0.22430  0.89760  Biso   1.000  C
  C21      1.0000 0.92970  0.72430  0.60240  Biso   1.000  C
  C22      1.0000 0.07030  0.27570  0.60240  Biso   1.000  C
  C23      1.0000 0.92970  0.27570  0.39760  Biso   1.000  C
  C24      1.0000 0.07030  0.72430  0.39760  Biso   1.000  C
  H17      1.0000 0.46300  0.21420  0.08360  Biso   1.000  H
  H18      1.0000 0.53700  0.78580  0.08360  Biso   1.000  H
  H19      1.0000 0.46300  0.78580  0.91640  Biso   1.000  H
  H20      1.0000 0.53700  0.21420  0.91640  Biso   1.000  H
  H21      1.0000 0.96300  0.71420  0.58360  Biso   1.000  H
  H22      1.0000 0.03700  0.28580  0.58360  Biso   1.000  H
  H23      1.0000 0.96300  0.28580  0.41640  Biso   1.000  H
  H24      1.0000 0.03700  0.71420  0.41640  Biso   1.000  H
  C25      1.0000 0.47530  0.25370  0.19080  Biso   1.000  C
  C26      1.0000 0.52470  0.74630  0.19080  Biso   1.000  C
  C27      1.0000 0.47530  0.74630  0.80920  Biso   1.000  C
  C28      1.0000 0.52470  0.25370  0.80920  Biso   1.000  C
  C29      1.0000 0.97530  0.75370  0.69080  Biso   1.000  C
  C30      1.0000 0.02470  0.24630  0.69080  Biso   1.000  C
  C31      1.0000 0.97530  0.24630  0.30920  Biso   1.000  C
  C32      1.0000 0.02470  0.75370  0.30920  Biso   1.000  C
  H25      1.0000 0.46700  0.28650  0.21360  Biso   1.000  H
  H26      1.0000 0.53300  0.71350  0.21360  Biso   1.000  H
  H27      1.0000 0.46700  0.71350  0.78640  Biso   1.000  H
  H28      1.0000 0.53300  0.28650  0.78640  Biso   1.000  H
  H29      1.0000 0.96700  0.78650  0.71360  Biso   1.000  H
  H30      1.0000 0.03300  0.21350  0.71360  Biso   1.000  H
  H31      1.0000 0.96700  0.21350  0.28640  Biso   1.000  H
  H32      1.0000 0.03300  0.78650  0.28640  Biso   1.000  H
  H33      1.0000 0.51000  0.26240  0.17030  Biso   1.000  H
  H34      1.0000 0.49000  0.73760  0.17030  Biso   1.000  H
  H35      1.0000 0.51000  0.73760  0.82970  Biso   1.000  H
  H36      1.0000 0.49000  0.26240  0.82970  Biso   1.000  H
  H37      1.0000 0.01000  0.76240  0.67030  Biso   1.000  H
  H38      1.0000 0.99000  0.23760  0.67030  Biso   1.000  H
  H39      1.0000 0.01000  0.23760  0.32970  Biso   1.000  H
  H40      1.0000 0.99000  0.76240  0.32970  Biso   1.000  H
  C33      1.0000 0.48570  0.20110  0.22480  Biso   1.000  C
  C34      1.0000 0.51430  0.79890  0.22480  Biso   1.000  C
  C35      1.0000 0.48570  0.79890  0.77520  Biso   1.000  C
  C36      1.0000 0.51430  0.20110  0.77520  Biso   1.000  C
  C37      1.0000 0.98570  0.70110  0.72480  Biso   1.000  C
  C38      1.0000 0.01430  0.29890  0.72480  Biso   1.000  C
  C39      1.0000 0.98570  0.29890  0.27520  Biso   1.000  C
  C40      1.0000 0.01430  0.70110  0.27520  Biso   1.000  C
  H41      1.0000 0.49170  0.16820  0.20140  Biso   1.000  H
  H42      1.0000 0.50830  0.83180  0.20140  Biso   1.000  H
  H43      1.0000 0.49170  0.83180  0.79860  Biso   1.000  H
  H44      1.0000 0.50830  0.16820  0.79860  Biso   1.000  H
  H45      1.0000 0.99170  0.66820  0.70140  Biso   1.000  H
  H46      1.0000 0.00830  0.33180  0.70140  Biso   1.000  H
  H47      1.0000 0.99170  0.33180  0.29860  Biso   1.000  H
  H48      1.0000 0.00830  0.66820  0.29860  Biso   1.000  H
  H49      1.0000 0.45110  0.19360  0.24580  Biso   1.000  H
  H50      1.0000 0.54890  0.80640  0.24580  Biso   1.000  H
  H51      1.0000 0.45110  0.80640  0.75420  Biso   1.000  H
  H52      1.0000 0.54890  0.19360  0.75420  Biso   1.000  H
  H53      1.0000 0.95110  0.69360  0.74580  Biso   1.000  H
  H54      1.0000 0.04890  0.30640  0.74580  Biso   1.000  H
  H55      1.0000 0.95110  0.30640  0.25420  Biso   1.000  H
  H56      1.0000 0.04890  0.69360  0.25420  Biso   1.000  H
  C41      1.0000 0.53830  0.20590  0.26350  Biso   1.000  C
  C42      1.0000 0.46170  0.79410  0.26350  Biso   1.000  C
  C43      1.0000 0.53830  0.79410  0.73650  Biso   1.000  C
  C44      1.0000 0.46170  0.20590  0.73650  Biso   1.000  C
  C45      1.0000 0.03830  0.70590  0.76350  Biso   1.000  C
  C46      1.0000 0.96170  0.29410  0.76350  Biso   1.000  C
  C47      1.0000 0.03830  0.29410  0.23650  Biso   1.000  C
  C48      1.0000 0.96170  0.70590  0.23650  Biso   1.000  C
  H57      1.0000 0.54240  0.17000  0.28320  Biso   1.000  H
  H58      1.0000 0.45760  0.83000  0.28320  Biso   1.000  H
  H59      1.0000 0.54240  0.83000  0.71680  Biso   1.000  H
  H60      1.0000 0.45760  0.17000  0.71680  Biso   1.000  H
  H61      1.0000 0.04240  0.67000  0.78320  Biso   1.000  H
  H62      1.0000 0.95760  0.33000  0.78320  Biso   1.000  H
  H63      1.0000 0.04240  0.33000  0.21680  Biso   1.000  H
  H64      1.0000 0.95760  0.67000  0.21680  Biso   1.000  H
  H65      1.0000 0.57330  0.21170  0.24270  Biso   1.000  H
  H66      1.0000 0.42670  0.78830  0.24270  Biso   1.000  H
  H67      1.0000 0.57330  0.78830  0.75730  Biso   1.000  H
  H68      1.0000 0.42670  0.21170  0.75730  Biso   1.000  H
  H69      1.0000 0.07330  0.71170  0.74270  Biso   1.000  H
  H70      1.0000 0.92670  0.28830  0.74270  Biso   1.000  H
  H71      1.0000 0.07330  0.28830  0.25730  Biso   1.000  H
  H72      1.0000 0.92670  0.71170  0.25730  Biso   1.000  H
  C49      1.0000 0.53200  0.25280  0.30120  Biso   1.000  C
  C50      1.0000 0.46800  0.74720  0.30120  Biso   1.000  C
  C51      1.0000 0.53200  0.74720  0.69880  Biso   1.000  C
  C52      1.0000 0.46800  0.25280  0.69880  Biso   1.000  C
  C53      1.0000 0.03200  0.75280  0.80120  Biso   1.000  C
  C54      1.0000 0.96800  0.24720  0.80120  Biso   1.000  C
  C55      1.0000 0.03200  0.24720  0.19880  Biso   1.000  C
  C56      1.0000 0.96800  0.75280  0.19880  Biso   1.000  C
  H73      1.0000 0.49420  0.25050  0.31810  Biso   1.000  H
  H74      1.0000 0.50580  0.74950  0.31810  Biso   1.000  H
  H75      1.0000 0.49420  0.74950  0.68190  Biso   1.000  H
  H76      1.0000 0.50580  0.25050  0.68190  Biso   1.000  H
  H77      1.0000 0.99420  0.75050  0.81810  Biso   1.000  H
  H78      1.0000 0.00580  0.24950  0.81810  Biso   1.000  H
  H79      1.0000 0.99420  0.24950  0.18190  Biso   1.000  H
  H80      1.0000 0.00580  0.75050  0.18190  Biso   1.000  H
  H81      1.0000 0.53420  0.28930  0.28210  Biso   1.000  H
  H82      1.0000 0.46580  0.71070  0.28210  Biso   1.000  H
  H83      1.0000 0.53420  0.71070  0.71790  Biso   1.000  H
  H84      1.0000 0.46580  0.28930  0.71790  Biso   1.000  H
  H85      1.0000 0.03420  0.78930  0.78210  Biso   1.000  H
  H86      1.0000 0.96580  0.21070  0.78210  Biso   1.000  H
  H87      1.0000 0.03420  0.21070  0.21790  Biso   1.000  H
  H88      1.0000 0.96580  0.78930  0.21790  Biso   1.000  H
  C57      1.0000 0.63490  0.26040  0.33230  Biso   1.000  C
  C58      1.0000 0.36510  0.73960  0.33230  Biso   1.000  C
  C59      1.0000 0.63490  0.73960  0.66770  Biso   1.000  C
  C60      1.0000 0.36510  0.26040  0.66770  Biso   1.000  C
  C61      1.0000 0.13490  0.76040  0.83230  Biso   1.000  C
  C62      1.0000 0.86510  0.23960  0.83230  Biso   1.000  C
  C63      1.0000 0.13490  0.23960  0.16770  Biso   1.000  C
  C64      1.0000 0.86510  0.76040  0.16770  Biso   1.000  C
  H89      1.0000 0.65000  0.27090  0.29910  Biso   1.000  H
  H90      1.0000 0.35000  0.72910  0.29910  Biso   1.000  H
  H91      1.0000 0.65000  0.72910  0.70090  Biso   1.000  H
  H92      1.0000 0.35000  0.27090  0.70090  Biso   1.000  H
  H93      1.0000 0.15000  0.77090  0.79910  Biso   1.000  H
  H94      1.0000 0.85000  0.22910  0.79910  Biso   1.000  H
  H95      1.0000 0.15000  0.22910  0.20090  Biso   1.000  H
  H96      1.0000 0.85000  0.77090  0.20090  Biso   1.000  H
  C65      1.0000 0.62690  0.23960  0.41610  Biso   1.000  C
  C66      1.0000 0.37310  0.76040  0.41610  Biso   1.000  C
  C67      1.0000 0.62690  0.76040  0.58390  Biso   1.000  C
  C68      1.0000 0.37310  0.23960  0.58390  Biso   1.000  C
  C69      1.0000 0.12690  0.73960  0.91610  Biso   1.000  C
  C70      1.0000 0.87310  0.26040  0.91610  Biso   1.000  C
  C71      1.0000 0.12690  0.26040  0.08390  Biso   1.000  C
  C72      1.0000 0.87310  0.73960  0.08390  Biso   1.000  C
  H97      1.0000 0.63670  0.23360  0.45190  Biso   1.000  H
  H98      1.0000 0.36330  0.76640  0.45190  Biso   1.000  H
  H99      1.0000 0.63670  0.76640  0.54810  Biso   1.000  H
  H100     1.0000 0.36330  0.23360  0.54810  Biso   1.000  H
  H101     1.0000 0.13670  0.73360  0.95190  Biso   1.000  H
  H102     1.0000 0.86330  0.26640  0.95190  Biso   1.000  H
  H103     1.0000 0.13670  0.26640  0.04810  Biso   1.000  H
  H104     1.0000 0.86330  0.73360  0.04810  Biso   1.000  H
  C73      1.0000 0.57310  0.23700  0.39610  Biso   1.000  C
  C74      1.0000 0.42690  0.76300  0.39610  Biso   1.000  C
  C75      1.0000 0.57310  0.76300  0.60390  Biso   1.000  C
  C76      1.0000 0.42690  0.23700  0.60390  Biso   1.000  C
  C77      1.0000 0.07310  0.73700  0.89610  Biso   1.000  C
  C78      1.0000 0.92690  0.26300  0.89610  Biso   1.000  C
  C79      1.0000 0.07310  0.26300  0.10390  Biso   1.000  C
  C80      1.0000 0.92690  0.73700  0.10390  Biso   1.000  C
  H105     1.0000 0.53940  0.22760  0.41460  Biso   1.000  H
  H106     1.0000 0.46060  0.77240  0.41460  Biso   1.000  H
  H107     1.0000 0.53940  0.77240  0.58540  Biso   1.000  H
  H108     1.0000 0.46060  0.22760  0.58540  Biso   1.000  H
  H109     1.0000 0.03940  0.72760  0.91460  Biso   1.000  H
  H110     1.0000 0.96060  0.27240  0.91460  Biso   1.000  H
  H111     1.0000 0.03940  0.27240  0.08540  Biso   1.000  H
  H112     1.0000 0.96060  0.72760  0.08540  Biso   1.000  H
  C81      1.0000 0.24620  0.36120  0.17350  Biso   1.000  C
  C82      1.0000 0.75380  0.63880  0.17350  Biso   1.000  C
  C83      1.0000 0.24620  0.63880  0.82650  Biso   1.000  C
  C84      1.0000 0.75380  0.36120  0.82650  Biso   1.000  C
  C85      1.0000 0.74620  0.86120  0.67350  Biso   1.000  C
  C86      1.0000 0.25380  0.13880  0.67350  Biso   1.000  C
  C87      1.0000 0.74620  0.13880  0.32650  Biso   1.000  C
  C88      1.0000 0.25380  0.86120  0.32650  Biso   1.000  C
  H113     1.0000 0.23470  0.34570  0.20620  Biso   1.000  H
  H114     1.0000 0.76530  0.65430  0.20620  Biso   1.000  H
  H115     1.0000 0.23470  0.65430  0.79380  Biso   1.000  H
  H116     1.0000 0.76530  0.34570  0.79380  Biso   1.000  H
  H117     1.0000 0.73470  0.84570  0.70620  Biso   1.000  H
  H118     1.0000 0.26530  0.15430  0.70620  Biso   1.000  H
  H119     1.0000 0.73470  0.15430  0.29380  Biso   1.000  H
  H120     1.0000 0.26530  0.84570  0.29380  Biso   1.000  H
  C89      1.0000 0.26870  0.36980  0.09120  Biso   1.000  C
  C90      1.0000 0.73130  0.63020  0.09120  Biso   1.000  C
  C91      1.0000 0.26870  0.63020  0.90880  Biso   1.000  C
  C92      1.0000 0.73130  0.36980  0.90880  Biso   1.000  C
  C93      1.0000 0.76870  0.86980  0.59120  Biso   1.000  C
  C94      1.0000 0.23130  0.13020  0.59120  Biso   1.000  C
  C95      1.0000 0.76870  0.13020  0.40880  Biso   1.000  C
  C96      1.0000 0.23130  0.86980  0.40880  Biso   1.000  C
  H121     1.0000 0.27540  0.36110  0.05530  Biso   1.000  H
  H122     1.0000 0.72460  0.63890  0.05530  Biso   1.000  H
  H123     1.0000 0.27540  0.63890  0.94470  Biso   1.000  H
  H124     1.0000 0.72460  0.36110  0.94470  Biso   1.000  H
  H125     1.0000 0.77540  0.86110  0.55530  Biso   1.000  H
  H126     1.0000 0.22460  0.13890  0.55530  Biso   1.000  H
  H127     1.0000 0.77540  0.13890  0.44470  Biso   1.000  H
  H128     1.0000 0.22460  0.86110  0.44470  Biso   1.000  H
  C97      1.0000 0.27080  0.42360  0.11230  Biso   1.000  C
  C98      1.0000 0.72920  0.57640  0.11230  Biso   1.000  C
  C99      1.0000 0.27080  0.57640  0.88770  Biso   1.000  C
  C100     1.0000 0.72920  0.42360  0.88770  Biso   1.000  C
  C101     1.0000 0.77080  0.92360  0.61230  Biso   1.000  C
  C102     1.0000 0.22920  0.07640  0.61230  Biso   1.000  C
  C103     1.0000 0.77080  0.07640  0.38770  Biso   1.000  C
  C104     1.0000 0.22920  0.92360  0.38770  Biso   1.000  C
  H129     1.0000 0.28070  0.45750  0.09450  Biso   1.000  H
  H130     1.0000 0.71930  0.54250  0.09450  Biso   1.000  H
  H131     1.0000 0.28070  0.54250  0.90550  Biso   1.000  H
  H132     1.0000 0.71930  0.45750  0.90550  Biso   1.000  H
  H133     1.0000 0.78070  0.95750  0.59450  Biso   1.000  H
  H134     1.0000 0.21930  0.04250  0.59450  Biso   1.000  H
  H135     1.0000 0.78070  0.04250  0.40550  Biso   1.000  H
  H136     1.0000 0.21930  0.95750  0.40550  Biso   1.000  H
  C105     1.0000 0.25300  0.46330  0.20460  Biso   1.000  C
  C106     1.0000 0.74700  0.53670  0.20460  Biso   1.000  C
  C107     1.0000 0.25300  0.53670  0.79540  Biso   1.000  C
  C108     1.0000 0.74700  0.46330  0.79540  Biso   1.000  C
  C109     1.0000 0.75300  0.96330  0.70460  Biso   1.000  C
  C110     1.0000 0.24700  0.03670  0.70460  Biso   1.000  C
  C111     1.0000 0.75300  0.03670  0.29540  Biso   1.000  C
  C112     1.0000 0.24700  0.96330  0.29540  Biso   1.000  C
  H137     1.0000 0.21430  0.46470  0.21970  Biso   1.000  H
  H138     1.0000 0.78570  0.53530  0.21970  Biso   1.000  H
  H139     1.0000 0.21430  0.53530  0.78030  Biso   1.000  H
  H140     1.0000 0.78570  0.46470  0.78030  Biso   1.000  H
  H141     1.0000 0.71430  0.96470  0.71970  Biso   1.000  H
  H142     1.0000 0.28570  0.03530  0.71970  Biso   1.000  H
  H143     1.0000 0.71430  0.03530  0.28030  Biso   1.000  H
  H144     1.0000 0.28570  0.96470  0.28030  Biso   1.000  H
  H145     1.0000 0.26060  0.50020  0.18760  Biso   1.000  H
  H146     1.0000 0.73940  0.49980  0.18760  Biso   1.000  H
  H147     1.0000 0.26060  0.49980  0.81240  Biso   1.000  H
  H148     1.0000 0.73940  0.50020  0.81240  Biso   1.000  H
  H149     1.0000 0.76060  0.00020  0.68760  Biso   1.000  H
  H150     1.0000 0.23940  0.99980  0.68760  Biso   1.000  H
  H151     1.0000 0.76060  0.99980  0.31240  Biso   1.000  H
  H152     1.0000 0.23940  0.00020  0.31240  Biso   1.000  H
  C113     1.0000 0.29570  0.45440  0.24870  Biso   1.000  C
  C114     1.0000 0.70430  0.54560  0.24870  Biso   1.000  C
  C115     1.0000 0.29570  0.54560  0.75130  Biso   1.000  C
  C116     1.0000 0.70430  0.45440  0.75130  Biso   1.000  C
  C117     1.0000 0.79570  0.95440  0.74870  Biso   1.000  C
  C118     1.0000 0.20430  0.04560  0.74870  Biso   1.000  C
  C119     1.0000 0.79570  0.04560  0.25130  Biso   1.000  C
  C120     1.0000 0.20430  0.95440  0.25130  Biso   1.000  C
  H153     1.0000 0.33370  0.44720  0.23340  Biso   1.000  H
  H154     1.0000 0.66630  0.55280  0.23340  Biso   1.000  H
  H155     1.0000 0.33370  0.55280  0.76660  Biso   1.000  H
  H156     1.0000 0.66630  0.44720  0.76660  Biso   1.000  H
  H157     1.0000 0.83370  0.94720  0.73340  Biso   1.000  H
  H158     1.0000 0.16630  0.05280  0.73340  Biso   1.000  H
  H159     1.0000 0.83370  0.05280  0.26660  Biso   1.000  H
  H160     1.0000 0.16630  0.94720  0.26660  Biso   1.000  H
  H161     1.0000 0.28460  0.42070  0.26940  Biso   1.000  H
  H162     1.0000 0.71540  0.57930  0.26940  Biso   1.000  H
  H163     1.0000 0.28460  0.57930  0.73060  Biso   1.000  H
  H164     1.0000 0.71540  0.42070  0.73060  Biso   1.000  H
  H165     1.0000 0.78460  0.92070  0.76940  Biso   1.000  H
  H166     1.0000 0.21540  0.07930  0.76940  Biso   1.000  H
  H167     1.0000 0.78460  0.07930  0.23060  Biso   1.000  H
  H168     1.0000 0.21540  0.92070  0.23060  Biso   1.000  H
  C121     1.0000 0.29870  0.50750  0.28600  Biso   1.000  C
  C122     1.0000 0.70130  0.49250  0.28600  Biso   1.000  C
  C123     1.0000 0.29870  0.49250  0.71400  Biso   1.000  C
  C124     1.0000 0.70130  0.50750  0.71400  Biso   1.000  C
  C125     1.0000 0.79870  0.00750  0.78600  Biso   1.000  C
  C126     1.0000 0.20130  0.99250  0.78600  Biso   1.000  C
  C127     1.0000 0.79870  0.99250  0.21400  Biso   1.000  C
  C128     1.0000 0.20130  0.00750  0.21400  Biso   1.000  C
  H169     1.0000 0.32780  0.50070  0.31330  Biso   1.000  H
  H170     1.0000 0.67220  0.49930  0.31330  Biso   1.000  H
  H171     1.0000 0.32780  0.49930  0.68670  Biso   1.000  H
  H172     1.0000 0.67220  0.50070  0.68670  Biso   1.000  H
  H173     1.0000 0.82780  0.00070  0.81330  Biso   1.000  H
  H174     1.0000 0.17220  0.99930  0.81330  Biso   1.000  H
  H175     1.0000 0.82780  0.99930  0.18670  Biso   1.000  H
  H176     1.0000 0.17220  0.00070  0.18670  Biso   1.000  H
  H177     1.0000 0.31090  0.54080  0.26520  Biso   1.000  H
  H178     1.0000 0.68910  0.45920  0.26520  Biso   1.000  H
  H179     1.0000 0.31090  0.45920  0.73480  Biso   1.000  H
  H180     1.0000 0.68910  0.54080  0.73480  Biso   1.000  H
  H181     1.0000 0.81090  0.04080  0.76520  Biso   1.000  H
  H182     1.0000 0.18910  0.95920  0.76520  Biso   1.000  H
  H183     1.0000 0.81090  0.95920  0.23480  Biso   1.000  H
  H184     1.0000 0.18910  0.04080  0.23480  Biso   1.000  H
  C129     1.0000 0.24180  0.52120  0.31290  Biso   1.000  C
  C130     1.0000 0.75820  0.47880  0.31290  Biso   1.000  C
  C131     1.0000 0.24180  0.47880  0.68710  Biso   1.000  C
  C132     1.0000 0.75820  0.52120  0.68710  Biso   1.000  C
  C133     1.0000 0.74180  0.02120  0.81290  Biso   1.000  C
  C134     1.0000 0.25820  0.97880  0.81290  Biso   1.000  C
  C135     1.0000 0.74180  0.97880  0.18710  Biso   1.000  C
  C136     1.0000 0.25820  0.02120  0.18710  Biso   1.000  C
  H185     1.0000 0.21330  0.53140  0.28590  Biso   1.000  H
  H186     1.0000 0.78670  0.46860  0.28590  Biso   1.000  H
  H187     1.0000 0.21330  0.46860  0.71410  Biso   1.000  H
  H188     1.0000 0.78670  0.53140  0.71410  Biso   1.000  H
  H189     1.0000 0.71330  0.03140  0.78590  Biso   1.000  H
  H190     1.0000 0.28670  0.96860  0.78590  Biso   1.000  H
  H191     1.0000 0.71330  0.96860  0.21410  Biso   1.000  H
  H192     1.0000 0.28670  0.03140  0.21410  Biso   1.000  H
  H193     1.0000 0.22790  0.48710  0.33160  Biso   1.000  H
  H194     1.0000 0.77210  0.51290  0.33160  Biso   1.000  H
  H195     1.0000 0.22790  0.51290  0.66840  Biso   1.000  H
  H196     1.0000 0.77210  0.48710  0.66840  Biso   1.000  H
  H197     1.0000 0.72790  0.98710  0.83160  Biso   1.000  H
  H198     1.0000 0.27210  0.01290  0.83160  Biso   1.000  H
  H199     1.0000 0.72790  0.01290  0.16840  Biso   1.000  H
  H200     1.0000 0.27210  0.98710  0.16840  Biso   1.000  H
  C137     1.0000 0.23910  0.62440  0.33910  Biso   1.000  C
  C138     1.0000 0.76090  0.37560  0.33910  Biso   1.000  C
  C139     1.0000 0.23910  0.37560  0.66090  Biso   1.000  C
  C140     1.0000 0.76090  0.62440  0.66090  Biso   1.000  C
  C141     1.0000 0.73910  0.12440  0.83910  Biso   1.000  C
  C142     1.0000 0.26090  0.87560  0.83910  Biso   1.000  C
  C143     1.0000 0.73910  0.87560  0.16090  Biso   1.000  C
  C144     1.0000 0.26090  0.12440  0.16090  Biso   1.000  C
  H201     1.0000 0.22640  0.63720  0.30580  Biso   1.000  H
  H202     1.0000 0.77360  0.36280  0.30580  Biso   1.000  H
  H203     1.0000 0.22640  0.36280  0.69420  Biso   1.000  H
  H204     1.0000 0.77360  0.63720  0.69420  Biso   1.000  H
  H205     1.0000 0.72640  0.13720  0.80580  Biso   1.000  H
  H206     1.0000 0.27360  0.86280  0.80580  Biso   1.000  H
  H207     1.0000 0.72640  0.86280  0.19420  Biso   1.000  H
  H208     1.0000 0.27360  0.13720  0.19420  Biso   1.000  H
  C145     1.0000 0.26680  0.56760  0.40370  Biso   1.000  C
  C146     1.0000 0.73320  0.43240  0.40370  Biso   1.000  C
  C147     1.0000 0.26680  0.43240  0.59630  Biso   1.000  C
  C148     1.0000 0.73320  0.56760  0.59630  Biso   1.000  C
  C149     1.0000 0.76680  0.06760  0.90370  Biso   1.000  C
  C150     1.0000 0.23320  0.93240  0.90370  Biso   1.000  C
  C151     1.0000 0.76680  0.93240  0.09630  Biso   1.000  C
  C152     1.0000 0.23320  0.06760  0.09630  Biso   1.000  C
  H209     1.0000 0.27640  0.53470  0.42320  Biso   1.000  H
  H210     1.0000 0.72360  0.46530  0.42320  Biso   1.000  H
  H211     1.0000 0.27640  0.46530  0.57680  Biso   1.000  H
  H212     1.0000 0.72360  0.53470  0.57680  Biso   1.000  H
  H213     1.0000 0.77640  0.03470  0.92320  Biso   1.000  H
  H214     1.0000 0.22360  0.96530  0.92320  Biso   1.000  H
  H215     1.0000 0.77640  0.96530  0.07680  Biso   1.000  H
  H216     1.0000 0.22360  0.03470  0.07680  Biso   1.000  H
  C153     1.0000 0.26910  0.62260  0.42070  Biso   1.000  C
  C154     1.0000 0.73090  0.37740  0.42070  Biso   1.000  C
  C155     1.0000 0.26910  0.37740  0.57930  Biso   1.000  C
  C156     1.0000 0.73090  0.62260  0.57930  Biso   1.000  C
  C157     1.0000 0.76910  0.12260  0.92070  Biso   1.000  C
  C158     1.0000 0.23090  0.87740  0.92070  Biso   1.000  C
  C159     1.0000 0.76910  0.87740  0.07930  Biso   1.000  C
  C160     1.0000 0.23090  0.12260  0.07930  Biso   1.000  C
  H217     1.0000 0.28090  0.63430  0.45470  Biso   1.000  H
  H218     1.0000 0.71910  0.36570  0.45470  Biso   1.000  H
  H219     1.0000 0.28090  0.36570  0.54530  Biso   1.000  H
  H220     1.0000 0.71910  0.63430  0.54530  Biso   1.000  H
  H221     1.0000 0.78090  0.13430  0.95470  Biso   1.000  H
  H222     1.0000 0.21910  0.86570  0.95470  Biso   1.000  H
  H223     1.0000 0.78090  0.86570  0.04530  Biso   1.000  H
  H224     1.0000 0.21910  0.13430  0.04530  Biso   1.000  H
  C161     1.0000 0.54730  0.39500  0.87530  Biso   1.000  C
  C162     1.0000 0.45270  0.60500  0.87530  Biso   1.000  C
  C163     1.0000 0.54730  0.60500  0.12470  Biso   1.000  C
  C164     1.0000 0.45270  0.39500  0.12470  Biso   1.000  C
  C165     1.0000 0.04730  0.89500  0.37530  Biso   1.000  C
  C166     1.0000 0.95270  0.10500  0.37530  Biso   1.000  C
  C167     1.0000 0.04730  0.10500  0.62470  Biso   1.000  C
  C168     1.0000 0.95270  0.89500  0.62470  Biso   1.000  C
  H225     1.0000 0.53100  0.35910  0.86830  Biso   1.000  H
  H226     1.0000 0.46900  0.64090  0.86830  Biso   1.000  H
  H227     1.0000 0.53100  0.64090  0.13170  Biso   1.000  H
  H228     1.0000 0.46900  0.35910  0.13170  Biso   1.000  H
  H229     1.0000 0.03100  0.85910  0.36830  Biso   1.000  H
  H230     1.0000 0.96900  0.14090  0.36830  Biso   1.000  H
  H231     1.0000 0.03100  0.14090  0.63170  Biso   1.000  H
  H232     1.0000 0.96900  0.85910  0.63170  Biso   1.000  H
  C169     1.0000 0.57640  0.48140  0.86630  Biso   1.000  C
  C170     1.0000 0.42360  0.51860  0.86630  Biso   1.000  C
  C171     1.0000 0.57640  0.51860  0.13370  Biso   1.000  C
  C172     1.0000 0.42360  0.48140  0.13370  Biso   1.000  C
  C173     1.0000 0.07640  0.98140  0.36630  Biso   1.000  C
  C174     1.0000 0.92360  0.01860  0.36630  Biso   1.000  C
  C175     1.0000 0.07640  0.01860  0.63370  Biso   1.000  C
  C176     1.0000 0.92360  0.98140  0.63370  Biso   1.000  C
  H233     1.0000 0.58380  0.51720  0.85090  Biso   1.000  H
  H234     1.0000 0.41620  0.48280  0.85090  Biso   1.000  H
  H235     1.0000 0.58380  0.48280  0.14910  Biso   1.000  H
  H236     1.0000 0.41620  0.51720  0.14910  Biso   1.000  H
  H237     1.0000 0.08380  0.01720  0.35090  Biso   1.000  H
  H238     1.0000 0.91620  0.98280  0.35090  Biso   1.000  H
  H239     1.0000 0.08380  0.98280  0.64910  Biso   1.000  H
  H240     1.0000 0.91620  0.01720  0.64910  Biso   1.000  H
  C177     1.0000 0.59100  0.46590  0.91550  Biso   1.000  C
  C178     1.0000 0.40900  0.53410  0.91550  Biso   1.000  C
  C179     1.0000 0.59100  0.53410  0.08450  Biso   1.000  C
  C180     1.0000 0.40900  0.46590  0.08450  Biso   1.000  C
  C181     1.0000 0.09100  0.96590  0.41550  Biso   1.000  C
  C182     1.0000 0.90900  0.03410  0.41550  Biso   1.000  C
  C183     1.0000 0.09100  0.03410  0.58450  Biso   1.000  C
  C184     1.0000 0.90900  0.96590  0.58450  Biso   1.000  C
  H241     1.0000 0.61010  0.48830  0.94080  Biso   1.000  H
  H242     1.0000 0.38990  0.51170  0.94080  Biso   1.000  H
  H243     1.0000 0.61010  0.51170  0.05920  Biso   1.000  H
  H244     1.0000 0.38990  0.48830  0.05920  Biso   1.000  H
  H245     1.0000 0.11010  0.98830  0.44080  Biso   1.000  H
  H246     1.0000 0.88990  0.01170  0.44080  Biso   1.000  H
  H247     1.0000 0.11010  0.01170  0.55920  Biso   1.000  H
  H248     1.0000 0.88990  0.98830  0.55920  Biso   1.000  H
  C185     1.0000 0.57680  0.37330  0.97090  Biso   1.000  C
  C186     1.0000 0.42320  0.62670  0.97090  Biso   1.000  C
  C187     1.0000 0.57680  0.62670  0.02910  Biso   1.000  C
  C188     1.0000 0.42320  0.37330  0.02910  Biso   1.000  C
  C189     1.0000 0.07680  0.87330  0.47090  Biso   1.000  C
  C190     1.0000 0.92320  0.12670  0.47090  Biso   1.000  C
  C191     1.0000 0.07680  0.12670  0.52910  Biso   1.000  C
  C192     1.0000 0.92320  0.87330  0.52910  Biso   1.000  C
  H249     1.0000 0.57670  0.33320  0.96000  Biso   1.000  H
  H250     1.0000 0.42330  0.66680  0.96000  Biso   1.000  H
  H251     1.0000 0.57670  0.66680  0.04000  Biso   1.000  H
  H252     1.0000 0.42330  0.33320  0.04000  Biso   1.000  H
  H253     1.0000 0.07670  0.83320  0.46000  Biso   1.000  H
  H254     1.0000 0.92330  0.16680  0.46000  Biso   1.000  H
  H255     1.0000 0.07670  0.16680  0.54000  Biso   1.000  H
  H256     1.0000 0.92330  0.83320  0.54000  Biso   1.000  H
  H257     1.0000 0.61380  0.38100  0.98800  Biso   1.000  H
  H258     1.0000 0.38620  0.61900  0.98800  Biso   1.000  H
  H259     1.0000 0.61380  0.61900  0.01200  Biso   1.000  H
  H260     1.0000 0.38620  0.38100  0.01200  Biso   1.000  H
  H261     1.0000 0.11380  0.88100  0.48800  Biso   1.000  H
  H262     1.0000 0.88620  0.11900  0.48800  Biso   1.000  H
  H263     1.0000 0.11380  0.11900  0.51200  Biso   1.000  H
  H264     1.0000 0.88620  0.88100  0.51200  Biso   1.000  H
  C193     1.0000 0.53040  0.38190  0.01100  Biso   1.000  C
  C194     1.0000 0.46960  0.61810  0.01100  Biso   1.000  C
  C195     1.0000 0.53040  0.61810  0.98900  Biso   1.000  C
  C196     1.0000 0.46960  0.38190  0.98900  Biso   1.000  C
  C197     1.0000 0.03040  0.88190  0.51100  Biso   1.000  C
  C198     1.0000 0.96960  0.11810  0.51100  Biso   1.000  C
  C199     1.0000 0.03040  0.11810  0.48900  Biso   1.000  C
  C200     1.0000 0.96960  0.88190  0.48900  Biso   1.000  C
  H265     1.0000 0.53710  0.41840  0.02900  Biso   1.000  H
  H266     1.0000 0.46290  0.58160  0.02900  Biso   1.000  H
  H267     1.0000 0.53710  0.58160  0.97100  Biso   1.000  H
  H268     1.0000 0.46290  0.41840  0.97100  Biso   1.000  H
  H269     1.0000 0.03710  0.91840  0.52900  Biso   1.000  H
  H270     1.0000 0.96290  0.08160  0.52900  Biso   1.000  H
  H271     1.0000 0.03710  0.08160  0.47100  Biso   1.000  H
  H272     1.0000 0.96290  0.91840  0.47100  Biso   1.000  H
  H273     1.0000 0.53340  0.35160  0.03770  Biso   1.000  H
  H274     1.0000 0.46660  0.64840  0.03770  Biso   1.000  H
  H275     1.0000 0.53340  0.64840  0.96230  Biso   1.000  H
  H276     1.0000 0.46660  0.35160  0.96230  Biso   1.000  H
  H277     1.0000 0.03340  0.85160  0.53770  Biso   1.000  H
  H278     1.0000 0.96660  0.14840  0.53770  Biso   1.000  H
  H279     1.0000 0.03340  0.14840  0.46230  Biso   1.000  H
  H280     1.0000 0.96660  0.85160  0.46230  Biso   1.000  H
  C201     1.0000 0.51860  0.42500  0.65770  Biso   1.000  C
  C202     1.0000 0.48140  0.57500  0.65770  Biso   1.000  C
  C203     1.0000 0.51860  0.57500  0.34230  Biso   1.000  C
  C204     1.0000 0.48140  0.42500  0.34230  Biso   1.000  C
  C205     1.0000 0.01860  0.92500  0.15770  Biso   1.000  C
  C206     1.0000 0.98140  0.07500  0.15770  Biso   1.000  C
  C207     1.0000 0.01860  0.07500  0.84230  Biso   1.000  C
  C208     1.0000 0.98140  0.92500  0.84230  Biso   1.000  C
  H281     1.0000 0.55810  0.43300  0.65640  Biso   1.000  H
  H282     1.0000 0.44190  0.56700  0.65640  Biso   1.000  H
  H283     1.0000 0.55810  0.56700  0.34360  Biso   1.000  H
  H284     1.0000 0.44190  0.43300  0.34360  Biso   1.000  H
  H285     1.0000 0.05810  0.93300  0.15640  Biso   1.000  H
  H286     1.0000 0.94190  0.06700  0.15640  Biso   1.000  H
  H287     1.0000 0.05810  0.06700  0.84360  Biso   1.000  H
  H288     1.0000 0.94190  0.93300  0.84360  Biso   1.000  H
  C209     1.0000 0.43320  0.41040  0.68770  Biso   1.000  C
  C210     1.0000 0.56680  0.58960  0.68770  Biso   1.000  C
  C211     1.0000 0.43320  0.58960  0.31230  Biso   1.000  C
  C212     1.0000 0.56680  0.41040  0.31230  Biso   1.000  C
  C213     1.0000 0.93320  0.91040  0.18770  Biso   1.000  C
  C214     1.0000 0.06680  0.08960  0.18770  Biso   1.000  C
  C215     1.0000 0.93320  0.08960  0.81230  Biso   1.000  C
  C216     1.0000 0.06680  0.91040  0.81230  Biso   1.000  C
  H289     1.0000 0.40210  0.40660  0.71120  Biso   1.000  H
  H290     1.0000 0.59790  0.59340  0.71120  Biso   1.000  H
  H291     1.0000 0.40210  0.59340  0.28880  Biso   1.000  H
  H292     1.0000 0.59790  0.40660  0.28880  Biso   1.000  H
  H293     1.0000 0.90210  0.90660  0.21120  Biso   1.000  H
  H294     1.0000 0.09790  0.09340  0.21120  Biso   1.000  H
  H295     1.0000 0.90210  0.09340  0.78880  Biso   1.000  H
  H296     1.0000 0.09790  0.90660  0.78880  Biso   1.000  H
  C217     1.0000 0.43030  0.40450  0.63270  Biso   1.000  C
  C218     1.0000 0.56970  0.59550  0.63270  Biso   1.000  C
  C219     1.0000 0.43030  0.59550  0.36730  Biso   1.000  C
  C220     1.0000 0.56970  0.40450  0.36730  Biso   1.000  C
  C221     1.0000 0.93030  0.90450  0.13270  Biso   1.000  C
  C222     1.0000 0.06970  0.09550  0.13270  Biso   1.000  C
  C223     1.0000 0.93030  0.09550  0.86730  Biso   1.000  C
  C224     1.0000 0.06970  0.90450  0.86730  Biso   1.000  C
  H297     1.0000 0.39810  0.39560  0.61190  Biso   1.000  H
  H298     1.0000 0.60190  0.60440  0.61190  Biso   1.000  H
  H299     1.0000 0.39810  0.60440  0.38810  Biso   1.000  H
  H300     1.0000 0.60190  0.39560  0.38810  Biso   1.000  H
  H301     1.0000 0.89810  0.89560  0.11190  Biso   1.000  H
  H302     1.0000 0.10190  0.10440  0.11190  Biso   1.000  H
  H303     1.0000 0.89810  0.10440  0.88810  Biso   1.000  H
  H304     1.0000 0.10190  0.89560  0.88810  Biso   1.000  H
  C225     1.0000 0.50730  0.41610  0.55880  Biso   1.000  C
  C226     1.0000 0.49270  0.58390  0.55880  Biso   1.000  C
  C227     1.0000 0.50730  0.58390  0.44120  Biso   1.000  C
  C228     1.0000 0.49270  0.41610  0.44120  Biso   1.000  C
  C229     1.0000 0.00730  0.91610  0.05880  Biso   1.000  C
  C230     1.0000 0.99270  0.08390  0.05880  Biso   1.000  C
  C231     1.0000 0.00730  0.08390  0.94120  Biso   1.000  C
  C232     1.0000 0.99270  0.91610  0.94120  Biso   1.000  C
  H305     1.0000 0.49110  0.44990  0.54140  Biso   1.000  H
  H306     1.0000 0.50890  0.55010  0.54140  Biso   1.000  H
  H307     1.0000 0.49110  0.55010  0.45860  Biso   1.000  H
  H308     1.0000 0.50890  0.44990  0.45860  Biso   1.000  H
  H309     1.0000 0.99110  0.94990  0.04140  Biso   1.000  H
  H310     1.0000 0.00890  0.05010  0.04140  Biso   1.000  H
  H311     1.0000 0.99110  0.05010  0.95860  Biso   1.000  H
  H312     1.0000 0.00890  0.94990  0.95860  Biso   1.000  H
  H313     1.0000 0.54920  0.41950  0.55770  Biso   1.000  H
  H314     1.0000 0.45080  0.58050  0.55770  Biso   1.000  H
  H315     1.0000 0.54920  0.58050  0.44230  Biso   1.000  H
  H316     1.0000 0.45080  0.41950  0.44230  Biso   1.000  H
  H317     1.0000 0.04920  0.91950  0.05770  Biso   1.000  H
  H318     1.0000 0.95080  0.08050  0.05770  Biso   1.000  H
  H319     1.0000 0.04920  0.08050  0.94230  Biso   1.000  H
  H320     1.0000 0.95080  0.91950  0.94230  Biso   1.000  H
  C233     1.0000 0.49060  0.36650  0.52970  Biso   1.000  C
  C234     1.0000 0.50940  0.63350  0.52970  Biso   1.000  C
  C235     1.0000 0.49060  0.63350  0.47030  Biso   1.000  C
  C236     1.0000 0.50940  0.36650  0.47030  Biso   1.000  C
  C237     1.0000 0.99060  0.86650  0.02970  Biso   1.000  C
  C238     1.0000 0.00940  0.13350  0.02970  Biso   1.000  C
  C239     1.0000 0.99060  0.13350  0.97030  Biso   1.000  C
  C240     1.0000 0.00940  0.86650  0.97030  Biso   1.000  C
  H321     1.0000 0.44880  0.36300  0.53130  Biso   1.000  H
  H322     1.0000 0.55120  0.63700  0.53130  Biso   1.000  H
  H323     1.0000 0.44880  0.63700  0.46870  Biso   1.000  H
  H324     1.0000 0.55120  0.36300  0.46870  Biso   1.000  H
  H325     1.0000 0.94880  0.86300  0.03130  Biso   1.000  H
  H326     1.0000 0.05120  0.13700  0.03130  Biso   1.000  H
  H327     1.0000 0.94880  0.13700  0.96870  Biso   1.000  H
  H328     1.0000 0.05120  0.86300  0.96870  Biso   1.000  H
  H329     1.0000 0.50700  0.33280  0.54700  Biso   1.000  H
  H330     1.0000 0.49300  0.66720  0.54700  Biso   1.000  H
  H331     1.0000 0.50700  0.66720  0.45300  Biso   1.000  H
  H332     1.0000 0.49300  0.33280  0.45300  Biso   1.000  H
  H333     1.0000 0.00700  0.83280  0.04700  Biso   1.000  H
  H334     1.0000 0.99300  0.16720  0.04700  Biso   1.000  H
  H335     1.0000 0.00700  0.16720  0.95300  Biso   1.000  H
  H336     1.0000 0.99300  0.83280  0.95300  Biso   1.000  H
  C241     1.0000 0.07190  0.52020  0.65650  Biso   1.000  C
  C242     1.0000 0.92810  0.47980  0.65650  Biso   1.000  C
  C243     1.0000 0.07190  0.47980  0.34350  Biso   1.000  C
  C244     1.0000 0.92810  0.52020  0.34350  Biso   1.000  C
  C245     1.0000 0.57190  0.02020  0.15650  Biso   1.000  C
  C246     1.0000 0.42810  0.97980  0.15650  Biso   1.000  C
  C247     1.0000 0.57190  0.97980  0.84350  Biso   1.000  C
  C248     1.0000 0.42810  0.02020  0.84350  Biso   1.000  C
  H337     1.0000 0.06340  0.55940  0.65450  Biso   1.000  H
  H338     1.0000 0.93660  0.44060  0.65450  Biso   1.000  H
  H339     1.0000 0.06340  0.44060  0.34550  Biso   1.000  H
  H340     1.0000 0.93660  0.55940  0.34550  Biso   1.000  H
  H341     1.0000 0.56340  0.05940  0.15450  Biso   1.000  H
  H342     1.0000 0.43660  0.94060  0.15450  Biso   1.000  H
  H343     1.0000 0.56340  0.94060  0.84550  Biso   1.000  H
  H344     1.0000 0.43660  0.05940  0.84550  Biso   1.000  H
  C249     1.0000 0.08780  0.43700  0.68760  Biso   1.000  C
  C250     1.0000 0.91220  0.56300  0.68760  Biso   1.000  C
  C251     1.0000 0.08780  0.56300  0.31240  Biso   1.000  C
  C252     1.0000 0.91220  0.43700  0.31240  Biso   1.000  C
  C253     1.0000 0.58780  0.93700  0.18760  Biso   1.000  C
  C254     1.0000 0.41220  0.06300  0.18760  Biso   1.000  C
  C255     1.0000 0.58780  0.06300  0.81240  Biso   1.000  C
  C256     1.0000 0.41220  0.93700  0.81240  Biso   1.000  C
  H345     1.0000 0.09260  0.40640  0.71140  Biso   1.000  H
  H346     1.0000 0.90740  0.59360  0.71140  Biso   1.000  H
  H347     1.0000 0.09260  0.59360  0.28860  Biso   1.000  H
  H348     1.0000 0.90740  0.40640  0.28860  Biso   1.000  H
  H349     1.0000 0.59260  0.90640  0.21140  Biso   1.000  H
  H350     1.0000 0.40740  0.09360  0.21140  Biso   1.000  H
  H351     1.0000 0.59260  0.09360  0.78860  Biso   1.000  H
  H352     1.0000 0.40740  0.90640  0.78860  Biso   1.000  H
  C257     1.0000 0.09340  0.43380  0.63390  Biso   1.000  C
  C258     1.0000 0.90660  0.56620  0.63390  Biso   1.000  C
  C259     1.0000 0.09340  0.56620  0.36610  Biso   1.000  C
  C260     1.0000 0.90660  0.43380  0.36610  Biso   1.000  C
  C261     1.0000 0.59340  0.93380  0.13390  Biso   1.000  C
  C262     1.0000 0.40660  0.06620  0.13390  Biso   1.000  C
  C263     1.0000 0.59340  0.06620  0.86610  Biso   1.000  C
  C264     1.0000 0.40660  0.93380  0.86610  Biso   1.000  C
  H353     1.0000 0.10270  0.40130  0.61380  Biso   1.000  H
  H354     1.0000 0.89730  0.59870  0.61380  Biso   1.000  H
  H355     1.0000 0.10270  0.59870  0.38620  Biso   1.000  H
  H356     1.0000 0.89730  0.40130  0.38620  Biso   1.000  H
  H357     1.0000 0.60270  0.90130  0.11380  Biso   1.000  H
  H358     1.0000 0.39730  0.09870  0.11380  Biso   1.000  H
  H359     1.0000 0.60270  0.09870  0.88620  Biso   1.000  H
  H360     1.0000 0.39730  0.90130  0.88620  Biso   1.000  H
  C265     1.0000 0.08340  0.50800  0.55820  Biso   1.000  C
  C266     1.0000 0.91660  0.49200  0.55820  Biso   1.000  C
  C267     1.0000 0.08340  0.49200  0.44180  Biso   1.000  C
  C268     1.0000 0.91660  0.50800  0.44180  Biso   1.000  C
  C269     1.0000 0.58340  0.00800  0.05820  Biso   1.000  C
  C270     1.0000 0.41660  0.99200  0.05820  Biso   1.000  C
  C271     1.0000 0.58340  0.99200  0.94180  Biso   1.000  C
  C272     1.0000 0.41660  0.00800  0.94180  Biso   1.000  C
  H361     1.0000 0.04790  0.49570  0.54090  Biso   1.000  H
  H362     1.0000 0.95210  0.50430  0.54090  Biso   1.000  H
  H363     1.0000 0.04790  0.50430  0.45910  Biso   1.000  H
  H364     1.0000 0.95210  0.49570  0.45910  Biso   1.000  H
  H365     1.0000 0.54790  0.99570  0.04090  Biso   1.000  H
  H366     1.0000 0.45210  0.00430  0.04090  Biso   1.000  H
  H367     1.0000 0.54790  0.00430  0.95910  Biso   1.000  H
  H368     1.0000 0.45210  0.99570  0.95910  Biso   1.000  H
  H369     1.0000 0.08420  0.54980  0.55770  Biso   1.000  H
  H370     1.0000 0.91580  0.45020  0.55770  Biso   1.000  H
  H371     1.0000 0.08420  0.45020  0.44230  Biso   1.000  H
  H372     1.0000 0.91580  0.54980  0.44230  Biso   1.000  H
  H373     1.0000 0.58420  0.04980  0.05770  Biso   1.000  H
  H374     1.0000 0.41580  0.95020  0.05770  Biso   1.000  H
  H375     1.0000 0.58420  0.95020  0.94230  Biso   1.000  H
  H376     1.0000 0.41580  0.04980  0.94230  Biso   1.000  H
  C273     1.0000 0.13280  0.48630  0.52740  Biso   1.000  C
  C274     1.0000 0.86720  0.51370  0.52740  Biso   1.000  C
  C275     1.0000 0.13280  0.51370  0.47260  Biso   1.000  C
  C276     1.0000 0.86720  0.48630  0.47260  Biso   1.000  C
  C277     1.0000 0.63280  0.98630  0.02740  Biso   1.000  C
  C278     1.0000 0.36720  0.01370  0.02740  Biso   1.000  C
  C279     1.0000 0.63280  0.01370  0.97260  Biso   1.000  C
  C280     1.0000 0.36720  0.98630  0.97260  Biso   1.000  C
  H377     1.0000 0.13020  0.44470  0.52390  Biso   1.000  H
  H378     1.0000 0.86980  0.55530  0.52390  Biso   1.000  H
  H379     1.0000 0.13020  0.55530  0.47610  Biso   1.000  H
  H380     1.0000 0.86980  0.44470  0.47610  Biso   1.000  H
  H381     1.0000 0.63020  0.94470  0.02390  Biso   1.000  H
  H382     1.0000 0.36980  0.05530  0.02390  Biso   1.000  H
  H383     1.0000 0.63020  0.05530  0.97610  Biso   1.000  H
  H384     1.0000 0.36980  0.94470  0.97610  Biso   1.000  H
  H385     1.0000 0.16870  0.49550  0.54580  Biso   1.000  H
  H386     1.0000 0.83130  0.50450  0.54580  Biso   1.000  H
  H387     1.0000 0.16870  0.50450  0.45420  Biso   1.000  H
  H388     1.0000 0.83130  0.49550  0.45420  Biso   1.000  H
  H389     1.0000 0.66870  0.99550  0.04580  Biso   1.000  H
  H390     1.0000 0.33130  0.00450  0.04580  Biso   1.000  H
  H391     1.0000 0.66870  0.00450  0.95420  Biso   1.000  H
  H392     1.0000 0.33130  0.99550  0.95420  Biso   1.000  H
  C281     1.0000 0.10610  0.54750  0.87490  Biso   1.000  C
  C282     1.0000 0.89390  0.45250  0.87490  Biso   1.000  C
  C283     1.0000 0.10610  0.45250  0.12510  Biso   1.000  C
  C284     1.0000 0.89390  0.54750  0.12510  Biso   1.000  C
  C285     1.0000 0.60610  0.04750  0.37490  Biso   1.000  C
  C286     1.0000 0.39390  0.95250  0.37490  Biso   1.000  C
  C287     1.0000 0.60610  0.95250  0.62510  Biso   1.000  C
  C288     1.0000 0.39390  0.04750  0.62510  Biso   1.000  C
  H393     1.0000 0.14210  0.53090  0.86800  Biso   1.000  H
  H394     1.0000 0.85790  0.46910  0.86800  Biso   1.000  H
  H395     1.0000 0.14210  0.46910  0.13200  Biso   1.000  H
  H396     1.0000 0.85790  0.53090  0.13200  Biso   1.000  H
  H397     1.0000 0.64210  0.03090  0.36800  Biso   1.000  H
  H398     1.0000 0.35790  0.96910  0.36800  Biso   1.000  H
  H399     1.0000 0.64210  0.96910  0.63200  Biso   1.000  H
  H400     1.0000 0.35790  0.03090  0.63200  Biso   1.000  H
  C289     1.0000 0.01720  0.57760  0.86680  Biso   1.000  C
  C290     1.0000 0.98280  0.42240  0.86680  Biso   1.000  C
  C291     1.0000 0.01720  0.42240  0.13320  Biso   1.000  C
  C292     1.0000 0.98280  0.57760  0.13320  Biso   1.000  C
  C293     1.0000 0.51720  0.07760  0.36680  Biso   1.000  C
  C294     1.0000 0.48280  0.92240  0.36680  Biso   1.000  C
  C295     1.0000 0.51720  0.92240  0.63320  Biso   1.000  C
  C296     1.0000 0.48280  0.07760  0.63320  Biso   1.000  C
  H401     1.0000 0.98080  0.58460  0.85210  Biso   1.000  H
  H402     1.0000 0.01920  0.41540  0.85210  Biso   1.000  H
  H403     1.0000 0.98080  0.41540  0.14790  Biso   1.000  H
  H404     1.0000 0.01920  0.58460  0.14790  Biso   1.000  H
  H405     1.0000 0.48080  0.08460  0.35210  Biso   1.000  H
  H406     1.0000 0.51920  0.91540  0.35210  Biso   1.000  H
  H407     1.0000 0.48080  0.91540  0.64790  Biso   1.000  H
  H408     1.0000 0.51920  0.08460  0.64790  Biso   1.000  H
  C297     1.0000 0.03360  0.59280  0.91590  Biso   1.000  C
  C298     1.0000 0.96640  0.40720  0.91590  Biso   1.000  C
  C299     1.0000 0.03360  0.40720  0.08410  Biso   1.000  C
  C300     1.0000 0.96640  0.59280  0.08410  Biso   1.000  C
  C301     1.0000 0.53360  0.09280  0.41590  Biso   1.000  C
  C302     1.0000 0.46640  0.90720  0.41590  Biso   1.000  C
  C303     1.0000 0.53360  0.90720  0.58410  Biso   1.000  C
  C304     1.0000 0.46640  0.09280  0.58410  Biso   1.000  C
  H409     1.0000 0.01180  0.61250  0.94140  Biso   1.000  H
  H410     1.0000 0.98820  0.38750  0.94140  Biso   1.000  H
  H411     1.0000 0.01180  0.38750  0.05860  Biso   1.000  H
  H412     1.0000 0.98820  0.61250  0.05860  Biso   1.000  H
  H413     1.0000 0.51180  0.11250  0.44140  Biso   1.000  H
  H414     1.0000 0.48820  0.88750  0.44140  Biso   1.000  H
  H415     1.0000 0.51180  0.88750  0.55860  Biso   1.000  H
  H416     1.0000 0.48820  0.11250  0.55860  Biso   1.000  H
  C305     1.0000 0.12850  0.57540  0.96920  Biso   1.000  C
  C306     1.0000 0.87150  0.42460  0.96920  Biso   1.000  C
  C307     1.0000 0.12850  0.42460  0.03080  Biso   1.000  C
  C308     1.0000 0.87150  0.57540  0.03080  Biso   1.000  C
  C309     1.0000 0.62850  0.07540  0.46920  Biso   1.000  C
  C310     1.0000 0.37150  0.92460  0.46920  Biso   1.000  C
  C311     1.0000 0.62850  0.92460  0.53080  Biso   1.000  C
  C312     1.0000 0.37150  0.07540  0.53080  Biso   1.000  C
  H417     1.0000 0.12450  0.61310  0.98570  Biso   1.000  H
  H418     1.0000 0.87550  0.38690  0.98570  Biso   1.000  H
  H419     1.0000 0.12450  0.38690  0.01430  Biso   1.000  H
  H420     1.0000 0.87550  0.61310  0.01430  Biso   1.000  H
  H421     1.0000 0.62450  0.11310  0.48570  Biso   1.000  H
  H422     1.0000 0.37550  0.88690  0.48570  Biso   1.000  H
  H423     1.0000 0.62450  0.88690  0.51430  Biso   1.000  H
  H424     1.0000 0.37550  0.11310  0.51430  Biso   1.000  H
  H425     1.0000 0.16850  0.57150  0.95760  Biso   1.000  H
  H426     1.0000 0.83150  0.42850  0.95760  Biso   1.000  H
  H427     1.0000 0.16850  0.42850  0.04240  Biso   1.000  H
  H428     1.0000 0.83150  0.57150  0.04240  Biso   1.000  H
  H429     1.0000 0.66850  0.07150  0.45760  Biso   1.000  H
  H430     1.0000 0.33150  0.92850  0.45760  Biso   1.000  H
  H431     1.0000 0.66850  0.92850  0.54240  Biso   1.000  H
  H432     1.0000 0.33150  0.07150  0.54240  Biso   1.000  H
  C313     1.0000 0.11600  0.52970  0.01080  Biso   1.000  C
  C314     1.0000 0.88400  0.47030  0.01080  Biso   1.000  C
  C315     1.0000 0.11600  0.47030  0.98920  Biso   1.000  C
  C316     1.0000 0.88400  0.52970  0.98920  Biso   1.000  C
  C317     1.0000 0.61600  0.02970  0.51080  Biso   1.000  C
  C318     1.0000 0.38400  0.97030  0.51080  Biso   1.000  C
  C319     1.0000 0.61600  0.97030  0.48920  Biso   1.000  C
  C320     1.0000 0.38400  0.02970  0.48920  Biso   1.000  C
  H433     1.0000 0.14490  0.53230  0.03900  Biso   1.000  H
  H434     1.0000 0.85510  0.46770  0.03900  Biso   1.000  H
  H435     1.0000 0.14490  0.46770  0.96100  Biso   1.000  H
  H436     1.0000 0.85510  0.53230  0.96100  Biso   1.000  H
  H437     1.0000 0.64490  0.03230  0.53900  Biso   1.000  H
  H438     1.0000 0.35510  0.96770  0.53900  Biso   1.000  H
  H439     1.0000 0.64490  0.96770  0.46100  Biso   1.000  H
  H440     1.0000 0.35510  0.03230  0.46100  Biso   1.000  H
  H441     1.0000 0.07850  0.53740  0.02680  Biso   1.000  H
  H442     1.0000 0.92150  0.46260  0.02680  Biso   1.000  H
  H443     1.0000 0.07850  0.46260  0.97320  Biso   1.000  H
  H444     1.0000 0.92150  0.53740  0.97320  Biso   1.000  H
  H445     1.0000 0.57850  0.03740  0.52680  Biso   1.000  H
  H446     1.0000 0.42150  0.96260  0.52680  Biso   1.000  H
  H447     1.0000 0.57850  0.96260  0.47320  Biso   1.000  H
  H448     1.0000 0.42150  0.03740  0.47320  Biso   1.000  H
  N1       1.0000 0.33740  0.24080  0.12410  Biso   1.000  N
  N2       1.0000 0.66260  0.75920  0.12410  Biso   1.000  N
  N3       1.0000 0.33740  0.75920  0.87590  Biso   1.000  N
  N4       1.0000 0.66260  0.24080  0.87590  Biso   1.000  N
  N5       1.0000 0.83740  0.74080  0.62410  Biso   1.000  N
  N6       1.0000 0.16260  0.25920  0.62410  Biso   1.000  N
  N7       1.0000 0.83740  0.25920  0.37590  Biso   1.000  N
  N8       1.0000 0.16260  0.74080  0.37590  Biso   1.000  N
  N9       1.0000 0.42720  0.24420  0.15450  Biso   1.000  N
  N10      1.0000 0.57280  0.75580  0.15450  Biso   1.000  N
  N11      1.0000 0.42720  0.75580  0.84550  Biso   1.000  N
  N12      1.0000 0.57280  0.24420  0.84550  Biso   1.000  N
  N13      1.0000 0.92720  0.74420  0.65450  Biso   1.000  N
  N14      1.0000 0.07280  0.25580  0.65450  Biso   1.000  N
  N15      1.0000 0.92720  0.25580  0.34550  Biso   1.000  N
  N16      1.0000 0.07280  0.74420  0.34550  Biso   1.000  N
  N17      1.0000 0.57770  0.25100  0.34290  Biso   1.000  N
  N18      1.0000 0.42230  0.74900  0.34290  Biso   1.000  N
  N19      1.0000 0.57770  0.74900  0.65710  Biso   1.000  N
  N20      1.0000 0.42230  0.25100  0.65710  Biso   1.000  N
  N21      1.0000 0.07770  0.75100  0.84290  Biso   1.000  N
  N22      1.0000 0.92230  0.24900  0.84290  Biso   1.000  N
  N23      1.0000 0.07770  0.24900  0.15710  Biso   1.000  N
  N24      1.0000 0.92230  0.75100  0.15710  Biso   1.000  N
  N25      1.0000 0.66520  0.25240  0.37630  Biso   1.000  N
  N26      1.0000 0.33480  0.74760  0.37630  Biso   1.000  N
  N27      1.0000 0.66520  0.74760  0.62370  Biso   1.000  N
  N28      1.0000 0.33480  0.25240  0.62370  Biso   1.000  N
  N29      1.0000 0.16520  0.75240  0.87630  Biso   1.000  N
  N30      1.0000 0.83480  0.24760  0.87630  Biso   1.000  N
  N31      1.0000 0.16520  0.24760  0.12370  Biso   1.000  N
  N32      1.0000 0.83480  0.75240  0.12370  Biso   1.000  N
  N33      1.0000 0.25540  0.33030  0.12932  Biso   1.000  N
  N34      1.0000 0.74460  0.66970  0.12932  Biso   1.000  N
  N35      1.0000 0.25540  0.66970  0.87068  Biso   1.000  N
  N36      1.0000 0.74460  0.33030  0.87068  Biso   1.000  N
  N37      1.0000 0.75540  0.83030  0.62932  Biso   1.000  N
  N38      1.0000 0.24460  0.16970  0.62932  Biso   1.000  N
  N39      1.0000 0.75540  0.16970  0.37068  Biso   1.000  N
  N40      1.0000 0.24460  0.83030  0.37068  Biso   1.000  N
  N41      1.0000 0.25560  0.41790  0.16450  Biso   1.000  N
  N42      1.0000 0.74440  0.58210  0.16450  Biso   1.000  N
  N43      1.0000 0.25560  0.58210  0.83550  Biso   1.000  N
  N44      1.0000 0.74440  0.41790  0.83550  Biso   1.000  N
  N45      1.0000 0.75560  0.91790  0.66450  Biso   1.000  N
  N46      1.0000 0.24440  0.08210  0.66450  Biso   1.000  N
  N47      1.0000 0.75560  0.08210  0.33550  Biso   1.000  N
  N48      1.0000 0.24440  0.91790  0.33550  Biso   1.000  N
  N49      1.0000 0.24760  0.56960  0.35180  Biso   1.000  N
  N50      1.0000 0.75240  0.43040  0.35180  Biso   1.000  N
  N51      1.0000 0.24760  0.43040  0.64820  Biso   1.000  N
  N52      1.0000 0.75240  0.56960  0.64820  Biso   1.000  N
  N53      1.0000 0.74760  0.06960  0.85180  Biso   1.000  N
  N54      1.0000 0.25240  0.93040  0.85180  Biso   1.000  N
  N55      1.0000 0.74760  0.93040  0.14820  Biso   1.000  N
  N56      1.0000 0.25240  0.06960  0.14820  Biso   1.000  N
  N57      1.0000 0.25130  0.65900  0.38040  Biso   1.000  N
  N58      1.0000 0.74870  0.34100  0.38040  Biso   1.000  N
  N59      1.0000 0.25130  0.34100  0.61960  Biso   1.000  N
  N60      1.0000 0.74870  0.65900  0.61960  Biso   1.000  N
  N61      1.0000 0.75130  0.15900  0.88040  Biso   1.000  N
  N62      1.0000 0.24870  0.84100  0.88040  Biso   1.000  N
  N63      1.0000 0.75130  0.84100  0.11960  Biso   1.000  N
  N64      1.0000 0.24870  0.15900  0.11960  Biso   1.000  N
  N65      1.0000 0.54900  0.43680  0.84170  Biso   1.000  N
  N66      1.0000 0.45100  0.56320  0.84170  Biso   1.000  N
  N67      1.0000 0.54900  0.56320  0.15830  Biso   1.000  N
  N68      1.0000 0.45100  0.43680  0.15830  Biso   1.000  N
  N69      1.0000 0.04900  0.93680  0.34170  Biso   1.000  N
  N70      1.0000 0.95100  0.06320  0.34170  Biso   1.000  N
  N71      1.0000 0.04900  0.06320  0.65830  Biso   1.000  N
  N72      1.0000 0.95100  0.93680  0.65830  Biso   1.000  N
  N73      1.0000 0.57230  0.41010  0.92190  Biso   1.000  N
  N74      1.0000 0.42770  0.58990  0.92190  Biso   1.000  N
  N75      1.0000 0.57230  0.58990  0.07810  Biso   1.000  N
  N76      1.0000 0.42770  0.41010  0.07810  Biso   1.000  N
  N77      1.0000 0.07230  0.91010  0.42190  Biso   1.000  N
  N78      1.0000 0.92770  0.08990  0.42190  Biso   1.000  N
  N79      1.0000 0.07230  0.08990  0.57810  Biso   1.000  N
  N80      1.0000 0.92770  0.91010  0.57810  Biso   1.000  N
  N81      1.0000 0.48990  0.42290  0.70250  Biso   1.000  N
  N82      1.0000 0.51010  0.57710  0.70250  Biso   1.000  N
  N83      1.0000 0.48990  0.57710  0.29750  Biso   1.000  N
  N84      1.0000 0.51010  0.42290  0.29750  Biso   1.000  N
  N85      1.0000 0.98990  0.92290  0.20250  Biso   1.000  N
  N86      1.0000 0.01010  0.07710  0.20250  Biso   1.000  N
  N87      1.0000 0.98990  0.07710  0.79750  Biso   1.000  N
  N88      1.0000 0.01010  0.92290  0.79750  Biso   1.000  N
  N89      1.0000 0.48840  0.41520  0.61500  Biso   1.000  N
  N90      1.0000 0.51160  0.58480  0.61500  Biso   1.000  N
  N91      1.0000 0.48840  0.58480  0.38500  Biso   1.000  N
  N92      1.0000 0.51160  0.41520  0.38500  Biso   1.000  N
  N93      1.0000 0.98840  0.91520  0.11500  Biso   1.000  N
  N94      1.0000 0.01160  0.08480  0.11500  Biso   1.000  N
  N95      1.0000 0.98840  0.08480  0.88500  Biso   1.000  N
  N96      1.0000 0.01160  0.91520  0.88500  Biso   1.000  N
  N97      1.0000 0.08260  0.48800  0.61520  Biso   1.000  N
  N98      1.0000 0.91740  0.51200  0.61520  Biso   1.000  N
  N99      1.0000 0.08260  0.51200  0.38480  Biso   1.000  N
  N100     1.0000 0.91740  0.48800  0.38480  Biso   1.000  N
  N101     1.0000 0.58260  0.98800  0.11520  Biso   1.000  N
  N102     1.0000 0.41740  0.01200  0.11520  Biso   1.000  N
  N103     1.0000 0.58260  0.01200  0.88480  Biso   1.000  N
  N104     1.0000 0.41740  0.98800  0.88480  Biso   1.000  N
  N105     1.0000 0.07440  0.49110  0.70140  Biso   1.000  N
  N106     1.0000 0.92560  0.50890  0.70140  Biso   1.000  N
  N107     1.0000 0.07440  0.50890  0.29860  Biso   1.000  N
  N108     1.0000 0.92560  0.49110  0.29860  Biso   1.000  N
  N109     1.0000 0.57440  0.99110  0.20140  Biso   1.000  N
  N110     1.0000 0.42560  0.00890  0.20140  Biso   1.000  N
  N111     1.0000 0.57440  0.00890  0.79860  Biso   1.000  N
  N112     1.0000 0.42560  0.99110  0.79860  Biso   1.000  N
  N113     1.0000 0.06240  0.54970  0.84070  Biso   1.000  N
  N114     1.0000 0.93760  0.45030  0.84070  Biso   1.000  N
  N115     1.0000 0.06240  0.45030  0.15930  Biso   1.000  N
  N116     1.0000 0.93760  0.54970  0.15930  Biso   1.000  N
  N117     1.0000 0.56240  0.04970  0.34070  Biso   1.000  N
  N118     1.0000 0.43760  0.95030  0.34070  Biso   1.000  N
  N119     1.0000 0.56240  0.95030  0.65930  Biso   1.000  N
  N120     1.0000 0.43760  0.04970  0.65930  Biso   1.000  N
  N121     1.0000 0.09040  0.57300  0.92130  Biso   1.000  N
  N122     1.0000 0.90960  0.42700  0.92130  Biso   1.000  N
  N123     1.0000 0.09040  0.42700  0.07870  Biso   1.000  N
  N124     1.0000 0.90960  0.57300  0.07870  Biso   1.000  N
  N125     1.0000 0.59040  0.07300  0.42130  Biso   1.000  N
  N126     1.0000 0.40960  0.92700  0.42130  Biso   1.000  N
  N127     1.0000 0.59040  0.92700  0.57870  Biso   1.000  N
  N128     1.0000 0.40960  0.07300  0.57870  Biso   1.000  N
  O1       1.0000 0.25194  0.25499  0.02897  Biso   1.000  O
  O2       1.0000 0.74806  0.74501  0.02897  Biso   1.000  O
  O3       1.0000 0.25194  0.74501  0.97103  Biso   1.000  O
  O4       1.0000 0.74806  0.25499  0.97103  Biso   1.000  O
  O5       1.0000 0.75194  0.75499  0.52897  Biso   1.000  O
  O6       1.0000 0.24806  0.24501  0.52897  Biso   1.000  O
  O7       1.0000 0.75194  0.24501  0.47103  Biso   1.000  O
  O8       1.0000 0.24806  0.75499  0.47103  Biso   1.000  O
  O9       1.0000 0.43540  0.21620  0.96290  Biso   1.000  O
  O10      1.0000 0.56460  0.78380  0.96290  Biso   1.000  O
  O11      1.0000 0.43540  0.78380  0.03710  Biso   1.000  O
  O12      1.0000 0.56460  0.21620  0.03710  Biso   1.000  O
  O13      1.0000 0.93540  0.71620  0.46290  Biso   1.000  O
  O14      1.0000 0.06460  0.28380  0.46290  Biso   1.000  O
  O15      1.0000 0.93540  0.28380  0.53710  Biso   1.000  O
  O16      1.0000 0.06460  0.71620  0.53710  Biso   1.000  O
  O17      1.0000 0.20420  0.06320  0.94940  Biso   1.000  O
  O18      1.0000 0.79580  0.93680  0.94940  Biso   1.000  O
  O19      1.0000 0.20420  0.93680  0.05060  Biso   1.000  O
  O20      1.0000 0.79580  0.06320  0.05060  Biso   1.000  O
  O21      1.0000 0.70420  0.56320  0.44940  Biso   1.000  O
  O22      1.0000 0.29580  0.43680  0.44940  Biso   1.000  O
  O23      1.0000 0.70420  0.43680  0.55060  Biso   1.000  O
  O24      1.0000 0.29580  0.56320  0.55060  Biso   1.000  O
  O25      1.0000 0.34910  0.10910  0.78150  Biso   1.000  O
  O26      1.0000 0.65090  0.89090  0.78150  Biso   1.000  O
  O27      1.0000 0.34910  0.89090  0.21850  Biso   1.000  O
  O28      1.0000 0.65090  0.10910  0.21850  Biso   1.000  O
  O29      1.0000 0.84910  0.60910  0.28150  Biso   1.000  O
  O30      1.0000 0.15090  0.39090  0.28150  Biso   1.000  O
  O31      1.0000 0.84910  0.39090  0.71850  Biso   1.000  O
  O32      1.0000 0.15090  0.60910  0.71850  Biso   1.000  O
  O33      1.0000 0.05670  0.30460  0.96130  Biso   1.000  O
  O34      1.0000 0.94330  0.69540  0.96130  Biso   1.000  O
  O35      1.0000 0.05670  0.69540  0.03870  Biso   1.000  O
  O36      1.0000 0.94330  0.30460  0.03870  Biso   1.000  O
  O37      1.0000 0.55670  0.80460  0.46130  Biso   1.000  O
  O38      1.0000 0.44330  0.19540  0.46130  Biso   1.000  O
  O39      1.0000 0.55670  0.19540  0.53870  Biso   1.000  O
  O40      1.0000 0.44330  0.80460  0.53870  Biso   1.000  O
  O41      1.0000 0.09990  0.17410  0.77980  Biso   1.000  O
  O42      1.0000 0.90010  0.82590  0.77980  Biso   1.000  O
  O43      1.0000 0.09990  0.82590  0.22020  Biso   1.000  O
  O44      1.0000 0.90010  0.17410  0.22020  Biso   1.000  O
  O45      1.0000 0.59990  0.67410  0.27980  Biso   1.000  O
  O46      1.0000 0.40010  0.32590  0.27980  Biso   1.000  O
  O47      1.0000 0.59990  0.32590  0.72020  Biso   1.000  O
  O48      1.0000 0.40010  0.67410  0.72020  Biso   1.000  O
  O49      1.0000 0.14300  0.43650  0.80140  Biso   1.000  O
  O50      1.0000 0.85700  0.56350  0.80140  Biso   1.000  O
  O51      1.0000 0.14300  0.56350  0.19860  Biso   1.000  O
  O52      1.0000 0.85700  0.43650  0.19860  Biso   1.000  O
  O53      1.0000 0.64300  0.93650  0.30140  Biso   1.000  O
  O54      1.0000 0.35700  0.06350  0.30140  Biso   1.000  O
  O55      1.0000 0.64300  0.06350  0.69860  Biso   1.000  O
  O56      1.0000 0.35700  0.93650  0.69860  Biso   1.000  O
  O57      1.0000 0.24698  0.26410  0.72565  Biso   1.000  O
  O58      1.0000 0.75302  0.73590  0.72565  Biso   1.000  O
  O59      1.0000 0.24698  0.73590  0.27435  Biso   1.000  O
  O60      1.0000 0.75302  0.26410  0.27435  Biso   1.000  O
  O61      1.0000 0.74698  0.76410  0.22565  Biso   1.000  O
  O62      1.0000 0.25302  0.23590  0.22565  Biso   1.000  O
  O63      1.0000 0.74698  0.23590  0.77435  Biso   1.000  O
  O64      1.0000 0.25302  0.76410  0.77435  Biso   1.000  O
  O65      1.0000 0.42490  0.37440  0.80430  Biso   1.000  O
  O66      1.0000 0.57510  0.62560  0.80430  Biso   1.000  O
  O67      1.0000 0.42490  0.62560  0.19570  Biso   1.000  O
  O68      1.0000 0.57510  0.37440  0.19570  Biso   1.000  O
  O69      1.0000 0.92490  0.87440  0.30430  Biso   1.000  O
  O70      1.0000 0.07510  0.12560  0.30430  Biso   1.000  O
  O71      1.0000 0.92490  0.12560  0.69570  Biso   1.000  O
  O72      1.0000 0.07510  0.87440  0.69570  Biso   1.000  O
  O73      1.0000 0.29180  0.43800  0.97360  Biso   1.000  O
  O74      1.0000 0.70820  0.56200  0.97360  Biso   1.000  O
  O75      1.0000 0.29180  0.56200  0.02640  Biso   1.000  O
  O76      1.0000 0.70820  0.43800  0.02640  Biso   1.000  O
  O77      1.0000 0.79180  0.93800  0.47360  Biso   1.000  O
  O78      1.0000 0.20820  0.06200  0.47360  Biso   1.000  O
  O79      1.0000 0.79180  0.06200  0.52640  Biso   1.000  O
  O80      1.0000 0.20820  0.93800  0.52640  Biso   1.000  O
  O81      1.0000 0.40872  0.29120  0.88060  Biso   1.000  O
  O82      1.0000 0.59128  0.70880  0.88060  Biso   1.000  O
  O83      1.0000 0.40872  0.70880  0.11940  Biso   1.000  O
  O84      1.0000 0.59128  0.29120  0.11940  Biso   1.000  O
  O85      1.0000 0.90872  0.79120  0.38060  Biso   1.000  O
  O86      1.0000 0.09128  0.20880  0.38060  Biso   1.000  O
  O87      1.0000 0.90872  0.20880  0.61940  Biso   1.000  O
  O88      1.0000 0.09128  0.79120  0.61940  Biso   1.000  O
  O89      1.0000 0.39200  0.16550  0.87050  Biso   1.000  O
  O90      1.0000 0.60800  0.83450  0.87050  Biso   1.000  O
  O91      1.0000 0.39200  0.83450  0.12950  Biso   1.000  O
  O92      1.0000 0.60800  0.16550  0.12950  Biso   1.000  O
  O93      1.0000 0.89200  0.66550  0.37050  Biso   1.000  O
  O94      1.0000 0.10800  0.33450  0.37050  Biso   1.000  O
  O95      1.0000 0.89200  0.33450  0.62950  Biso   1.000  O
  O96      1.0000 0.10800  0.66550  0.62950  Biso   1.000  O
  O97      1.0000 0.27980  0.10340  0.87133  Biso   1.000  O
  O98      1.0000 0.72020  0.89660  0.87133  Biso   1.000  O
  O99      1.0000 0.27980  0.89660  0.12867  Biso   1.000  O
  O100     1.0000 0.72020  0.10340  0.12867  Biso   1.000  O
  O101     1.0000 0.77980  0.60340  0.37133  Biso   1.000  O
  O102     1.0000 0.22020  0.39660  0.37133  Biso   1.000  O
  O103     1.0000 0.77980  0.39660  0.62867  Biso   1.000  O
  O104     1.0000 0.22020  0.60340  0.62867  Biso   1.000  O
  O105     1.0000 0.32330  0.23270  0.94020  Biso   1.000  O
  O106     1.0000 0.67670  0.76730  0.94020  Biso   1.000  O
  O107     1.0000 0.32330  0.76730  0.05980  Biso   1.000  O
  O108     1.0000 0.67670  0.23270  0.05980  Biso   1.000  O
  O109     1.0000 0.82330  0.73270  0.44020  Biso   1.000  O
  O110     1.0000 0.17670  0.26730  0.44020  Biso   1.000  O
  O111     1.0000 0.82330  0.26730  0.55980  Biso   1.000  O
  O112     1.0000 0.17670  0.73270  0.55980  Biso   1.000  O
  O113     1.0000 0.15510  0.12530  0.86635  Biso   1.000  O
  O114     1.0000 0.84490  0.87470  0.86635  Biso   1.000  O
  O115     1.0000 0.15510  0.87470  0.13365  Biso   1.000  O
  O116     1.0000 0.84490  0.12530  0.13365  Biso   1.000  O
  O117     1.0000 0.65510  0.62530  0.36635  Biso   1.000  O
  O118     1.0000 0.34490  0.37470  0.36635  Biso   1.000  O
  O119     1.0000 0.65510  0.37470  0.63365  Biso   1.000  O
  O120     1.0000 0.34490  0.62530  0.63365  Biso   1.000  O
  O121     1.0000 0.22470  0.17650  0.94741  Biso   1.000  O
  O122     1.0000 0.77530  0.82350  0.94741  Biso   1.000  O
  O123     1.0000 0.22470  0.82350  0.05259  Biso   1.000  O
  O124     1.0000 0.77530  0.17650  0.05259  Biso   1.000  O
  O125     1.0000 0.72470  0.67650  0.44741  Biso   1.000  O
  O126     1.0000 0.27530  0.32350  0.44741  Biso   1.000  O
  O127     1.0000 0.72470  0.32350  0.55259  Biso   1.000  O
  O128     1.0000 0.27530  0.67650  0.55259  Biso   1.000  O
  O129     1.0000 0.16802  0.27630  0.95070  Biso   1.000  O
  O130     1.0000 0.83198  0.72370  0.95070  Biso   1.000  O
  O131     1.0000 0.16802  0.72370  0.04930  Biso   1.000  O
  O132     1.0000 0.83198  0.27630  0.04930  Biso   1.000  O
  O133     1.0000 0.66802  0.77630  0.45070  Biso   1.000  O
  O134     1.0000 0.33198  0.22370  0.45070  Biso   1.000  O
  O135     1.0000 0.66802  0.22370  0.54930  Biso   1.000  O
  O136     1.0000 0.33198  0.77630  0.54930  Biso   1.000  O
  O137     1.0000 0.19000  0.23290  0.82220  Biso   1.000  O
  O138     1.0000 0.81000  0.76710  0.82220  Biso   1.000  O
  O139     1.0000 0.19000  0.76710  0.17780  Biso   1.000  O
  O140     1.0000 0.81000  0.23290  0.17780  Biso   1.000  O
  O141     1.0000 0.69000  0.73290  0.32220  Biso   1.000  O
  O142     1.0000 0.31000  0.26710  0.32220  Biso   1.000  O
  O143     1.0000 0.69000  0.26710  0.67780  Biso   1.000  O
  O144     1.0000 0.31000  0.73290  0.67780  Biso   1.000  O
  O145     1.0000 0.26680  0.32960  0.94000  Biso   1.000  O
  O146     1.0000 0.73320  0.67040  0.94000  Biso   1.000  O
  O147     1.0000 0.26680  0.67040  0.06000  Biso   1.000  O
  O148     1.0000 0.73320  0.32960  0.06000  Biso   1.000  O
  O149     1.0000 0.76680  0.82960  0.44000  Biso   1.000  O
  O150     1.0000 0.23320  0.17040  0.44000  Biso   1.000  O
  O151     1.0000 0.76680  0.17040  0.56000  Biso   1.000  O
  O152     1.0000 0.23320  0.82960  0.56000  Biso   1.000  O
  O153     1.0000 0.29700  0.20600  0.81080  Biso   1.000  O
  O154     1.0000 0.70300  0.79400  0.81080  Biso   1.000  O
  O155     1.0000 0.29700  0.79400  0.18920  Biso   1.000  O
  O156     1.0000 0.70300  0.20600  0.18920  Biso   1.000  O
  O157     1.0000 0.79700  0.70600  0.31080  Biso   1.000  O
  O158     1.0000 0.20300  0.29400  0.31080  Biso   1.000  O
  O159     1.0000 0.79700  0.29400  0.68920  Biso   1.000  O
  O160     1.0000 0.20300  0.70600  0.68920  Biso   1.000  O
  O161     1.0000 0.32310  0.31660  0.80150  Biso   1.000  O
  O162     1.0000 0.67690  0.68340  0.80150  Biso   1.000  O
  O163     1.0000 0.32310  0.68340  0.19850  Biso   1.000  O
  O164     1.0000 0.67690  0.31660  0.19850  Biso   1.000  O
  O165     1.0000 0.82310  0.81660  0.30150  Biso   1.000  O
  O166     1.0000 0.17690  0.18340  0.30150  Biso   1.000  O
  O167     1.0000 0.82310  0.18340  0.69850  Biso   1.000  O
  O168     1.0000 0.17690  0.81660  0.69850  Biso   1.000  O
  O169     1.0000 0.34410  0.40140  0.88230  Biso   1.000  O
  O170     1.0000 0.65590  0.59860  0.88230  Biso   1.000  O
  O171     1.0000 0.34410  0.59860  0.11770  Biso   1.000  O
  O172     1.0000 0.65590  0.40140  0.11770  Biso   1.000  O
  O173     1.0000 0.84410  0.90140  0.38230  Biso   1.000  O
  O174     1.0000 0.15590  0.09860  0.38230  Biso   1.000  O
  O175     1.0000 0.84410  0.09860  0.61770  Biso   1.000  O
  O176     1.0000 0.15590  0.90140  0.61770  Biso   1.000  O
  O177     1.0000 0.21890  0.42830  0.88628  Biso   1.000  O
  O178     1.0000 0.78110  0.57170  0.88628  Biso   1.000  O
  O179     1.0000 0.21890  0.57170  0.11372  Biso   1.000  O
  O180     1.0000 0.78110  0.42830  0.11372  Biso   1.000  O
  O181     1.0000 0.71890  0.92830  0.38628  Biso   1.000  O
  O182     1.0000 0.28110  0.07170  0.38628  Biso   1.000  O
  O183     1.0000 0.71890  0.07170  0.61372  Biso   1.000  O
  O184     1.0000 0.28110  0.92830  0.61372  Biso   1.000  O
  O185     1.0000 0.21050  0.34270  0.80480  Biso   1.000  O
  O186     1.0000 0.78950  0.65730  0.80480  Biso   1.000  O
  O187     1.0000 0.21050  0.65730  0.19520  Biso   1.000  O
  O188     1.0000 0.78950  0.34270  0.19520  Biso   1.000  O
  O189     1.0000 0.71050  0.84270  0.30480  Biso   1.000  O
  O190     1.0000 0.28950  0.15730  0.30480  Biso   1.000  O
  O191     1.0000 0.71050  0.15730  0.69520  Biso   1.000  O
  O192     1.0000 0.28950  0.84270  0.69520  Biso   1.000  O
  O193     1.0000 0.11490  0.35500  0.87760  Biso   1.000  O
  O194     1.0000 0.88510  0.64500  0.87760  Biso   1.000  O
  O195     1.0000 0.11490  0.64500  0.12240  Biso   1.000  O
  O196     1.0000 0.88510  0.35500  0.12240  Biso   1.000  O
  O197     1.0000 0.61490  0.85500  0.37760  Biso   1.000  O
  O198     1.0000 0.38510  0.14500  0.37760  Biso   1.000  O
  O199     1.0000 0.61490  0.14500  0.62240  Biso   1.000  O
  O200     1.0000 0.38510  0.85500  0.62240  Biso   1.000  O
  O201     1.0000 0.08401  0.23090  0.87784  Biso   1.000  O
  O202     1.0000 0.91599  0.76910  0.87784  Biso   1.000  O
  O203     1.0000 0.08401  0.76910  0.12216  Biso   1.000  O
  O204     1.0000 0.91599  0.23090  0.12216  Biso   1.000  O
  O205     1.0000 0.58401  0.73090  0.37784  Biso   1.000  O
  O206     1.0000 0.41599  0.26910  0.37784  Biso   1.000  O
  O207     1.0000 0.58401  0.26910  0.62216  Biso   1.000  O
  O208     1.0000 0.41599  0.73090  0.62216  Biso   1.000  O
  O209     1.0000 0.11340  0.00000  0.00000  Biso   1.000  O
  O210     1.0000 0.88660  0.00000  0.00000  Biso   1.000  O
  O211     1.0000 0.61340  0.50000  0.50000  Biso   1.000  O
  O212     1.0000 0.38660  0.50000  0.50000  Biso   1.000  O
  O213     1.0000 0.50000  0.11850  0.00000  Biso   1.000  O
  O214     1.0000 0.50000  0.88150  0.00000  Biso   1.000  O
  O215     1.0000 0.00000  0.61850  0.50000  Biso   1.000  O
  O216     1.0000 0.00000  0.38150  0.50000  Biso   1.000  O
