data_image0
_cell_length_a       20.84
_cell_length_b       25.57
_cell_length_c       28.74
_cell_angle_alpha    90
_cell_angle_beta     90
_cell_angle_gamma    90

_symmetry_space_group_name_H-M    "P 1"
_symmetry_int_tables_number       1

loop_
  _symmetry_equiv_pos_as_xyz
  'x, y, z'

loop_
  _atom_site_label
  _atom_site_occupancy
  _atom_site_fract_x
  _atom_site_fract_y
  _atom_site_fract_z
  _atom_site_thermal_displace_type
  _atom_site_B_iso_or_equiv
  _atom_site_type_symbol
  Cu1      1.0000 0.82525  0.64385  0.07618  Biso   1.000  Cu
  Cu2      1.0000 0.42475  0.60615  0.07618  Biso   1.000  Cu
  Cu3      1.0000 0.82525  0.60615  0.17382  Biso   1.000  Cu
  Cu4      1.0000 0.42475  0.64385  0.17382  Biso   1.000  Cu
  Cu5      1.0000 0.82525  0.14385  0.57618  Biso   1.000  Cu
  Cu6      1.0000 0.42475  0.10615  0.57618  Biso   1.000  Cu
  Cu7      1.0000 0.82525  0.10615  0.67382  Biso   1.000  Cu
  Cu8      1.0000 0.42475  0.14385  0.67382  Biso   1.000  Cu
  Cu9      1.0000 0.32525  0.64385  0.57618  Biso   1.000  Cu
  Cu10     1.0000 0.92475  0.60615  0.57618  Biso   1.000  Cu
  Cu11     1.0000 0.32525  0.60615  0.67382  Biso   1.000  Cu
  Cu12     1.0000 0.92475  0.64385  0.67382  Biso   1.000  Cu
  Cu13     1.0000 0.32525  0.14385  0.07618  Biso   1.000  Cu
  Cu14     1.0000 0.92475  0.10615  0.07618  Biso   1.000  Cu
  Cu15     1.0000 0.32525  0.10615  0.17382  Biso   1.000  Cu
  Cu16     1.0000 0.92475  0.14385  0.17382  Biso   1.000  Cu
  Cu17     1.0000 0.17475  0.35615  0.92382  Biso   1.000  Cu
  Cu18     1.0000 0.07525  0.89385  0.92382  Biso   1.000  Cu
  Cu19     1.0000 0.17475  0.89385  0.32618  Biso   1.000  Cu
  Cu20     1.0000 0.07525  0.35615  0.32618  Biso   1.000  Cu
  Cu21     1.0000 0.17475  0.85615  0.42382  Biso   1.000  Cu
  Cu22     1.0000 0.07525  0.39385  0.42382  Biso   1.000  Cu
  Cu23     1.0000 0.17475  0.39385  0.82618  Biso   1.000  Cu
  Cu24     1.0000 0.07525  0.85615  0.82618  Biso   1.000  Cu
  Cu25     1.0000 0.67475  0.35615  0.42382  Biso   1.000  Cu
  Cu26     1.0000 0.57525  0.89385  0.42382  Biso   1.000  Cu
  Cu27     1.0000 0.67475  0.89385  0.82618  Biso   1.000  Cu
  Cu28     1.0000 0.57525  0.35615  0.82618  Biso   1.000  Cu
  Cu29     1.0000 0.67475  0.85615  0.92382  Biso   1.000  Cu
  Cu30     1.0000 0.57525  0.39385  0.92382  Biso   1.000  Cu
  Cu31     1.0000 0.67475  0.39385  0.32618  Biso   1.000  Cu
  Cu32     1.0000 0.57525  0.85615  0.32618  Biso   1.000  Cu
  Cu33     1.0000 0.91989  0.56799  0.10805  Biso   1.000  Cu
  Cu34     1.0000 0.33011  0.68201  0.10805  Biso   1.000  Cu
  Cu35     1.0000 0.91989  0.68201  0.14195  Biso   1.000  Cu
  Cu36     1.0000 0.33011  0.56799  0.14195  Biso   1.000  Cu
  Cu37     1.0000 0.91989  0.06799  0.60805  Biso   1.000  Cu
  Cu38     1.0000 0.33011  0.18201  0.60805  Biso   1.000  Cu
  Cu39     1.0000 0.91989  0.18201  0.64195  Biso   1.000  Cu
  Cu40     1.0000 0.33011  0.06799  0.64195  Biso   1.000  Cu
  Cu41     1.0000 0.41989  0.56799  0.60805  Biso   1.000  Cu
  Cu42     1.0000 0.83011  0.68201  0.60805  Biso   1.000  Cu
  Cu43     1.0000 0.41989  0.68201  0.64195  Biso   1.000  Cu
  Cu44     1.0000 0.83011  0.56799  0.64195  Biso   1.000  Cu
  Cu45     1.0000 0.41989  0.06799  0.10805  Biso   1.000  Cu
  Cu46     1.0000 0.83011  0.18201  0.10805  Biso   1.000  Cu
  Cu47     1.0000 0.41989  0.18201  0.14195  Biso   1.000  Cu
  Cu48     1.0000 0.83011  0.06799  0.14195  Biso   1.000  Cu
  Cu49     1.0000 0.08011  0.43201  0.89195  Biso   1.000  Cu
  Cu50     1.0000 0.16989  0.81799  0.89195  Biso   1.000  Cu
  Cu51     1.0000 0.08011  0.81799  0.35805  Biso   1.000  Cu
  Cu52     1.0000 0.16989  0.43201  0.35805  Biso   1.000  Cu
  Cu53     1.0000 0.08011  0.93201  0.39195  Biso   1.000  Cu
  Cu54     1.0000 0.16989  0.31799  0.39195  Biso   1.000  Cu
  Cu55     1.0000 0.08011  0.31799  0.85805  Biso   1.000  Cu
  Cu56     1.0000 0.16989  0.93201  0.85805  Biso   1.000  Cu
  Cu57     1.0000 0.58011  0.43201  0.39195  Biso   1.000  Cu
  Cu58     1.0000 0.66989  0.81799  0.39195  Biso   1.000  Cu
  Cu59     1.0000 0.58011  0.81799  0.85805  Biso   1.000  Cu
  Cu60     1.0000 0.66989  0.43201  0.85805  Biso   1.000  Cu
  Cu61     1.0000 0.58011  0.93201  0.89195  Biso   1.000  Cu
  Cu62     1.0000 0.66989  0.31799  0.89195  Biso   1.000  Cu
  Cu63     1.0000 0.58011  0.31799  0.35805  Biso   1.000  Cu
  Cu64     1.0000 0.66989  0.93201  0.35805  Biso   1.000  Cu
  Cl1      1.0000 0.93992  0.65283  0.06563  Biso   1.000  Cl
  Cl2      1.0000 0.31008  0.59717  0.06563  Biso   1.000  Cl
  Cl3      1.0000 0.93992  0.59717  0.18437  Biso   1.000  Cl
  Cl4      1.0000 0.31008  0.65283  0.18437  Biso   1.000  Cl
  Cl5      1.0000 0.93992  0.15283  0.56563  Biso   1.000  Cl
  Cl6      1.0000 0.31008  0.09717  0.56563  Biso   1.000  Cl
  Cl7      1.0000 0.93992  0.09717  0.68437  Biso   1.000  Cl
  Cl8      1.0000 0.31008  0.15283  0.68437  Biso   1.000  Cl
  Cl9      1.0000 0.43992  0.65283  0.56563  Biso   1.000  Cl
  Cl10     1.0000 0.81008  0.59717  0.56563  Biso   1.000  Cl
  Cl11     1.0000 0.43992  0.59717  0.68437  Biso   1.000  Cl
  Cl12     1.0000 0.81008  0.65283  0.68437  Biso   1.000  Cl
  Cl13     1.0000 0.43992  0.15283  0.06563  Biso   1.000  Cl
  Cl14     1.0000 0.81008  0.09717  0.06563  Biso   1.000  Cl
  Cl15     1.0000 0.43992  0.09717  0.18437  Biso   1.000  Cl
  Cl16     1.0000 0.81008  0.15283  0.18437  Biso   1.000  Cl
  Cl17     1.0000 0.06008  0.34717  0.93437  Biso   1.000  Cl
  Cl18     1.0000 0.18992  0.90283  0.93437  Biso   1.000  Cl
  Cl19     1.0000 0.06008  0.90283  0.31563  Biso   1.000  Cl
  Cl20     1.0000 0.18992  0.34717  0.31563  Biso   1.000  Cl
  Cl21     1.0000 0.06008  0.84717  0.43437  Biso   1.000  Cl
  Cl22     1.0000 0.18992  0.40283  0.43437  Biso   1.000  Cl
  Cl23     1.0000 0.06008  0.40283  0.81563  Biso   1.000  Cl
  Cl24     1.0000 0.18992  0.84717  0.81563  Biso   1.000  Cl
  Cl25     1.0000 0.56008  0.34717  0.43437  Biso   1.000  Cl
  Cl26     1.0000 0.68992  0.90283  0.43437  Biso   1.000  Cl
  Cl27     1.0000 0.56008  0.90283  0.81563  Biso   1.000  Cl
  Cl28     1.0000 0.68992  0.34717  0.81563  Biso   1.000  Cl
  Cl29     1.0000 0.56008  0.84717  0.93437  Biso   1.000  Cl
  Cl30     1.0000 0.68992  0.40283  0.93437  Biso   1.000  Cl
  Cl31     1.0000 0.56008  0.40283  0.31563  Biso   1.000  Cl
  Cl32     1.0000 0.68992  0.84717  0.31563  Biso   1.000  Cl
  Cl33     1.0000 0.80567  0.55608  0.10165  Biso   1.000  Cl
  Cl34     1.0000 0.44433  0.69392  0.10165  Biso   1.000  Cl
  Cl35     1.0000 0.80567  0.69392  0.14835  Biso   1.000  Cl
  Cl36     1.0000 0.44433  0.55608  0.14835  Biso   1.000  Cl
  Cl37     1.0000 0.80567  0.05608  0.60165  Biso   1.000  Cl
  Cl38     1.0000 0.44433  0.19392  0.60165  Biso   1.000  Cl
  Cl39     1.0000 0.80567  0.19392  0.64835  Biso   1.000  Cl
  Cl40     1.0000 0.44433  0.05608  0.64835  Biso   1.000  Cl
  Cl41     1.0000 0.30567  0.55608  0.60165  Biso   1.000  Cl
  Cl42     1.0000 0.94433  0.69392  0.60165  Biso   1.000  Cl
  Cl43     1.0000 0.30567  0.69392  0.64835  Biso   1.000  Cl
  Cl44     1.0000 0.94433  0.55608  0.64835  Biso   1.000  Cl
  Cl45     1.0000 0.30567  0.05608  0.10165  Biso   1.000  Cl
  Cl46     1.0000 0.94433  0.19392  0.10165  Biso   1.000  Cl
  Cl47     1.0000 0.30567  0.19392  0.14835  Biso   1.000  Cl
  Cl48     1.0000 0.94433  0.05608  0.14835  Biso   1.000  Cl
  Cl49     1.0000 0.19433  0.44392  0.89835  Biso   1.000  Cl
  Cl50     1.0000 0.05567  0.80608  0.89835  Biso   1.000  Cl
  Cl51     1.0000 0.19433  0.80608  0.35165  Biso   1.000  Cl
  Cl52     1.0000 0.05567  0.44392  0.35165  Biso   1.000  Cl
  Cl53     1.0000 0.19433  0.94392  0.39835  Biso   1.000  Cl
  Cl54     1.0000 0.05567  0.30608  0.39835  Biso   1.000  Cl
  Cl55     1.0000 0.19433  0.30608  0.85165  Biso   1.000  Cl
  Cl56     1.0000 0.05567  0.94392  0.85165  Biso   1.000  Cl
  Cl57     1.0000 0.69433  0.44392  0.39835  Biso   1.000  Cl
  Cl58     1.0000 0.55567  0.80608  0.39835  Biso   1.000  Cl
  Cl59     1.0000 0.69433  0.80608  0.85165  Biso   1.000  Cl
  Cl60     1.0000 0.55567  0.44392  0.85165  Biso   1.000  Cl
  Cl61     1.0000 0.69433  0.94392  0.89835  Biso   1.000  Cl
  Cl62     1.0000 0.55567  0.30608  0.89835  Biso   1.000  Cl
  Cl63     1.0000 0.69433  0.30608  0.35165  Biso   1.000  Cl
  Cl64     1.0000 0.55567  0.94392  0.35165  Biso   1.000  Cl
  N1       1.0000 0.75530  0.68590  0.95070  Biso   1.000  N
  N2       1.0000 0.49470  0.56410  0.95070  Biso   1.000  N
  N3       1.0000 0.75530  0.56410  0.29930  Biso   1.000  N
  N4       1.0000 0.49470  0.68590  0.29930  Biso   1.000  N
  N5       1.0000 0.75530  0.18590  0.45070  Biso   1.000  N
  N6       1.0000 0.49470  0.06410  0.45070  Biso   1.000  N
  N7       1.0000 0.75530  0.06410  0.79930  Biso   1.000  N
  N8       1.0000 0.49470  0.18590  0.79930  Biso   1.000  N
  N9       1.0000 0.25530  0.68590  0.45070  Biso   1.000  N
  N10      1.0000 0.99470  0.56410  0.45070  Biso   1.000  N
  N11      1.0000 0.25530  0.56410  0.79930  Biso   1.000  N
  N12      1.0000 0.99470  0.68590  0.79930  Biso   1.000  N
  N13      1.0000 0.25530  0.18590  0.95070  Biso   1.000  N
  N14      1.0000 0.99470  0.06410  0.95070  Biso   1.000  N
  N15      1.0000 0.25530  0.06410  0.29930  Biso   1.000  N
  N16      1.0000 0.99470  0.18590  0.29930  Biso   1.000  N
  N17      1.0000 0.24470  0.31410  0.04930  Biso   1.000  N
  N18      1.0000 0.00530  0.93590  0.04930  Biso   1.000  N
  N19      1.0000 0.24470  0.93590  0.20070  Biso   1.000  N
  N20      1.0000 0.00530  0.31410  0.20070  Biso   1.000  N
  N21      1.0000 0.24470  0.81410  0.54930  Biso   1.000  N
  N22      1.0000 0.00530  0.43590  0.54930  Biso   1.000  N
  N23      1.0000 0.24470  0.43590  0.70070  Biso   1.000  N
  N24      1.0000 0.00530  0.81410  0.70070  Biso   1.000  N
  N25      1.0000 0.74470  0.31410  0.54930  Biso   1.000  N
  N26      1.0000 0.50530  0.93590  0.54930  Biso   1.000  N
  N27      1.0000 0.74470  0.93590  0.70070  Biso   1.000  N
  N28      1.0000 0.50530  0.31410  0.70070  Biso   1.000  N
  N29      1.0000 0.74470  0.81410  0.04930  Biso   1.000  N
  N30      1.0000 0.50530  0.43590  0.04930  Biso   1.000  N
  N31      1.0000 0.74470  0.43590  0.20070  Biso   1.000  N
  N32      1.0000 0.50530  0.81410  0.20070  Biso   1.000  N
  N33      1.0000 0.79920  0.66770  0.98060  Biso   1.000  N
  N34      1.0000 0.45080  0.58230  0.98060  Biso   1.000  N
  N35      1.0000 0.79920  0.58230  0.26940  Biso   1.000  N
  N36      1.0000 0.45080  0.66770  0.26940  Biso   1.000  N
  N37      1.0000 0.79920  0.16770  0.48060  Biso   1.000  N
  N38      1.0000 0.45080  0.08230  0.48060  Biso   1.000  N
  N39      1.0000 0.79920  0.08230  0.76940  Biso   1.000  N
  N40      1.0000 0.45080  0.16770  0.76940  Biso   1.000  N
  N41      1.0000 0.29920  0.66770  0.48060  Biso   1.000  N
  N42      1.0000 0.95080  0.58230  0.48060  Biso   1.000  N
  N43      1.0000 0.29920  0.58230  0.76940  Biso   1.000  N
  N44      1.0000 0.95080  0.66770  0.76940  Biso   1.000  N
  N45      1.0000 0.29920  0.16770  0.98060  Biso   1.000  N
  N46      1.0000 0.95080  0.08230  0.98060  Biso   1.000  N
  N47      1.0000 0.29920  0.08230  0.26940  Biso   1.000  N
  N48      1.0000 0.95080  0.16770  0.26940  Biso   1.000  N
  N49      1.0000 0.20080  0.33230  0.01940  Biso   1.000  N
  N50      1.0000 0.04920  0.91770  0.01940  Biso   1.000  N
  N51      1.0000 0.20080  0.91770  0.23060  Biso   1.000  N
  N52      1.0000 0.04920  0.33230  0.23060  Biso   1.000  N
  N53      1.0000 0.20080  0.83230  0.51940  Biso   1.000  N
  N54      1.0000 0.04920  0.41770  0.51940  Biso   1.000  N
  N55      1.0000 0.20080  0.41770  0.73060  Biso   1.000  N
  N56      1.0000 0.04920  0.83230  0.73060  Biso   1.000  N
  N57      1.0000 0.70080  0.33230  0.51940  Biso   1.000  N
  N58      1.0000 0.54920  0.91770  0.51940  Biso   1.000  N
  N59      1.0000 0.70080  0.91770  0.73060  Biso   1.000  N
  N60      1.0000 0.54920  0.33230  0.73060  Biso   1.000  N
  N61      1.0000 0.70080  0.83230  0.01940  Biso   1.000  N
  N62      1.0000 0.54920  0.41770  0.01940  Biso   1.000  N
  N63      1.0000 0.70080  0.41770  0.23060  Biso   1.000  N
  N64      1.0000 0.54920  0.83230  0.23060  Biso   1.000  N
  N65      1.0000 0.77440  0.66530  0.02180  Biso   1.000  N
  N66      1.0000 0.47560  0.58470  0.02180  Biso   1.000  N
  N67      1.0000 0.77440  0.58470  0.22820  Biso   1.000  N
  N68      1.0000 0.47560  0.66530  0.22820  Biso   1.000  N
  N69      1.0000 0.77440  0.16530  0.52180  Biso   1.000  N
  N70      1.0000 0.47560  0.08470  0.52180  Biso   1.000  N
  N71      1.0000 0.77440  0.08470  0.72820  Biso   1.000  N
  N72      1.0000 0.47560  0.16530  0.72820  Biso   1.000  N
  N73      1.0000 0.27440  0.66530  0.52180  Biso   1.000  N
  N74      1.0000 0.97560  0.58470  0.52180  Biso   1.000  N
  N75      1.0000 0.27440  0.58470  0.72820  Biso   1.000  N
  N76      1.0000 0.97560  0.66530  0.72820  Biso   1.000  N
  N77      1.0000 0.27440  0.16530  0.02180  Biso   1.000  N
  N78      1.0000 0.97560  0.08470  0.02180  Biso   1.000  N
  N79      1.0000 0.27440  0.08470  0.22820  Biso   1.000  N
  N80      1.0000 0.97560  0.16530  0.22820  Biso   1.000  N
  N81      1.0000 0.22560  0.33470  0.97820  Biso   1.000  N
  N82      1.0000 0.02440  0.91530  0.97820  Biso   1.000  N
  N83      1.0000 0.22560  0.91530  0.27180  Biso   1.000  N
  N84      1.0000 0.02440  0.33470  0.27180  Biso   1.000  N
  N85      1.0000 0.22560  0.83470  0.47820  Biso   1.000  N
  N86      1.0000 0.02440  0.41530  0.47820  Biso   1.000  N
  N87      1.0000 0.22560  0.41530  0.77180  Biso   1.000  N
  N88      1.0000 0.02440  0.83470  0.77180  Biso   1.000  N
  N89      1.0000 0.72560  0.33470  0.47820  Biso   1.000  N
  N90      1.0000 0.52440  0.91530  0.47820  Biso   1.000  N
  N91      1.0000 0.72560  0.91530  0.77180  Biso   1.000  N
  N92      1.0000 0.52440  0.33470  0.77180  Biso   1.000  N
  N93      1.0000 0.72560  0.83470  0.97820  Biso   1.000  N
  N94      1.0000 0.52440  0.41530  0.97820  Biso   1.000  N
  N95      1.0000 0.72560  0.41530  0.27180  Biso   1.000  N
  N96      1.0000 0.52440  0.83470  0.27180  Biso   1.000  N
  N97      1.0000 0.74000  0.56570  0.80130  Biso   1.000  N
  N98      1.0000 0.51000  0.68430  0.80130  Biso   1.000  N
  N99      1.0000 0.74000  0.68430  0.44870  Biso   1.000  N
  N100     1.0000 0.51000  0.56570  0.44870  Biso   1.000  N
  N101     1.0000 0.74000  0.06570  0.30130  Biso   1.000  N
  N102     1.0000 0.51000  0.18430  0.30130  Biso   1.000  N
  N103     1.0000 0.74000  0.18430  0.94870  Biso   1.000  N
  N104     1.0000 0.51000  0.06570  0.94870  Biso   1.000  N
  N105     1.0000 0.24000  0.56570  0.30130  Biso   1.000  N
  N106     1.0000 0.01000  0.68430  0.30130  Biso   1.000  N
  N107     1.0000 0.24000  0.68430  0.94870  Biso   1.000  N
  N108     1.0000 0.01000  0.56570  0.94870  Biso   1.000  N
  N109     1.0000 0.24000  0.06570  0.80130  Biso   1.000  N
  N110     1.0000 0.01000  0.18430  0.80130  Biso   1.000  N
  N111     1.0000 0.24000  0.18430  0.44870  Biso   1.000  N
  N112     1.0000 0.01000  0.06570  0.44870  Biso   1.000  N
  N113     1.0000 0.26000  0.43430  0.19870  Biso   1.000  N
  N114     1.0000 0.99000  0.81570  0.19870  Biso   1.000  N
  N115     1.0000 0.26000  0.81570  0.05130  Biso   1.000  N
  N116     1.0000 0.99000  0.43430  0.05130  Biso   1.000  N
  N117     1.0000 0.26000  0.93430  0.69870  Biso   1.000  N
  N118     1.0000 0.99000  0.31570  0.69870  Biso   1.000  N
  N119     1.0000 0.26000  0.31570  0.55130  Biso   1.000  N
  N120     1.0000 0.99000  0.93430  0.55130  Biso   1.000  N
  N121     1.0000 0.76000  0.43430  0.69870  Biso   1.000  N
  N122     1.0000 0.49000  0.81570  0.69870  Biso   1.000  N
  N123     1.0000 0.76000  0.81570  0.55130  Biso   1.000  N
  N124     1.0000 0.49000  0.43430  0.55130  Biso   1.000  N
  N125     1.0000 0.76000  0.93430  0.19870  Biso   1.000  N
  N126     1.0000 0.49000  0.31570  0.19870  Biso   1.000  N
  N127     1.0000 0.76000  0.31570  0.05130  Biso   1.000  N
  N128     1.0000 0.49000  0.93430  0.05130  Biso   1.000  N
  N129     1.0000 0.69460  0.53570  0.82210  Biso   1.000  N
  N130     1.0000 0.55540  0.71430  0.82210  Biso   1.000  N
  N131     1.0000 0.69460  0.71430  0.42790  Biso   1.000  N
  N132     1.0000 0.55540  0.53570  0.42790  Biso   1.000  N
  N133     1.0000 0.69460  0.03570  0.32210  Biso   1.000  N
  N134     1.0000 0.55540  0.21430  0.32210  Biso   1.000  N
  N135     1.0000 0.69460  0.21430  0.92790  Biso   1.000  N
  N136     1.0000 0.55540  0.03570  0.92790  Biso   1.000  N
  N137     1.0000 0.19460  0.53570  0.32210  Biso   1.000  N
  N138     1.0000 0.05540  0.71430  0.32210  Biso   1.000  N
  N139     1.0000 0.19460  0.71430  0.92790  Biso   1.000  N
  N140     1.0000 0.05540  0.53570  0.92790  Biso   1.000  N
  N141     1.0000 0.19460  0.03570  0.82210  Biso   1.000  N
  N142     1.0000 0.05540  0.21430  0.82210  Biso   1.000  N
  N143     1.0000 0.19460  0.21430  0.42790  Biso   1.000  N
  N144     1.0000 0.05540  0.03570  0.42790  Biso   1.000  N
  N145     1.0000 0.30540  0.46430  0.17790  Biso   1.000  N
  N146     1.0000 0.94460  0.78570  0.17790  Biso   1.000  N
  N147     1.0000 0.30540  0.78570  0.07210  Biso   1.000  N
  N148     1.0000 0.94460  0.46430  0.07210  Biso   1.000  N
  N149     1.0000 0.30540  0.96430  0.67790  Biso   1.000  N
  N150     1.0000 0.94460  0.28570  0.67790  Biso   1.000  N
  N151     1.0000 0.30540  0.28570  0.57210  Biso   1.000  N
  N152     1.0000 0.94460  0.96430  0.57210  Biso   1.000  N
  N153     1.0000 0.80540  0.46430  0.67790  Biso   1.000  N
  N154     1.0000 0.44460  0.78570  0.67790  Biso   1.000  N
  N155     1.0000 0.80540  0.78570  0.57210  Biso   1.000  N
  N156     1.0000 0.44460  0.46430  0.57210  Biso   1.000  N
  N157     1.0000 0.80540  0.96430  0.17790  Biso   1.000  N
  N158     1.0000 0.44460  0.28570  0.17790  Biso   1.000  N
  N159     1.0000 0.80540  0.28570  0.07210  Biso   1.000  N
  N160     1.0000 0.44460  0.96430  0.07210  Biso   1.000  N
  N161     1.0000 0.72040  0.48990  0.83140  Biso   1.000  N
  N162     1.0000 0.52960  0.76010  0.83140  Biso   1.000  N
  N163     1.0000 0.72040  0.76010  0.41860  Biso   1.000  N
  N164     1.0000 0.52960  0.48990  0.41860  Biso   1.000  N
  N165     1.0000 0.72040  0.98990  0.33140  Biso   1.000  N
  N166     1.0000 0.52960  0.26010  0.33140  Biso   1.000  N
  N167     1.0000 0.72040  0.26010  0.91860  Biso   1.000  N
  N168     1.0000 0.52960  0.98990  0.91860  Biso   1.000  N
  N169     1.0000 0.22040  0.48990  0.33140  Biso   1.000  N
  N170     1.0000 0.02960  0.76010  0.33140  Biso   1.000  N
  N171     1.0000 0.22040  0.76010  0.91860  Biso   1.000  N
  N172     1.0000 0.02960  0.48990  0.91860  Biso   1.000  N
  N173     1.0000 0.22040  0.98990  0.83140  Biso   1.000  N
  N174     1.0000 0.02960  0.26010  0.83140  Biso   1.000  N
  N175     1.0000 0.22040  0.26010  0.41860  Biso   1.000  N
  N176     1.0000 0.02960  0.98990  0.41860  Biso   1.000  N
  N177     1.0000 0.27960  0.51010  0.16860  Biso   1.000  N
  N178     1.0000 0.97040  0.73990  0.16860  Biso   1.000  N
  N179     1.0000 0.27960  0.73990  0.08140  Biso   1.000  N
  N180     1.0000 0.97040  0.51010  0.08140  Biso   1.000  N
  N181     1.0000 0.27960  0.01010  0.66860  Biso   1.000  N
  N182     1.0000 0.97040  0.23990  0.66860  Biso   1.000  N
  N183     1.0000 0.27960  0.23990  0.58140  Biso   1.000  N
  N184     1.0000 0.97040  0.01010  0.58140  Biso   1.000  N
  N185     1.0000 0.77960  0.51010  0.66860  Biso   1.000  N
  N186     1.0000 0.47040  0.73990  0.66860  Biso   1.000  N
  N187     1.0000 0.77960  0.73990  0.58140  Biso   1.000  N
  N188     1.0000 0.47040  0.51010  0.58140  Biso   1.000  N
  N189     1.0000 0.77960  0.01010  0.16860  Biso   1.000  N
  N190     1.0000 0.47040  0.23990  0.16860  Biso   1.000  N
  N191     1.0000 0.77960  0.23990  0.08140  Biso   1.000  N
  N192     1.0000 0.47040  0.01010  0.08140  Biso   1.000  N
  C1       1.0000 0.71140  0.68200  0.01990  Biso   1.000  C
  C2       1.0000 0.53860  0.56800  0.01990  Biso   1.000  C
  C3       1.0000 0.71140  0.56800  0.23010  Biso   1.000  C
  C4       1.0000 0.53860  0.68200  0.23010  Biso   1.000  C
  C5       1.0000 0.71140  0.18200  0.51990  Biso   1.000  C
  C6       1.0000 0.53860  0.06800  0.51990  Biso   1.000  C
  C7       1.0000 0.71140  0.06800  0.73010  Biso   1.000  C
  C8       1.0000 0.53860  0.18200  0.73010  Biso   1.000  C
  C9       1.0000 0.21140  0.68200  0.51990  Biso   1.000  C
  C10      1.0000 0.03860  0.56800  0.51990  Biso   1.000  C
  C11      1.0000 0.21140  0.56800  0.73010  Biso   1.000  C
  C12      1.0000 0.03860  0.68200  0.73010  Biso   1.000  C
  C13      1.0000 0.21140  0.18200  0.01990  Biso   1.000  C
  C14      1.0000 0.03860  0.06800  0.01990  Biso   1.000  C
  C15      1.0000 0.21140  0.06800  0.23010  Biso   1.000  C
  C16      1.0000 0.03860  0.18200  0.23010  Biso   1.000  C
  C17      1.0000 0.28860  0.31800  0.98010  Biso   1.000  C
  C18      1.0000 0.96140  0.93200  0.98010  Biso   1.000  C
  C19      1.0000 0.28860  0.93200  0.26990  Biso   1.000  C
  C20      1.0000 0.96140  0.31800  0.26990  Biso   1.000  C
  C21      1.0000 0.28860  0.81800  0.48010  Biso   1.000  C
  C22      1.0000 0.96140  0.43200  0.48010  Biso   1.000  C
  C23      1.0000 0.28860  0.43200  0.76990  Biso   1.000  C
  C24      1.0000 0.96140  0.81800  0.76990  Biso   1.000  C
  C25      1.0000 0.78860  0.31800  0.48010  Biso   1.000  C
  C26      1.0000 0.46140  0.93200  0.48010  Biso   1.000  C
  C27      1.0000 0.78860  0.93200  0.76990  Biso   1.000  C
  C28      1.0000 0.46140  0.31800  0.76990  Biso   1.000  C
  C29      1.0000 0.78860  0.81800  0.98010  Biso   1.000  C
  C30      1.0000 0.46140  0.43200  0.98010  Biso   1.000  C
  C31      1.0000 0.78860  0.43200  0.26990  Biso   1.000  C
  C32      1.0000 0.46140  0.81800  0.26990  Biso   1.000  C
  C33      1.0000 0.69920  0.69420  0.97420  Biso   1.000  C
  C34      1.0000 0.55080  0.55580  0.97420  Biso   1.000  C
  C35      1.0000 0.69920  0.55580  0.27580  Biso   1.000  C
  C36      1.0000 0.55080  0.69420  0.27580  Biso   1.000  C
  C37      1.0000 0.69920  0.19420  0.47420  Biso   1.000  C
  C38      1.0000 0.55080  0.05580  0.47420  Biso   1.000  C
  C39      1.0000 0.69920  0.05580  0.77580  Biso   1.000  C
  C40      1.0000 0.55080  0.19420  0.77580  Biso   1.000  C
  C41      1.0000 0.19920  0.69420  0.47420  Biso   1.000  C
  C42      1.0000 0.05080  0.55580  0.47420  Biso   1.000  C
  C43      1.0000 0.19920  0.55580  0.77580  Biso   1.000  C
  C44      1.0000 0.05080  0.69420  0.77580  Biso   1.000  C
  C45      1.0000 0.19920  0.19420  0.97420  Biso   1.000  C
  C46      1.0000 0.05080  0.05580  0.97420  Biso   1.000  C
  C47      1.0000 0.19920  0.05580  0.27580  Biso   1.000  C
  C48      1.0000 0.05080  0.19420  0.27580  Biso   1.000  C
  C49      1.0000 0.30080  0.30580  0.02580  Biso   1.000  C
  C50      1.0000 0.94920  0.94420  0.02580  Biso   1.000  C
  C51      1.0000 0.30080  0.94420  0.22420  Biso   1.000  C
  C52      1.0000 0.94920  0.30580  0.22420  Biso   1.000  C
  C53      1.0000 0.30080  0.80580  0.52580  Biso   1.000  C
  C54      1.0000 0.94920  0.44420  0.52580  Biso   1.000  C
  C55      1.0000 0.30080  0.44420  0.72420  Biso   1.000  C
  C56      1.0000 0.94920  0.80580  0.72420  Biso   1.000  C
  C57      1.0000 0.80080  0.30580  0.52580  Biso   1.000  C
  C58      1.0000 0.44920  0.94420  0.52580  Biso   1.000  C
  C59      1.0000 0.80080  0.94420  0.72420  Biso   1.000  C
  C60      1.0000 0.44920  0.30580  0.72420  Biso   1.000  C
  C61      1.0000 0.80080  0.80580  0.02580  Biso   1.000  C
  C62      1.0000 0.44920  0.44420  0.02580  Biso   1.000  C
  C63      1.0000 0.80080  0.44420  0.22420  Biso   1.000  C
  C64      1.0000 0.44920  0.80580  0.22420  Biso   1.000  C
  C65      1.0000 0.63930  0.71320  0.95930  Biso   1.000  C
  C66      1.0000 0.61070  0.53680  0.95930  Biso   1.000  C
  C67      1.0000 0.63930  0.53680  0.29070  Biso   1.000  C
  C68      1.0000 0.61070  0.71320  0.29070  Biso   1.000  C
  C69      1.0000 0.63930  0.21320  0.45930  Biso   1.000  C
  C70      1.0000 0.61070  0.03680  0.45930  Biso   1.000  C
  C71      1.0000 0.63930  0.03680  0.79070  Biso   1.000  C
  C72      1.0000 0.61070  0.21320  0.79070  Biso   1.000  C
  C73      1.0000 0.13930  0.71320  0.45930  Biso   1.000  C
  C74      1.0000 0.11070  0.53680  0.45930  Biso   1.000  C
  C75      1.0000 0.13930  0.53680  0.79070  Biso   1.000  C
  C76      1.0000 0.11070  0.71320  0.79070  Biso   1.000  C
  C77      1.0000 0.13930  0.21320  0.95930  Biso   1.000  C
  C78      1.0000 0.11070  0.03680  0.95930  Biso   1.000  C
  C79      1.0000 0.13930  0.03680  0.29070  Biso   1.000  C
  C80      1.0000 0.11070  0.21320  0.29070  Biso   1.000  C
  C81      1.0000 0.36070  0.28680  0.04070  Biso   1.000  C
  C82      1.0000 0.88930  0.96320  0.04070  Biso   1.000  C
  C83      1.0000 0.36070  0.96320  0.20930  Biso   1.000  C
  C84      1.0000 0.88930  0.28680  0.20930  Biso   1.000  C
  C85      1.0000 0.36070  0.78680  0.54070  Biso   1.000  C
  C86      1.0000 0.88930  0.46320  0.54070  Biso   1.000  C
  C87      1.0000 0.36070  0.46320  0.70930  Biso   1.000  C
  C88      1.0000 0.88930  0.78680  0.70930  Biso   1.000  C
  C89      1.0000 0.86070  0.28680  0.54070  Biso   1.000  C
  C90      1.0000 0.38930  0.96320  0.54070  Biso   1.000  C
  C91      1.0000 0.86070  0.96320  0.70930  Biso   1.000  C
  C92      1.0000 0.38930  0.28680  0.70930  Biso   1.000  C
  C93      1.0000 0.86070  0.78680  0.04070  Biso   1.000  C
  C94      1.0000 0.38930  0.46320  0.04070  Biso   1.000  C
  C95      1.0000 0.86070  0.46320  0.20930  Biso   1.000  C
  C96      1.0000 0.38930  0.78680  0.20930  Biso   1.000  C
  H1       1.0000 0.63090  0.72210  0.92860  Biso   1.000  H
  H2       1.0000 0.61910  0.52790  0.92860  Biso   1.000  H
  H3       1.0000 0.63090  0.52790  0.32140  Biso   1.000  H
  H4       1.0000 0.61910  0.72210  0.32140  Biso   1.000  H
  H5       1.0000 0.63090  0.22210  0.42860  Biso   1.000  H
  H6       1.0000 0.61910  0.02790  0.42860  Biso   1.000  H
  H7       1.0000 0.63090  0.02790  0.82140  Biso   1.000  H
  H8       1.0000 0.61910  0.22210  0.82140  Biso   1.000  H
  H9       1.0000 0.13090  0.72210  0.42860  Biso   1.000  H
  H10      1.0000 0.11910  0.52790  0.42860  Biso   1.000  H
  H11      1.0000 0.13090  0.52790  0.82140  Biso   1.000  H
  H12      1.0000 0.11910  0.72210  0.82140  Biso   1.000  H
  H13      1.0000 0.13090  0.22210  0.92860  Biso   1.000  H
  H14      1.0000 0.11910  0.02790  0.92860  Biso   1.000  H
  H15      1.0000 0.13090  0.02790  0.32140  Biso   1.000  H
  H16      1.0000 0.11910  0.22210  0.32140  Biso   1.000  H
  H17      1.0000 0.36910  0.27790  0.07140  Biso   1.000  H
  H18      1.0000 0.88090  0.97210  0.07140  Biso   1.000  H
  H19      1.0000 0.36910  0.97210  0.17860  Biso   1.000  H
  H20      1.0000 0.88090  0.27790  0.17860  Biso   1.000  H
  H21      1.0000 0.36910  0.77790  0.57140  Biso   1.000  H
  H22      1.0000 0.88090  0.47210  0.57140  Biso   1.000  H
  H23      1.0000 0.36910  0.47210  0.67860  Biso   1.000  H
  H24      1.0000 0.88090  0.77790  0.67860  Biso   1.000  H
  H25      1.0000 0.86910  0.27790  0.57140  Biso   1.000  H
  H26      1.0000 0.38090  0.97210  0.57140  Biso   1.000  H
  H27      1.0000 0.86910  0.97210  0.67860  Biso   1.000  H
  H28      1.0000 0.38090  0.27790  0.67860  Biso   1.000  H
  H29      1.0000 0.86910  0.77790  0.07140  Biso   1.000  H
  H30      1.0000 0.38090  0.47210  0.07140  Biso   1.000  H
  H31      1.0000 0.86910  0.47210  0.17860  Biso   1.000  H
  H32      1.0000 0.38090  0.77790  0.17860  Biso   1.000  H
  C97      1.0000 0.59410  0.71750  0.99420  Biso   1.000  C
  C98      1.0000 0.65590  0.53250  0.99420  Biso   1.000  C
  C99      1.0000 0.59410  0.53250  0.25580  Biso   1.000  C
  C100     1.0000 0.65590  0.71750  0.25580  Biso   1.000  C
  C101     1.0000 0.59410  0.21750  0.49420  Biso   1.000  C
  C102     1.0000 0.65590  0.03250  0.49420  Biso   1.000  C
  C103     1.0000 0.59410  0.03250  0.75580  Biso   1.000  C
  C104     1.0000 0.65590  0.21750  0.75580  Biso   1.000  C
  C105     1.0000 0.09410  0.71750  0.49420  Biso   1.000  C
  C106     1.0000 0.15590  0.53250  0.49420  Biso   1.000  C
  C107     1.0000 0.09410  0.53250  0.75580  Biso   1.000  C
  C108     1.0000 0.15590  0.71750  0.75580  Biso   1.000  C
  C109     1.0000 0.09410  0.21750  0.99420  Biso   1.000  C
  C110     1.0000 0.15590  0.03250  0.99420  Biso   1.000  C
  C111     1.0000 0.09410  0.03250  0.25580  Biso   1.000  C
  C112     1.0000 0.15590  0.21750  0.25580  Biso   1.000  C
  C113     1.0000 0.40590  0.28250  0.00580  Biso   1.000  C
  C114     1.0000 0.84410  0.96750  0.00580  Biso   1.000  C
  C115     1.0000 0.40590  0.96750  0.24420  Biso   1.000  C
  C116     1.0000 0.84410  0.28250  0.24420  Biso   1.000  C
  C117     1.0000 0.40590  0.78250  0.50580  Biso   1.000  C
  C118     1.0000 0.84410  0.46750  0.50580  Biso   1.000  C
  C119     1.0000 0.40590  0.46750  0.74420  Biso   1.000  C
  C120     1.0000 0.84410  0.78250  0.74420  Biso   1.000  C
  C121     1.0000 0.90590  0.28250  0.50580  Biso   1.000  C
  C122     1.0000 0.34410  0.96750  0.50580  Biso   1.000  C
  C123     1.0000 0.90590  0.96750  0.74420  Biso   1.000  C
  C124     1.0000 0.34410  0.28250  0.74420  Biso   1.000  C
  C125     1.0000 0.90590  0.78250  0.00580  Biso   1.000  C
  C126     1.0000 0.34410  0.46750  0.00580  Biso   1.000  C
  C127     1.0000 0.90590  0.46750  0.24420  Biso   1.000  C
  C128     1.0000 0.34410  0.78250  0.24420  Biso   1.000  C
  H33      1.0000 0.55340  0.72950  0.98630  Biso   1.000  H
  H34      1.0000 0.69660  0.52050  0.98630  Biso   1.000  H
  H35      1.0000 0.55340  0.52050  0.26370  Biso   1.000  H
  H36      1.0000 0.69660  0.72950  0.26370  Biso   1.000  H
  H37      1.0000 0.55340  0.22950  0.48630  Biso   1.000  H
  H38      1.0000 0.69660  0.02050  0.48630  Biso   1.000  H
  H39      1.0000 0.55340  0.02050  0.76370  Biso   1.000  H
  H40      1.0000 0.69660  0.22950  0.76370  Biso   1.000  H
  H41      1.0000 0.05340  0.72950  0.48630  Biso   1.000  H
  H42      1.0000 0.19660  0.52050  0.48630  Biso   1.000  H
  H43      1.0000 0.05340  0.52050  0.76370  Biso   1.000  H
  H44      1.0000 0.19660  0.72950  0.76370  Biso   1.000  H
  H45      1.0000 0.05340  0.22950  0.98630  Biso   1.000  H
  H46      1.0000 0.19660  0.02050  0.98630  Biso   1.000  H
  H47      1.0000 0.05340  0.02050  0.26370  Biso   1.000  H
  H48      1.0000 0.19660  0.22950  0.26370  Biso   1.000  H
  H49      1.0000 0.44660  0.27050  0.01370  Biso   1.000  H
  H50      1.0000 0.80340  0.97950  0.01370  Biso   1.000  H
  H51      1.0000 0.44660  0.97950  0.23630  Biso   1.000  H
  H52      1.0000 0.80340  0.27050  0.23630  Biso   1.000  H
  H53      1.0000 0.44660  0.77050  0.51370  Biso   1.000  H
  H54      1.0000 0.80340  0.47950  0.51370  Biso   1.000  H
  H55      1.0000 0.44660  0.47950  0.73630  Biso   1.000  H
  H56      1.0000 0.80340  0.77050  0.73630  Biso   1.000  H
  H57      1.0000 0.94660  0.27050  0.51370  Biso   1.000  H
  H58      1.0000 0.30340  0.97950  0.51370  Biso   1.000  H
  H59      1.0000 0.94660  0.97950  0.73630  Biso   1.000  H
  H60      1.0000 0.30340  0.27050  0.73630  Biso   1.000  H
  H61      1.0000 0.94660  0.77050  0.01370  Biso   1.000  H
  H62      1.0000 0.30340  0.47950  0.01370  Biso   1.000  H
  H63      1.0000 0.94660  0.47950  0.23630  Biso   1.000  H
  H64      1.0000 0.30340  0.77050  0.23630  Biso   1.000  H
  C129     1.0000 0.60600  0.70490  0.04010  Biso   1.000  C
  C130     1.0000 0.64400  0.54510  0.04010  Biso   1.000  C
  C131     1.0000 0.60600  0.54510  0.20990  Biso   1.000  C
  C132     1.0000 0.64400  0.70490  0.20990  Biso   1.000  C
  C133     1.0000 0.60600  0.20490  0.54010  Biso   1.000  C
  C134     1.0000 0.64400  0.04510  0.54010  Biso   1.000  C
  C135     1.0000 0.60600  0.04510  0.70990  Biso   1.000  C
  C136     1.0000 0.64400  0.20490  0.70990  Biso   1.000  C
  C137     1.0000 0.10600  0.70490  0.54010  Biso   1.000  C
  C138     1.0000 0.14400  0.54510  0.54010  Biso   1.000  C
  C139     1.0000 0.10600  0.54510  0.70990  Biso   1.000  C
  C140     1.0000 0.14400  0.70490  0.70990  Biso   1.000  C
  C141     1.0000 0.10600  0.20490  0.04010  Biso   1.000  C
  C142     1.0000 0.14400  0.04510  0.04010  Biso   1.000  C
  C143     1.0000 0.10600  0.04510  0.20990  Biso   1.000  C
  C144     1.0000 0.14400  0.20490  0.20990  Biso   1.000  C
  C145     1.0000 0.39400  0.29510  0.95990  Biso   1.000  C
  C146     1.0000 0.85600  0.95490  0.95990  Biso   1.000  C
  C147     1.0000 0.39400  0.95490  0.29010  Biso   1.000  C
  C148     1.0000 0.85600  0.29510  0.29010  Biso   1.000  C
  C149     1.0000 0.39400  0.79510  0.45990  Biso   1.000  C
  C150     1.0000 0.85600  0.45490  0.45990  Biso   1.000  C
  C151     1.0000 0.39400  0.45490  0.79010  Biso   1.000  C
  C152     1.0000 0.85600  0.79510  0.79010  Biso   1.000  C
  C153     1.0000 0.89400  0.29510  0.45990  Biso   1.000  C
  C154     1.0000 0.35600  0.95490  0.45990  Biso   1.000  C
  C155     1.0000 0.89400  0.95490  0.79010  Biso   1.000  C
  C156     1.0000 0.35600  0.29510  0.79010  Biso   1.000  C
  C157     1.0000 0.89400  0.79510  0.95990  Biso   1.000  C
  C158     1.0000 0.35600  0.45490  0.95990  Biso   1.000  C
  C159     1.0000 0.89400  0.45490  0.29010  Biso   1.000  C
  C160     1.0000 0.35600  0.79510  0.29010  Biso   1.000  C
  H65      1.0000 0.57330  0.70860  0.06190  Biso   1.000  H
  H66      1.0000 0.67670  0.54140  0.06190  Biso   1.000  H
  H67      1.0000 0.57330  0.54140  0.18810  Biso   1.000  H
  H68      1.0000 0.67670  0.70860  0.18810  Biso   1.000  H
  H69      1.0000 0.57330  0.20860  0.56190  Biso   1.000  H
  H70      1.0000 0.67670  0.04140  0.56190  Biso   1.000  H
  H71      1.0000 0.57330  0.04140  0.68810  Biso   1.000  H
  H72      1.0000 0.67670  0.20860  0.68810  Biso   1.000  H
  H73      1.0000 0.07330  0.70860  0.56190  Biso   1.000  H
  H74      1.0000 0.17670  0.54140  0.56190  Biso   1.000  H
  H75      1.0000 0.07330  0.54140  0.68810  Biso   1.000  H
  H76      1.0000 0.17670  0.70860  0.68810  Biso   1.000  H
  H77      1.0000 0.07330  0.20860  0.06190  Biso   1.000  H
  H78      1.0000 0.17670  0.04140  0.06190  Biso   1.000  H
  H79      1.0000 0.07330  0.04140  0.18810  Biso   1.000  H
  H80      1.0000 0.17670  0.20860  0.18810  Biso   1.000  H
  H81      1.0000 0.42670  0.29140  0.93810  Biso   1.000  H
  H82      1.0000 0.82330  0.95860  0.93810  Biso   1.000  H
  H83      1.0000 0.42670  0.95860  0.31190  Biso   1.000  H
  H84      1.0000 0.82330  0.29140  0.31190  Biso   1.000  H
  H85      1.0000 0.42670  0.79140  0.43810  Biso   1.000  H
  H86      1.0000 0.82330  0.45860  0.43810  Biso   1.000  H
  H87      1.0000 0.42670  0.45860  0.81190  Biso   1.000  H
  H88      1.0000 0.82330  0.79140  0.81190  Biso   1.000  H
  H89      1.0000 0.92670  0.29140  0.43810  Biso   1.000  H
  H90      1.0000 0.32330  0.95860  0.43810  Biso   1.000  H
  H91      1.0000 0.92670  0.95860  0.81190  Biso   1.000  H
  H92      1.0000 0.32330  0.29140  0.81190  Biso   1.000  H
  H93      1.0000 0.92670  0.79140  0.93810  Biso   1.000  H
  H94      1.0000 0.32330  0.45860  0.93810  Biso   1.000  H
  H95      1.0000 0.92670  0.45860  0.31190  Biso   1.000  H
  H96      1.0000 0.32330  0.79140  0.31190  Biso   1.000  H
  C161     1.0000 0.66600  0.68670  0.05460  Biso   1.000  C
  C162     1.0000 0.58400  0.56330  0.05460  Biso   1.000  C
  C163     1.0000 0.66600  0.56330  0.19540  Biso   1.000  C
  C164     1.0000 0.58400  0.68670  0.19540  Biso   1.000  C
  C165     1.0000 0.66600  0.18670  0.55460  Biso   1.000  C
  C166     1.0000 0.58400  0.06330  0.55460  Biso   1.000  C
  C167     1.0000 0.66600  0.06330  0.69540  Biso   1.000  C
  C168     1.0000 0.58400  0.18670  0.69540  Biso   1.000  C
  C169     1.0000 0.16600  0.68670  0.55460  Biso   1.000  C
  C170     1.0000 0.08400  0.56330  0.55460  Biso   1.000  C
  C171     1.0000 0.16600  0.56330  0.69540  Biso   1.000  C
  C172     1.0000 0.08400  0.68670  0.69540  Biso   1.000  C
  C173     1.0000 0.16600  0.18670  0.05460  Biso   1.000  C
  C174     1.0000 0.08400  0.06330  0.05460  Biso   1.000  C
  C175     1.0000 0.16600  0.06330  0.19540  Biso   1.000  C
  C176     1.0000 0.08400  0.18670  0.19540  Biso   1.000  C
  C177     1.0000 0.33400  0.31330  0.94540  Biso   1.000  C
  C178     1.0000 0.91600  0.93670  0.94540  Biso   1.000  C
  C179     1.0000 0.33400  0.93670  0.30460  Biso   1.000  C
  C180     1.0000 0.91600  0.31330  0.30460  Biso   1.000  C
  C181     1.0000 0.33400  0.81330  0.44540  Biso   1.000  C
  C182     1.0000 0.91600  0.43670  0.44540  Biso   1.000  C
  C183     1.0000 0.33400  0.43670  0.80460  Biso   1.000  C
  C184     1.0000 0.91600  0.81330  0.80460  Biso   1.000  C
  C185     1.0000 0.83400  0.31330  0.44540  Biso   1.000  C
  C186     1.0000 0.41600  0.93670  0.44540  Biso   1.000  C
  C187     1.0000 0.83400  0.93670  0.80460  Biso   1.000  C
  C188     1.0000 0.41600  0.31330  0.80460  Biso   1.000  C
  C189     1.0000 0.83400  0.81330  0.94540  Biso   1.000  C
  C190     1.0000 0.41600  0.43670  0.94540  Biso   1.000  C
  C191     1.0000 0.83400  0.43670  0.30460  Biso   1.000  C
  C192     1.0000 0.41600  0.81330  0.30460  Biso   1.000  C
  H97      1.0000 0.67470  0.67830  0.08550  Biso   1.000  H
  H98      1.0000 0.57530  0.57170  0.08550  Biso   1.000  H
  H99      1.0000 0.67470  0.57170  0.16450  Biso   1.000  H
  H100     1.0000 0.57530  0.67830  0.16450  Biso   1.000  H
  H101     1.0000 0.67470  0.17830  0.58550  Biso   1.000  H
  H102     1.0000 0.57530  0.07170  0.58550  Biso   1.000  H
  H103     1.0000 0.67470  0.07170  0.66450  Biso   1.000  H
  H104     1.0000 0.57530  0.17830  0.66450  Biso   1.000  H
  H105     1.0000 0.17470  0.67830  0.58550  Biso   1.000  H
  H106     1.0000 0.07530  0.57170  0.58550  Biso   1.000  H
  H107     1.0000 0.17470  0.57170  0.66450  Biso   1.000  H
  H108     1.0000 0.07530  0.67830  0.66450  Biso   1.000  H
  H109     1.0000 0.17470  0.17830  0.08550  Biso   1.000  H
  H110     1.0000 0.07530  0.07170  0.08550  Biso   1.000  H
  H111     1.0000 0.17470  0.07170  0.16450  Biso   1.000  H
  H112     1.0000 0.07530  0.17830  0.16450  Biso   1.000  H
  H113     1.0000 0.32530  0.32170  0.91450  Biso   1.000  H
  H114     1.0000 0.92470  0.92830  0.91450  Biso   1.000  H
  H115     1.0000 0.32530  0.92830  0.33550  Biso   1.000  H
  H116     1.0000 0.92470  0.32170  0.33550  Biso   1.000  H
  H117     1.0000 0.32530  0.82170  0.41450  Biso   1.000  H
  H118     1.0000 0.92470  0.42830  0.41450  Biso   1.000  H
  H119     1.0000 0.32530  0.42830  0.83550  Biso   1.000  H
  H120     1.0000 0.92470  0.82170  0.83550  Biso   1.000  H
  H121     1.0000 0.82530  0.32170  0.41450  Biso   1.000  H
  H122     1.0000 0.42470  0.92830  0.41450  Biso   1.000  H
  H123     1.0000 0.82530  0.92830  0.83550  Biso   1.000  H
  H124     1.0000 0.42470  0.32170  0.83550  Biso   1.000  H
  H125     1.0000 0.82530  0.82170  0.91450  Biso   1.000  H
  H126     1.0000 0.42470  0.42830  0.91450  Biso   1.000  H
  H127     1.0000 0.82530  0.42830  0.33550  Biso   1.000  H
  H128     1.0000 0.42470  0.82170  0.33550  Biso   1.000  H
  C193     1.0000 0.78260  0.48970  0.81670  Biso   1.000  C
  C194     1.0000 0.46740  0.76030  0.81670  Biso   1.000  C
  C195     1.0000 0.78260  0.76030  0.43330  Biso   1.000  C
  C196     1.0000 0.46740  0.48970  0.43330  Biso   1.000  C
  C197     1.0000 0.78260  0.98970  0.31670  Biso   1.000  C
  C198     1.0000 0.46740  0.26030  0.31670  Biso   1.000  C
  C199     1.0000 0.78260  0.26030  0.93330  Biso   1.000  C
  C200     1.0000 0.46740  0.98970  0.93330  Biso   1.000  C
  C201     1.0000 0.28260  0.48970  0.31670  Biso   1.000  C
  C202     1.0000 0.96740  0.76030  0.31670  Biso   1.000  C
  C203     1.0000 0.28260  0.76030  0.93330  Biso   1.000  C
  C204     1.0000 0.96740  0.48970  0.93330  Biso   1.000  C
  C205     1.0000 0.28260  0.98970  0.81670  Biso   1.000  C
  C206     1.0000 0.96740  0.26030  0.81670  Biso   1.000  C
  C207     1.0000 0.28260  0.26030  0.43330  Biso   1.000  C
  C208     1.0000 0.96740  0.98970  0.43330  Biso   1.000  C
  C209     1.0000 0.21740  0.51030  0.18330  Biso   1.000  C
  C210     1.0000 0.03260  0.73970  0.18330  Biso   1.000  C
  C211     1.0000 0.21740  0.73970  0.06670  Biso   1.000  C
  C212     1.0000 0.03260  0.51030  0.06670  Biso   1.000  C
  C213     1.0000 0.21740  0.01030  0.68330  Biso   1.000  C
  C214     1.0000 0.03260  0.23970  0.68330  Biso   1.000  C
  C215     1.0000 0.21740  0.23970  0.56670  Biso   1.000  C
  C216     1.0000 0.03260  0.01030  0.56670  Biso   1.000  C
  C217     1.0000 0.71740  0.51030  0.68330  Biso   1.000  C
  C218     1.0000 0.53260  0.73970  0.68330  Biso   1.000  C
  C219     1.0000 0.71740  0.73970  0.56670  Biso   1.000  C
  C220     1.0000 0.53260  0.51030  0.56670  Biso   1.000  C
  C221     1.0000 0.71740  0.01030  0.18330  Biso   1.000  C
  C222     1.0000 0.53260  0.23970  0.18330  Biso   1.000  C
  C223     1.0000 0.71740  0.23970  0.06670  Biso   1.000  C
  C224     1.0000 0.53260  0.01030  0.06670  Biso   1.000  C
  C225     1.0000 0.79630  0.53840  0.79760  Biso   1.000  C
  C226     1.0000 0.45370  0.71160  0.79760  Biso   1.000  C
  C227     1.0000 0.79630  0.71160  0.45240  Biso   1.000  C
  C228     1.0000 0.45370  0.53840  0.45240  Biso   1.000  C
  C229     1.0000 0.79630  0.03840  0.29760  Biso   1.000  C
  C230     1.0000 0.45370  0.21160  0.29760  Biso   1.000  C
  C231     1.0000 0.79630  0.21160  0.95240  Biso   1.000  C
  C232     1.0000 0.45370  0.03840  0.95240  Biso   1.000  C
  C233     1.0000 0.29630  0.53840  0.29760  Biso   1.000  C
  C234     1.0000 0.95370  0.71160  0.29760  Biso   1.000  C
  C235     1.0000 0.29630  0.71160  0.95240  Biso   1.000  C
  C236     1.0000 0.95370  0.53840  0.95240  Biso   1.000  C
  C237     1.0000 0.29630  0.03840  0.79760  Biso   1.000  C
  C238     1.0000 0.95370  0.21160  0.79760  Biso   1.000  C
  C239     1.0000 0.29630  0.21160  0.45240  Biso   1.000  C
  C240     1.0000 0.95370  0.03840  0.45240  Biso   1.000  C
  C241     1.0000 0.20370  0.46160  0.20240  Biso   1.000  C
  C242     1.0000 0.04630  0.78840  0.20240  Biso   1.000  C
  C243     1.0000 0.20370  0.78840  0.04760  Biso   1.000  C
  C244     1.0000 0.04630  0.46160  0.04760  Biso   1.000  C
  C245     1.0000 0.20370  0.96160  0.70240  Biso   1.000  C
  C246     1.0000 0.04630  0.28840  0.70240  Biso   1.000  C
  C247     1.0000 0.20370  0.28840  0.54760  Biso   1.000  C
  C248     1.0000 0.04630  0.96160  0.54760  Biso   1.000  C
  C249     1.0000 0.70370  0.46160  0.70240  Biso   1.000  C
  C250     1.0000 0.54630  0.78840  0.70240  Biso   1.000  C
  C251     1.0000 0.70370  0.78840  0.54760  Biso   1.000  C
  C252     1.0000 0.54630  0.46160  0.54760  Biso   1.000  C
  C253     1.0000 0.70370  0.96160  0.20240  Biso   1.000  C
  C254     1.0000 0.54630  0.28840  0.20240  Biso   1.000  C
  C255     1.0000 0.70370  0.28840  0.04760  Biso   1.000  C
  C256     1.0000 0.54630  0.96160  0.04760  Biso   1.000  C
  C257     1.0000 0.85600  0.55130  0.77870  Biso   1.000  C
  C258     1.0000 0.39400  0.69870  0.77870  Biso   1.000  C
  C259     1.0000 0.85600  0.69870  0.47130  Biso   1.000  C
  C260     1.0000 0.39400  0.55130  0.47130  Biso   1.000  C
  C261     1.0000 0.85600  0.05130  0.27870  Biso   1.000  C
  C262     1.0000 0.39400  0.19870  0.27870  Biso   1.000  C
  C263     1.0000 0.85600  0.19870  0.97130  Biso   1.000  C
  C264     1.0000 0.39400  0.05130  0.97130  Biso   1.000  C
  C265     1.0000 0.35600  0.55130  0.27870  Biso   1.000  C
  C266     1.0000 0.89400  0.69870  0.27870  Biso   1.000  C
  C267     1.0000 0.35600  0.69870  0.97130  Biso   1.000  C
  C268     1.0000 0.89400  0.55130  0.97130  Biso   1.000  C
  C269     1.0000 0.35600  0.05130  0.77870  Biso   1.000  C
  C270     1.0000 0.89400  0.19870  0.77870  Biso   1.000  C
  C271     1.0000 0.35600  0.19870  0.47130  Biso   1.000  C
  C272     1.0000 0.89400  0.05130  0.47130  Biso   1.000  C
  C273     1.0000 0.14400  0.44870  0.22130  Biso   1.000  C
  C274     1.0000 0.10600  0.80130  0.22130  Biso   1.000  C
  C275     1.0000 0.14400  0.80130  0.02870  Biso   1.000  C
  C276     1.0000 0.10600  0.44870  0.02870  Biso   1.000  C
  C277     1.0000 0.14400  0.94870  0.72130  Biso   1.000  C
  C278     1.0000 0.10600  0.30130  0.72130  Biso   1.000  C
  C279     1.0000 0.14400  0.30130  0.52870  Biso   1.000  C
  C280     1.0000 0.10600  0.94870  0.52870  Biso   1.000  C
  C281     1.0000 0.64400  0.44870  0.72130  Biso   1.000  C
  C282     1.0000 0.60600  0.80130  0.72130  Biso   1.000  C
  C283     1.0000 0.64400  0.80130  0.52870  Biso   1.000  C
  C284     1.0000 0.60600  0.44870  0.52870  Biso   1.000  C
  C285     1.0000 0.64400  0.94870  0.22130  Biso   1.000  C
  C286     1.0000 0.60600  0.30130  0.22130  Biso   1.000  C
  C287     1.0000 0.64400  0.30130  0.02870  Biso   1.000  C
  C288     1.0000 0.60600  0.94870  0.02870  Biso   1.000  C
  H129     1.0000 0.86450  0.58380  0.76560  Biso   1.000  H
  H130     1.0000 0.38550  0.66620  0.76560  Biso   1.000  H
  H131     1.0000 0.86450  0.66620  0.48440  Biso   1.000  H
  H132     1.0000 0.38550  0.58380  0.48440  Biso   1.000  H
  H133     1.0000 0.86450  0.08380  0.26560  Biso   1.000  H
  H134     1.0000 0.38550  0.16620  0.26560  Biso   1.000  H
  H135     1.0000 0.86450  0.16620  0.98440  Biso   1.000  H
  H136     1.0000 0.38550  0.08380  0.98440  Biso   1.000  H
  H137     1.0000 0.36450  0.58380  0.26560  Biso   1.000  H
  H138     1.0000 0.88550  0.66620  0.26560  Biso   1.000  H
  H139     1.0000 0.36450  0.66620  0.98440  Biso   1.000  H
  H140     1.0000 0.88550  0.58380  0.98440  Biso   1.000  H
  H141     1.0000 0.36450  0.08380  0.76560  Biso   1.000  H
  H142     1.0000 0.88550  0.16620  0.76560  Biso   1.000  H
  H143     1.0000 0.36450  0.16620  0.48440  Biso   1.000  H
  H144     1.0000 0.88550  0.08380  0.48440  Biso   1.000  H
  H145     1.0000 0.13550  0.41620  0.23440  Biso   1.000  H
  H146     1.0000 0.11450  0.83380  0.23440  Biso   1.000  H
  H147     1.0000 0.13550  0.83380  0.01560  Biso   1.000  H
  H148     1.0000 0.11450  0.41620  0.01560  Biso   1.000  H
  H149     1.0000 0.13550  0.91620  0.73440  Biso   1.000  H
  H150     1.0000 0.11450  0.33380  0.73440  Biso   1.000  H
  H151     1.0000 0.13550  0.33380  0.51560  Biso   1.000  H
  H152     1.0000 0.11450  0.91620  0.51560  Biso   1.000  H
  H153     1.0000 0.63550  0.41620  0.73440  Biso   1.000  H
  H154     1.0000 0.61450  0.83380  0.73440  Biso   1.000  H
  H155     1.0000 0.63550  0.83380  0.51560  Biso   1.000  H
  H156     1.0000 0.61450  0.41620  0.51560  Biso   1.000  H
  H157     1.0000 0.63550  0.91620  0.23440  Biso   1.000  H
  H158     1.0000 0.61450  0.33380  0.23440  Biso   1.000  H
  H159     1.0000 0.63550  0.33380  0.01560  Biso   1.000  H
  H160     1.0000 0.61450  0.91620  0.01560  Biso   1.000  H
  C289     1.0000 0.90100  0.51230  0.78110  Biso   1.000  C
  C290     1.0000 0.34900  0.73770  0.78110  Biso   1.000  C
  C291     1.0000 0.90100  0.73770  0.46890  Biso   1.000  C
  C292     1.0000 0.34900  0.51230  0.46890  Biso   1.000  C
  C293     1.0000 0.90100  0.01230  0.28110  Biso   1.000  C
  C294     1.0000 0.34900  0.23770  0.28110  Biso   1.000  C
  C295     1.0000 0.90100  0.23770  0.96890  Biso   1.000  C
  C296     1.0000 0.34900  0.01230  0.96890  Biso   1.000  C
  C297     1.0000 0.40100  0.51230  0.28110  Biso   1.000  C
  C298     1.0000 0.84900  0.73770  0.28110  Biso   1.000  C
  C299     1.0000 0.40100  0.73770  0.96890  Biso   1.000  C
  C300     1.0000 0.84900  0.51230  0.96890  Biso   1.000  C
  C301     1.0000 0.40100  0.01230  0.78110  Biso   1.000  C
  C302     1.0000 0.84900  0.23770  0.78110  Biso   1.000  C
  C303     1.0000 0.40100  0.23770  0.46890  Biso   1.000  C
  C304     1.0000 0.84900  0.01230  0.46890  Biso   1.000  C
  C305     1.0000 0.09900  0.48770  0.21890  Biso   1.000  C
  C306     1.0000 0.15100  0.76230  0.21890  Biso   1.000  C
  C307     1.0000 0.09900  0.76230  0.03110  Biso   1.000  C
  C308     1.0000 0.15100  0.48770  0.03110  Biso   1.000  C
  C309     1.0000 0.09900  0.98770  0.71890  Biso   1.000  C
  C310     1.0000 0.15100  0.26230  0.71890  Biso   1.000  C
  C311     1.0000 0.09900  0.26230  0.53110  Biso   1.000  C
  C312     1.0000 0.15100  0.98770  0.53110  Biso   1.000  C
  C313     1.0000 0.59900  0.48770  0.71890  Biso   1.000  C
  C314     1.0000 0.65100  0.76230  0.71890  Biso   1.000  C
  C315     1.0000 0.59900  0.76230  0.53110  Biso   1.000  C
  C316     1.0000 0.65100  0.48770  0.53110  Biso   1.000  C
  C317     1.0000 0.59900  0.98770  0.21890  Biso   1.000  C
  C318     1.0000 0.65100  0.26230  0.21890  Biso   1.000  C
  C319     1.0000 0.59900  0.26230  0.03110  Biso   1.000  C
  C320     1.0000 0.65100  0.98770  0.03110  Biso   1.000  C
  H161     1.0000 0.94180  0.51890  0.76930  Biso   1.000  H
  H162     1.0000 0.30820  0.73110  0.76930  Biso   1.000  H
  H163     1.0000 0.94180  0.73110  0.48070  Biso   1.000  H
  H164     1.0000 0.30820  0.51890  0.48070  Biso   1.000  H
  H165     1.0000 0.94180  0.01890  0.26930  Biso   1.000  H
  H166     1.0000 0.30820  0.23110  0.26930  Biso   1.000  H
  H167     1.0000 0.94180  0.23110  0.98070  Biso   1.000  H
  H168     1.0000 0.30820  0.01890  0.98070  Biso   1.000  H
  H169     1.0000 0.44180  0.51890  0.26930  Biso   1.000  H
  H170     1.0000 0.80820  0.73110  0.26930  Biso   1.000  H
  H171     1.0000 0.44180  0.73110  0.98070  Biso   1.000  H
  H172     1.0000 0.80820  0.51890  0.98070  Biso   1.000  H
  H173     1.0000 0.44180  0.01890  0.76930  Biso   1.000  H
  H174     1.0000 0.80820  0.23110  0.76930  Biso   1.000  H
  H175     1.0000 0.44180  0.23110  0.48070  Biso   1.000  H
  H176     1.0000 0.80820  0.01890  0.48070  Biso   1.000  H
  H177     1.0000 0.05820  0.48110  0.23070  Biso   1.000  H
  H178     1.0000 0.19180  0.76890  0.23070  Biso   1.000  H
  H179     1.0000 0.05820  0.76890  0.01930  Biso   1.000  H
  H180     1.0000 0.19180  0.48110  0.01930  Biso   1.000  H
  H181     1.0000 0.05820  0.98110  0.73070  Biso   1.000  H
  H182     1.0000 0.19180  0.26890  0.73070  Biso   1.000  H
  H183     1.0000 0.05820  0.26890  0.51930  Biso   1.000  H
  H184     1.0000 0.19180  0.98110  0.51930  Biso   1.000  H
  H185     1.0000 0.55820  0.48110  0.73070  Biso   1.000  H
  H186     1.0000 0.69180  0.76890  0.73070  Biso   1.000  H
  H187     1.0000 0.55820  0.76890  0.51930  Biso   1.000  H
  H188     1.0000 0.69180  0.48110  0.51930  Biso   1.000  H
  H189     1.0000 0.55820  0.98110  0.23070  Biso   1.000  H
  H190     1.0000 0.69180  0.26890  0.23070  Biso   1.000  H
  H191     1.0000 0.55820  0.26890  0.01930  Biso   1.000  H
  H192     1.0000 0.69180  0.98110  0.01930  Biso   1.000  H
  C321     1.0000 0.88850  0.46300  0.80050  Biso   1.000  C
  C322     1.0000 0.36150  0.78700  0.80050  Biso   1.000  C
  C323     1.0000 0.88850  0.78700  0.44950  Biso   1.000  C
  C324     1.0000 0.36150  0.46300  0.44950  Biso   1.000  C
  C325     1.0000 0.88850  0.96300  0.30050  Biso   1.000  C
  C326     1.0000 0.36150  0.28700  0.30050  Biso   1.000  C
  C327     1.0000 0.88850  0.28700  0.94950  Biso   1.000  C
  C328     1.0000 0.36150  0.96300  0.94950  Biso   1.000  C
  C329     1.0000 0.38850  0.46300  0.30050  Biso   1.000  C
  C330     1.0000 0.86150  0.78700  0.30050  Biso   1.000  C
  C331     1.0000 0.38850  0.78700  0.94950  Biso   1.000  C
  C332     1.0000 0.86150  0.46300  0.94950  Biso   1.000  C
  C333     1.0000 0.38850  0.96300  0.80050  Biso   1.000  C
  C334     1.0000 0.86150  0.28700  0.80050  Biso   1.000  C
  C335     1.0000 0.38850  0.28700  0.44950  Biso   1.000  C
  C336     1.0000 0.86150  0.96300  0.44950  Biso   1.000  C
  C337     1.0000 0.11150  0.53700  0.19950  Biso   1.000  C
  C338     1.0000 0.13850  0.71300  0.19950  Biso   1.000  C
  C339     1.0000 0.11150  0.71300  0.05050  Biso   1.000  C
  C340     1.0000 0.13850  0.53700  0.05050  Biso   1.000  C
  C341     1.0000 0.11150  0.03700  0.69950  Biso   1.000  C
  C342     1.0000 0.13850  0.21300  0.69950  Biso   1.000  C
  C343     1.0000 0.11150  0.21300  0.55050  Biso   1.000  C
  C344     1.0000 0.13850  0.03700  0.55050  Biso   1.000  C
  C345     1.0000 0.61150  0.53700  0.69950  Biso   1.000  C
  C346     1.0000 0.63850  0.71300  0.69950  Biso   1.000  C
  C347     1.0000 0.61150  0.71300  0.55050  Biso   1.000  C
  C348     1.0000 0.63850  0.53700  0.55050  Biso   1.000  C
  C349     1.0000 0.61150  0.03700  0.19950  Biso   1.000  C
  C350     1.0000 0.63850  0.21300  0.19950  Biso   1.000  C
  C351     1.0000 0.61150  0.21300  0.05050  Biso   1.000  C
  C352     1.0000 0.63850  0.03700  0.05050  Biso   1.000  C
  H193     1.0000 0.92090  0.43800  0.80090  Biso   1.000  H
  H194     1.0000 0.32910  0.81200  0.80090  Biso   1.000  H
  H195     1.0000 0.92090  0.81200  0.44910  Biso   1.000  H
  H196     1.0000 0.32910  0.43800  0.44910  Biso   1.000  H
  H197     1.0000 0.92090  0.93800  0.30090  Biso   1.000  H
  H198     1.0000 0.32910  0.31200  0.30090  Biso   1.000  H
  H199     1.0000 0.92090  0.31200  0.94910  Biso   1.000  H
  H200     1.0000 0.32910  0.93800  0.94910  Biso   1.000  H
  H201     1.0000 0.42090  0.43800  0.30090  Biso   1.000  H
  H202     1.0000 0.82910  0.81200  0.30090  Biso   1.000  H
  H203     1.0000 0.42090  0.81200  0.94910  Biso   1.000  H
  H204     1.0000 0.82910  0.43800  0.94910  Biso   1.000  H
  H205     1.0000 0.42090  0.93800  0.80090  Biso   1.000  H
  H206     1.0000 0.82910  0.31200  0.80090  Biso   1.000  H
  H207     1.0000 0.42090  0.31200  0.44910  Biso   1.000  H
  H208     1.0000 0.82910  0.93800  0.44910  Biso   1.000  H
  H209     1.0000 0.07910  0.56200  0.19910  Biso   1.000  H
  H210     1.0000 0.17090  0.68800  0.19910  Biso   1.000  H
  H211     1.0000 0.07910  0.68800  0.05090  Biso   1.000  H
  H212     1.0000 0.17090  0.56200  0.05090  Biso   1.000  H
  H213     1.0000 0.07910  0.06200  0.69910  Biso   1.000  H
  H214     1.0000 0.17090  0.18800  0.69910  Biso   1.000  H
  H215     1.0000 0.07910  0.18800  0.55090  Biso   1.000  H
  H216     1.0000 0.17090  0.06200  0.55090  Biso   1.000  H
  H217     1.0000 0.57910  0.56200  0.69910  Biso   1.000  H
  H218     1.0000 0.67090  0.68800  0.69910  Biso   1.000  H
  H219     1.0000 0.57910  0.68800  0.55090  Biso   1.000  H
  H220     1.0000 0.67090  0.56200  0.55090  Biso   1.000  H
  H221     1.0000 0.57910  0.06200  0.19910  Biso   1.000  H
  H222     1.0000 0.67090  0.18800  0.19910  Biso   1.000  H
  H223     1.0000 0.57910  0.18800  0.05090  Biso   1.000  H
  H224     1.0000 0.67090  0.06200  0.05090  Biso   1.000  H
  C353     1.0000 0.82980  0.45070  0.81880  Biso   1.000  C
  C354     1.0000 0.42020  0.79930  0.81880  Biso   1.000  C
  C355     1.0000 0.82980  0.79930  0.43120  Biso   1.000  C
  C356     1.0000 0.42020  0.45070  0.43120  Biso   1.000  C
  C357     1.0000 0.82980  0.95070  0.31880  Biso   1.000  C
  C358     1.0000 0.42020  0.29930  0.31880  Biso   1.000  C
  C359     1.0000 0.82980  0.29930  0.93120  Biso   1.000  C
  C360     1.0000 0.42020  0.95070  0.93120  Biso   1.000  C
  C361     1.0000 0.32980  0.45070  0.31880  Biso   1.000  C
  C362     1.0000 0.92020  0.79930  0.31880  Biso   1.000  C
  C363     1.0000 0.32980  0.79930  0.93120  Biso   1.000  C
  C364     1.0000 0.92020  0.45070  0.93120  Biso   1.000  C
  C365     1.0000 0.32980  0.95070  0.81880  Biso   1.000  C
  C366     1.0000 0.92020  0.29930  0.81880  Biso   1.000  C
  C367     1.0000 0.32980  0.29930  0.43120  Biso   1.000  C
  C368     1.0000 0.92020  0.95070  0.43120  Biso   1.000  C
  C369     1.0000 0.17020  0.54930  0.18120  Biso   1.000  C
  C370     1.0000 0.07980  0.70070  0.18120  Biso   1.000  C
  C371     1.0000 0.17020  0.70070  0.06880  Biso   1.000  C
  C372     1.0000 0.07980  0.54930  0.06880  Biso   1.000  C
  C373     1.0000 0.17020  0.04930  0.68120  Biso   1.000  C
  C374     1.0000 0.07980  0.20070  0.68120  Biso   1.000  C
  C375     1.0000 0.17020  0.20070  0.56880  Biso   1.000  C
  C376     1.0000 0.07980  0.04930  0.56880  Biso   1.000  C
  C377     1.0000 0.67020  0.54930  0.68120  Biso   1.000  C
  C378     1.0000 0.57980  0.70070  0.68120  Biso   1.000  C
  C379     1.0000 0.67020  0.70070  0.56880  Biso   1.000  C
  C380     1.0000 0.57980  0.54930  0.56880  Biso   1.000  C
  C381     1.0000 0.67020  0.04930  0.18120  Biso   1.000  C
  C382     1.0000 0.57980  0.20070  0.18120  Biso   1.000  C
  C383     1.0000 0.67020  0.20070  0.06880  Biso   1.000  C
  C384     1.0000 0.57980  0.04930  0.06880  Biso   1.000  C
  H225     1.0000 0.82170  0.41820  0.83210  Biso   1.000  H
  H226     1.0000 0.42830  0.83180  0.83210  Biso   1.000  H
  H227     1.0000 0.82170  0.83180  0.41790  Biso   1.000  H
  H228     1.0000 0.42830  0.41820  0.41790  Biso   1.000  H
  H229     1.0000 0.82170  0.91820  0.33210  Biso   1.000  H
  H230     1.0000 0.42830  0.33180  0.33210  Biso   1.000  H
  H231     1.0000 0.82170  0.33180  0.91790  Biso   1.000  H
  H232     1.0000 0.42830  0.91820  0.91790  Biso   1.000  H
  H233     1.0000 0.32170  0.41820  0.33210  Biso   1.000  H
  H234     1.0000 0.92830  0.83180  0.33210  Biso   1.000  H
  H235     1.0000 0.32170  0.83180  0.91790  Biso   1.000  H
  H236     1.0000 0.92830  0.41820  0.91790  Biso   1.000  H
  H237     1.0000 0.32170  0.91820  0.83210  Biso   1.000  H
  H238     1.0000 0.92830  0.33180  0.83210  Biso   1.000  H
  H239     1.0000 0.32170  0.33180  0.41790  Biso   1.000  H
  H240     1.0000 0.92830  0.91820  0.41790  Biso   1.000  H
  H241     1.0000 0.17830  0.58180  0.16790  Biso   1.000  H
  H242     1.0000 0.07170  0.66820  0.16790  Biso   1.000  H
  H243     1.0000 0.17830  0.66820  0.08210  Biso   1.000  H
  H244     1.0000 0.07170  0.58180  0.08210  Biso   1.000  H
  H245     1.0000 0.17830  0.08180  0.66790  Biso   1.000  H
  H246     1.0000 0.07170  0.16820  0.66790  Biso   1.000  H
  H247     1.0000 0.17830  0.16820  0.58210  Biso   1.000  H
  H248     1.0000 0.07170  0.08180  0.58210  Biso   1.000  H
  H249     1.0000 0.67830  0.58180  0.66790  Biso   1.000  H
  H250     1.0000 0.57170  0.66820  0.66790  Biso   1.000  H
  H251     1.0000 0.67830  0.66820  0.58210  Biso   1.000  H
  H252     1.0000 0.57170  0.58180  0.58210  Biso   1.000  H
  H253     1.0000 0.67830  0.08180  0.16790  Biso   1.000  H
  H254     1.0000 0.57170  0.16820  0.16790  Biso   1.000  H
  H255     1.0000 0.67830  0.16820  0.08210  Biso   1.000  H
  H256     1.0000 0.57170  0.08180  0.08210  Biso   1.000  H
  C385     1.0000 0.77170  0.69240  0.90180  Biso   1.000  C
  C386     1.0000 0.47830  0.55760  0.90180  Biso   1.000  C
  C387     1.0000 0.77170  0.55760  0.34820  Biso   1.000  C
  C388     1.0000 0.47830  0.69240  0.34820  Biso   1.000  C
  C389     1.0000 0.77170  0.19240  0.40180  Biso   1.000  C
  C390     1.0000 0.47830  0.05760  0.40180  Biso   1.000  C
  C391     1.0000 0.77170  0.05760  0.84820  Biso   1.000  C
  C392     1.0000 0.47830  0.19240  0.84820  Biso   1.000  C
  C393     1.0000 0.27170  0.69240  0.40180  Biso   1.000  C
  C394     1.0000 0.97830  0.55760  0.40180  Biso   1.000  C
  C395     1.0000 0.27170  0.55760  0.84820  Biso   1.000  C
  C396     1.0000 0.97830  0.69240  0.84820  Biso   1.000  C
  C397     1.0000 0.27170  0.19240  0.90180  Biso   1.000  C
  C398     1.0000 0.97830  0.05760  0.90180  Biso   1.000  C
  C399     1.0000 0.27170  0.05760  0.34820  Biso   1.000  C
  C400     1.0000 0.97830  0.19240  0.34820  Biso   1.000  C
  C401     1.0000 0.22830  0.30760  0.09820  Biso   1.000  C
  C402     1.0000 0.02170  0.94240  0.09820  Biso   1.000  C
  C403     1.0000 0.22830  0.94240  0.15180  Biso   1.000  C
  C404     1.0000 0.02170  0.30760  0.15180  Biso   1.000  C
  C405     1.0000 0.22830  0.80760  0.59820  Biso   1.000  C
  C406     1.0000 0.02170  0.44240  0.59820  Biso   1.000  C
  C407     1.0000 0.22830  0.44240  0.65180  Biso   1.000  C
  C408     1.0000 0.02170  0.80760  0.65180  Biso   1.000  C
  C409     1.0000 0.72830  0.30760  0.59820  Biso   1.000  C
  C410     1.0000 0.52170  0.94240  0.59820  Biso   1.000  C
  C411     1.0000 0.72830  0.94240  0.65180  Biso   1.000  C
  C412     1.0000 0.52170  0.30760  0.65180  Biso   1.000  C
  C413     1.0000 0.72830  0.80760  0.09820  Biso   1.000  C
  C414     1.0000 0.52170  0.44240  0.09820  Biso   1.000  C
  C415     1.0000 0.72830  0.44240  0.15180  Biso   1.000  C
  C416     1.0000 0.52170  0.80760  0.15180  Biso   1.000  C
  H257     1.0000 0.81790  0.69120  0.89830  Biso   1.000  H
  H258     1.0000 0.43210  0.55880  0.89830  Biso   1.000  H
  H259     1.0000 0.81790  0.55880  0.35170  Biso   1.000  H
  H260     1.0000 0.43210  0.69120  0.35170  Biso   1.000  H
  H261     1.0000 0.81790  0.19120  0.39830  Biso   1.000  H
  H262     1.0000 0.43210  0.05880  0.39830  Biso   1.000  H
  H263     1.0000 0.81790  0.05880  0.85170  Biso   1.000  H
  H264     1.0000 0.43210  0.19120  0.85170  Biso   1.000  H
  H265     1.0000 0.31790  0.69120  0.39830  Biso   1.000  H
  H266     1.0000 0.93210  0.55880  0.39830  Biso   1.000  H
  H267     1.0000 0.31790  0.55880  0.85170  Biso   1.000  H
  H268     1.0000 0.93210  0.69120  0.85170  Biso   1.000  H
  H269     1.0000 0.31790  0.19120  0.89830  Biso   1.000  H
  H270     1.0000 0.93210  0.05880  0.89830  Biso   1.000  H
  H271     1.0000 0.31790  0.05880  0.35170  Biso   1.000  H
  H272     1.0000 0.93210  0.19120  0.35170  Biso   1.000  H
  H273     1.0000 0.18210  0.30880  0.10170  Biso   1.000  H
  H274     1.0000 0.06790  0.94120  0.10170  Biso   1.000  H
  H275     1.0000 0.18210  0.94120  0.14830  Biso   1.000  H
  H276     1.0000 0.06790  0.30880  0.14830  Biso   1.000  H
  H277     1.0000 0.18210  0.80880  0.60170  Biso   1.000  H
  H278     1.0000 0.06790  0.44120  0.60170  Biso   1.000  H
  H279     1.0000 0.18210  0.44120  0.64830  Biso   1.000  H
  H280     1.0000 0.06790  0.80880  0.64830  Biso   1.000  H
  H281     1.0000 0.68210  0.30880  0.60170  Biso   1.000  H
  H282     1.0000 0.56790  0.94120  0.60170  Biso   1.000  H
  H283     1.0000 0.68210  0.94120  0.64830  Biso   1.000  H
  H284     1.0000 0.56790  0.30880  0.64830  Biso   1.000  H
  H285     1.0000 0.68210  0.80880  0.10170  Biso   1.000  H
  H286     1.0000 0.56790  0.44120  0.10170  Biso   1.000  H
  H287     1.0000 0.68210  0.44120  0.14830  Biso   1.000  H
  H288     1.0000 0.56790  0.80880  0.14830  Biso   1.000  H
  H289     1.0000 0.75710  0.72650  0.89140  Biso   1.000  H
  H290     1.0000 0.49290  0.52350  0.89140  Biso   1.000  H
  H291     1.0000 0.75710  0.52350  0.35860  Biso   1.000  H
  H292     1.0000 0.49290  0.72650  0.35860  Biso   1.000  H
  H293     1.0000 0.75710  0.22650  0.39140  Biso   1.000  H
  H294     1.0000 0.49290  0.02350  0.39140  Biso   1.000  H
  H295     1.0000 0.75710  0.02350  0.85860  Biso   1.000  H
  H296     1.0000 0.49290  0.22650  0.85860  Biso   1.000  H
  H297     1.0000 0.25710  0.72650  0.39140  Biso   1.000  H
  H298     1.0000 0.99290  0.52350  0.39140  Biso   1.000  H
  H299     1.0000 0.25710  0.52350  0.85860  Biso   1.000  H
  H300     1.0000 0.99290  0.72650  0.85860  Biso   1.000  H
  H301     1.0000 0.25710  0.22650  0.89140  Biso   1.000  H
  H302     1.0000 0.99290  0.02350  0.89140  Biso   1.000  H
  H303     1.0000 0.25710  0.02350  0.35860  Biso   1.000  H
  H304     1.0000 0.99290  0.22650  0.35860  Biso   1.000  H
  H305     1.0000 0.24290  0.27350  0.10860  Biso   1.000  H
  H306     1.0000 0.00710  0.97650  0.10860  Biso   1.000  H
  H307     1.0000 0.24290  0.97650  0.14140  Biso   1.000  H
  H308     1.0000 0.00710  0.27350  0.14140  Biso   1.000  H
  H309     1.0000 0.24290  0.77350  0.60860  Biso   1.000  H
  H310     1.0000 0.00710  0.47650  0.60860  Biso   1.000  H
  H311     1.0000 0.24290  0.47650  0.64140  Biso   1.000  H
  H312     1.0000 0.00710  0.77350  0.64140  Biso   1.000  H
  H313     1.0000 0.74290  0.27350  0.60860  Biso   1.000  H
  H314     1.0000 0.50710  0.97650  0.60860  Biso   1.000  H
  H315     1.0000 0.74290  0.97650  0.64140  Biso   1.000  H
  H316     1.0000 0.50710  0.27350  0.64140  Biso   1.000  H
  H317     1.0000 0.74290  0.77350  0.10860  Biso   1.000  H
  H318     1.0000 0.50710  0.47650  0.10860  Biso   1.000  H
  H319     1.0000 0.74290  0.47650  0.14140  Biso   1.000  H
  H320     1.0000 0.50710  0.77350  0.14140  Biso   1.000  H
  C417     1.0000 0.74170  0.65060  0.87180  Biso   1.000  C
  C418     1.0000 0.50830  0.59940  0.87180  Biso   1.000  C
  C419     1.0000 0.74170  0.59940  0.37820  Biso   1.000  C
  C420     1.0000 0.50830  0.65060  0.37820  Biso   1.000  C
  C421     1.0000 0.74170  0.15060  0.37180  Biso   1.000  C
  C422     1.0000 0.50830  0.09940  0.37180  Biso   1.000  C
  C423     1.0000 0.74170  0.09940  0.87820  Biso   1.000  C
  C424     1.0000 0.50830  0.15060  0.87820  Biso   1.000  C
  C425     1.0000 0.24170  0.65060  0.37180  Biso   1.000  C
  C426     1.0000 0.00830  0.59940  0.37180  Biso   1.000  C
  C427     1.0000 0.24170  0.59940  0.87820  Biso   1.000  C
  C428     1.0000 0.00830  0.65060  0.87820  Biso   1.000  C
  C429     1.0000 0.24170  0.15060  0.87180  Biso   1.000  C
  C430     1.0000 0.00830  0.09940  0.87180  Biso   1.000  C
  C431     1.0000 0.24170  0.09940  0.37820  Biso   1.000  C
  C432     1.0000 0.00830  0.15060  0.37820  Biso   1.000  C
  C433     1.0000 0.25830  0.34940  0.12820  Biso   1.000  C
  C434     1.0000 0.99170  0.90060  0.12820  Biso   1.000  C
  C435     1.0000 0.25830  0.90060  0.12180  Biso   1.000  C
  C436     1.0000 0.99170  0.34940  0.12180  Biso   1.000  C
  C437     1.0000 0.25830  0.84940  0.62820  Biso   1.000  C
  C438     1.0000 0.99170  0.40060  0.62820  Biso   1.000  C
  C439     1.0000 0.25830  0.40060  0.62180  Biso   1.000  C
  C440     1.0000 0.99170  0.84940  0.62180  Biso   1.000  C
  C441     1.0000 0.75830  0.34940  0.62820  Biso   1.000  C
  C442     1.0000 0.49170  0.90060  0.62820  Biso   1.000  C
  C443     1.0000 0.75830  0.90060  0.62180  Biso   1.000  C
  C444     1.0000 0.49170  0.34940  0.62180  Biso   1.000  C
  C445     1.0000 0.75830  0.84940  0.12820  Biso   1.000  C
  C446     1.0000 0.49170  0.40060  0.12820  Biso   1.000  C
  C447     1.0000 0.75830  0.40060  0.12180  Biso   1.000  C
  C448     1.0000 0.49170  0.84940  0.12180  Biso   1.000  C
  H321     1.0000 0.69540  0.65160  0.87530  Biso   1.000  H
  H322     1.0000 0.55460  0.59840  0.87530  Biso   1.000  H
  H323     1.0000 0.69540  0.59840  0.37470  Biso   1.000  H
  H324     1.0000 0.55460  0.65160  0.37470  Biso   1.000  H
  H325     1.0000 0.69540  0.15160  0.37530  Biso   1.000  H
  H326     1.0000 0.55460  0.09840  0.37530  Biso   1.000  H
  H327     1.0000 0.69540  0.09840  0.87470  Biso   1.000  H
  H328     1.0000 0.55460  0.15160  0.87470  Biso   1.000  H
  H329     1.0000 0.19540  0.65160  0.37530  Biso   1.000  H
  H330     1.0000 0.05460  0.59840  0.37530  Biso   1.000  H
  H331     1.0000 0.19540  0.59840  0.87470  Biso   1.000  H
  H332     1.0000 0.05460  0.65160  0.87470  Biso   1.000  H
  H333     1.0000 0.19540  0.15160  0.87530  Biso   1.000  H
  H334     1.0000 0.05460  0.09840  0.87530  Biso   1.000  H
  H335     1.0000 0.19540  0.09840  0.37470  Biso   1.000  H
  H336     1.0000 0.05460  0.15160  0.37470  Biso   1.000  H
  H337     1.0000 0.30460  0.34840  0.12470  Biso   1.000  H
  H338     1.0000 0.94540  0.90160  0.12470  Biso   1.000  H
  H339     1.0000 0.30460  0.90160  0.12530  Biso   1.000  H
  H340     1.0000 0.94540  0.34840  0.12530  Biso   1.000  H
  H341     1.0000 0.30460  0.84840  0.62470  Biso   1.000  H
  H342     1.0000 0.94540  0.40160  0.62470  Biso   1.000  H
  H343     1.0000 0.30460  0.40160  0.62530  Biso   1.000  H
  H344     1.0000 0.94540  0.84840  0.62530  Biso   1.000  H
  H345     1.0000 0.80460  0.34840  0.62470  Biso   1.000  H
  H346     1.0000 0.44540  0.90160  0.62470  Biso   1.000  H
  H347     1.0000 0.80460  0.90160  0.62530  Biso   1.000  H
  H348     1.0000 0.44540  0.34840  0.62530  Biso   1.000  H
  H349     1.0000 0.80460  0.84840  0.12470  Biso   1.000  H
  H350     1.0000 0.44540  0.40160  0.12470  Biso   1.000  H
  H351     1.0000 0.80460  0.40160  0.12530  Biso   1.000  H
  H352     1.0000 0.44540  0.84840  0.12530  Biso   1.000  H
  H353     1.0000 0.75650  0.61650  0.88190  Biso   1.000  H
  H354     1.0000 0.49350  0.63350  0.88190  Biso   1.000  H
  H355     1.0000 0.75650  0.63350  0.36810  Biso   1.000  H
  H356     1.0000 0.49350  0.61650  0.36810  Biso   1.000  H
  H357     1.0000 0.75650  0.11650  0.38190  Biso   1.000  H
  H358     1.0000 0.49350  0.13350  0.38190  Biso   1.000  H
  H359     1.0000 0.75650  0.13350  0.86810  Biso   1.000  H
  H360     1.0000 0.49350  0.11650  0.86810  Biso   1.000  H
  H361     1.0000 0.25650  0.61650  0.38190  Biso   1.000  H
  H362     1.0000 0.99350  0.63350  0.38190  Biso   1.000  H
  H363     1.0000 0.25650  0.63350  0.86810  Biso   1.000  H
  H364     1.0000 0.99350  0.61650  0.86810  Biso   1.000  H
  H365     1.0000 0.25650  0.11650  0.88190  Biso   1.000  H
  H366     1.0000 0.99350  0.13350  0.88190  Biso   1.000  H
  H367     1.0000 0.25650  0.13350  0.36810  Biso   1.000  H
  H368     1.0000 0.99350  0.11650  0.36810  Biso   1.000  H
  H369     1.0000 0.24350  0.38350  0.11810  Biso   1.000  H
  H370     1.0000 0.00650  0.86650  0.11810  Biso   1.000  H
  H371     1.0000 0.24350  0.86650  0.13190  Biso   1.000  H
  H372     1.0000 0.00650  0.38350  0.13190  Biso   1.000  H
  H373     1.0000 0.24350  0.88350  0.61810  Biso   1.000  H
  H374     1.0000 0.00650  0.36650  0.61810  Biso   1.000  H
  H375     1.0000 0.24350  0.36650  0.63190  Biso   1.000  H
  H376     1.0000 0.00650  0.88350  0.63190  Biso   1.000  H
  H377     1.0000 0.74350  0.38350  0.61810  Biso   1.000  H
  H378     1.0000 0.50650  0.86650  0.61810  Biso   1.000  H
  H379     1.0000 0.74350  0.86650  0.63190  Biso   1.000  H
  H380     1.0000 0.50650  0.38350  0.63190  Biso   1.000  H
  H381     1.0000 0.74350  0.88350  0.11810  Biso   1.000  H
  H382     1.0000 0.50650  0.36650  0.11810  Biso   1.000  H
  H383     1.0000 0.74350  0.36650  0.13190  Biso   1.000  H
  H384     1.0000 0.50650  0.88350  0.13190  Biso   1.000  H
  C449     1.0000 0.75910  0.65850  0.82090  Biso   1.000  C
  C450     1.0000 0.49090  0.59150  0.82090  Biso   1.000  C
  C451     1.0000 0.75910  0.59150  0.42910  Biso   1.000  C
  C452     1.0000 0.49090  0.65850  0.42910  Biso   1.000  C
  C453     1.0000 0.75910  0.15850  0.32090  Biso   1.000  C
  C454     1.0000 0.49090  0.09150  0.32090  Biso   1.000  C
  C455     1.0000 0.75910  0.09150  0.92910  Biso   1.000  C
  C456     1.0000 0.49090  0.15850  0.92910  Biso   1.000  C
  C457     1.0000 0.25910  0.65850  0.32090  Biso   1.000  C
  C458     1.0000 0.99090  0.59150  0.32090  Biso   1.000  C
  C459     1.0000 0.25910  0.59150  0.92910  Biso   1.000  C
  C460     1.0000 0.99090  0.65850  0.92910  Biso   1.000  C
  C461     1.0000 0.25910  0.15850  0.82090  Biso   1.000  C
  C462     1.0000 0.99090  0.09150  0.82090  Biso   1.000  C
  C463     1.0000 0.25910  0.09150  0.42910  Biso   1.000  C
  C464     1.0000 0.99090  0.15850  0.42910  Biso   1.000  C
  C465     1.0000 0.24090  0.34150  0.17910  Biso   1.000  C
  C466     1.0000 0.00910  0.90850  0.17910  Biso   1.000  C
  C467     1.0000 0.24090  0.90850  0.07090  Biso   1.000  C
  C468     1.0000 0.00910  0.34150  0.07090  Biso   1.000  C
  C469     1.0000 0.24090  0.84150  0.67910  Biso   1.000  C
  C470     1.0000 0.00910  0.40850  0.67910  Biso   1.000  C
  C471     1.0000 0.24090  0.40850  0.57090  Biso   1.000  C
  C472     1.0000 0.00910  0.84150  0.57090  Biso   1.000  C
  C473     1.0000 0.74090  0.34150  0.67910  Biso   1.000  C
  C474     1.0000 0.50910  0.90850  0.67910  Biso   1.000  C
  C475     1.0000 0.74090  0.90850  0.57090  Biso   1.000  C
  C476     1.0000 0.50910  0.34150  0.57090  Biso   1.000  C
  C477     1.0000 0.74090  0.84150  0.17910  Biso   1.000  C
  C478     1.0000 0.50910  0.40850  0.17910  Biso   1.000  C
  C479     1.0000 0.74090  0.40850  0.07090  Biso   1.000  C
  C480     1.0000 0.50910  0.84150  0.07090  Biso   1.000  C
  H385     1.0000 0.74730  0.69370  0.81150  Biso   1.000  H
  H386     1.0000 0.50270  0.55630  0.81150  Biso   1.000  H
  H387     1.0000 0.74730  0.55630  0.43850  Biso   1.000  H
  H388     1.0000 0.50270  0.69370  0.43850  Biso   1.000  H
  H389     1.0000 0.74730  0.19370  0.31150  Biso   1.000  H
  H390     1.0000 0.50270  0.05630  0.31150  Biso   1.000  H
  H391     1.0000 0.74730  0.05630  0.93850  Biso   1.000  H
  H392     1.0000 0.50270  0.19370  0.93850  Biso   1.000  H
  H393     1.0000 0.24730  0.69370  0.31150  Biso   1.000  H
  H394     1.0000 0.00270  0.55630  0.31150  Biso   1.000  H
  H395     1.0000 0.24730  0.55630  0.93850  Biso   1.000  H
  H396     1.0000 0.00270  0.69370  0.93850  Biso   1.000  H
  H397     1.0000 0.24730  0.19370  0.81150  Biso   1.000  H
  H398     1.0000 0.00270  0.05630  0.81150  Biso   1.000  H
  H399     1.0000 0.24730  0.05630  0.43850  Biso   1.000  H
  H400     1.0000 0.00270  0.19370  0.43850  Biso   1.000  H
  H401     1.0000 0.25270  0.30630  0.18850  Biso   1.000  H
  H402     1.0000 0.99730  0.94370  0.18850  Biso   1.000  H
  H403     1.0000 0.25270  0.94370  0.06150  Biso   1.000  H
  H404     1.0000 0.99730  0.30630  0.06150  Biso   1.000  H
  H405     1.0000 0.25270  0.80630  0.68850  Biso   1.000  H
  H406     1.0000 0.99730  0.44370  0.68850  Biso   1.000  H
  H407     1.0000 0.25270  0.44370  0.56150  Biso   1.000  H
  H408     1.0000 0.99730  0.80630  0.56150  Biso   1.000  H
  H409     1.0000 0.75270  0.30630  0.68850  Biso   1.000  H
  H410     1.0000 0.49730  0.94370  0.68850  Biso   1.000  H
  H411     1.0000 0.75270  0.94370  0.56150  Biso   1.000  H
  H412     1.0000 0.49730  0.30630  0.56150  Biso   1.000  H
  H413     1.0000 0.75270  0.80630  0.18850  Biso   1.000  H
  H414     1.0000 0.49730  0.44370  0.18850  Biso   1.000  H
  H415     1.0000 0.75270  0.44370  0.06150  Biso   1.000  H
  H416     1.0000 0.49730  0.80630  0.06150  Biso   1.000  H
  H417     1.0000 0.80510  0.65480  0.81710  Biso   1.000  H
  H418     1.0000 0.44490  0.59520  0.81710  Biso   1.000  H
  H419     1.0000 0.80510  0.59520  0.43290  Biso   1.000  H
  H420     1.0000 0.44490  0.65480  0.43290  Biso   1.000  H
  H421     1.0000 0.80510  0.15480  0.31710  Biso   1.000  H
  H422     1.0000 0.44490  0.09520  0.31710  Biso   1.000  H
  H423     1.0000 0.80510  0.09520  0.93290  Biso   1.000  H
  H424     1.0000 0.44490  0.15480  0.93290  Biso   1.000  H
  H425     1.0000 0.30510  0.65480  0.31710  Biso   1.000  H
  H426     1.0000 0.94490  0.59520  0.31710  Biso   1.000  H
  H427     1.0000 0.30510  0.59520  0.93290  Biso   1.000  H
  H428     1.0000 0.94490  0.65480  0.93290  Biso   1.000  H
  H429     1.0000 0.30510  0.15480  0.81710  Biso   1.000  H
  H430     1.0000 0.94490  0.09520  0.81710  Biso   1.000  H
  H431     1.0000 0.30510  0.09520  0.43290  Biso   1.000  H
  H432     1.0000 0.94490  0.15480  0.43290  Biso   1.000  H
  H433     1.0000 0.19490  0.34520  0.18290  Biso   1.000  H
  H434     1.0000 0.05510  0.90480  0.18290  Biso   1.000  H
  H435     1.0000 0.19490  0.90480  0.06710  Biso   1.000  H
  H436     1.0000 0.05510  0.34520  0.06710  Biso   1.000  H
  H437     1.0000 0.19490  0.84520  0.68290  Biso   1.000  H
  H438     1.0000 0.05510  0.40480  0.68290  Biso   1.000  H
  H439     1.0000 0.19490  0.40480  0.56710  Biso   1.000  H
  H440     1.0000 0.05510  0.84520  0.56710  Biso   1.000  H
  H441     1.0000 0.69490  0.34520  0.68290  Biso   1.000  H
  H442     1.0000 0.55510  0.90480  0.68290  Biso   1.000  H
  H443     1.0000 0.69490  0.90480  0.56710  Biso   1.000  H
  H444     1.0000 0.55510  0.34520  0.56710  Biso   1.000  H
  H445     1.0000 0.69490  0.84520  0.18290  Biso   1.000  H
  H446     1.0000 0.55510  0.40480  0.18290  Biso   1.000  H
  H447     1.0000 0.69490  0.40480  0.06710  Biso   1.000  H
  H448     1.0000 0.55510  0.84520  0.06710  Biso   1.000  H
  C481     1.0000 0.72560  0.61970  0.78970  Biso   1.000  C
  C482     1.0000 0.52440  0.63030  0.78970  Biso   1.000  C
  C483     1.0000 0.72560  0.63030  0.46030  Biso   1.000  C
  C484     1.0000 0.52440  0.61970  0.46030  Biso   1.000  C
  C485     1.0000 0.72560  0.11970  0.28970  Biso   1.000  C
  C486     1.0000 0.52440  0.13030  0.28970  Biso   1.000  C
  C487     1.0000 0.72560  0.13030  0.96030  Biso   1.000  C
  C488     1.0000 0.52440  0.11970  0.96030  Biso   1.000  C
  C489     1.0000 0.22560  0.61970  0.28970  Biso   1.000  C
  C490     1.0000 0.02440  0.63030  0.28970  Biso   1.000  C
  C491     1.0000 0.22560  0.63030  0.96030  Biso   1.000  C
  C492     1.0000 0.02440  0.61970  0.96030  Biso   1.000  C
  C493     1.0000 0.22560  0.11970  0.78970  Biso   1.000  C
  C494     1.0000 0.02440  0.13030  0.78970  Biso   1.000  C
  C495     1.0000 0.22560  0.13030  0.46030  Biso   1.000  C
  C496     1.0000 0.02440  0.11970  0.46030  Biso   1.000  C
  C497     1.0000 0.27440  0.38030  0.21030  Biso   1.000  C
  C498     1.0000 0.97560  0.86970  0.21030  Biso   1.000  C
  C499     1.0000 0.27440  0.86970  0.03970  Biso   1.000  C
  C500     1.0000 0.97560  0.38030  0.03970  Biso   1.000  C
  C501     1.0000 0.27440  0.88030  0.71030  Biso   1.000  C
  C502     1.0000 0.97560  0.36970  0.71030  Biso   1.000  C
  C503     1.0000 0.27440  0.36970  0.53970  Biso   1.000  C
  C504     1.0000 0.97560  0.88030  0.53970  Biso   1.000  C
  C505     1.0000 0.77440  0.38030  0.71030  Biso   1.000  C
  C506     1.0000 0.47560  0.86970  0.71030  Biso   1.000  C
  C507     1.0000 0.77440  0.86970  0.53970  Biso   1.000  C
  C508     1.0000 0.47560  0.38030  0.53970  Biso   1.000  C
  C509     1.0000 0.77440  0.88030  0.21030  Biso   1.000  C
  C510     1.0000 0.47560  0.36970  0.21030  Biso   1.000  C
  C511     1.0000 0.77440  0.36970  0.03970  Biso   1.000  C
  C512     1.0000 0.47560  0.88030  0.03970  Biso   1.000  C
  H449     1.0000 0.67960  0.62510  0.79180  Biso   1.000  H
  H450     1.0000 0.57040  0.62490  0.79180  Biso   1.000  H
  H451     1.0000 0.67960  0.62490  0.45820  Biso   1.000  H
  H452     1.0000 0.57040  0.62510  0.45820  Biso   1.000  H
  H453     1.0000 0.67960  0.12510  0.29180  Biso   1.000  H
  H454     1.0000 0.57040  0.12490  0.29180  Biso   1.000  H
  H455     1.0000 0.67960  0.12490  0.95820  Biso   1.000  H
  H456     1.0000 0.57040  0.12510  0.95820  Biso   1.000  H
  H457     1.0000 0.17960  0.62510  0.29180  Biso   1.000  H
  H458     1.0000 0.07040  0.62490  0.29180  Biso   1.000  H
  H459     1.0000 0.17960  0.62490  0.95820  Biso   1.000  H
  H460     1.0000 0.07040  0.62510  0.95820  Biso   1.000  H
  H461     1.0000 0.17960  0.12510  0.79180  Biso   1.000  H
  H462     1.0000 0.07040  0.12490  0.79180  Biso   1.000  H
  H463     1.0000 0.17960  0.12490  0.45820  Biso   1.000  H
  H464     1.0000 0.07040  0.12510  0.45820  Biso   1.000  H
  H465     1.0000 0.32040  0.37490  0.20820  Biso   1.000  H
  H466     1.0000 0.92960  0.87510  0.20820  Biso   1.000  H
  H467     1.0000 0.32040  0.87510  0.04180  Biso   1.000  H
  H468     1.0000 0.92960  0.37490  0.04180  Biso   1.000  H
  H469     1.0000 0.32040  0.87490  0.70820  Biso   1.000  H
  H470     1.0000 0.92960  0.37510  0.70820  Biso   1.000  H
  H471     1.0000 0.32040  0.37510  0.54180  Biso   1.000  H
  H472     1.0000 0.92960  0.87490  0.54180  Biso   1.000  H
  H473     1.0000 0.82040  0.37490  0.70820  Biso   1.000  H
  H474     1.0000 0.42960  0.87510  0.70820  Biso   1.000  H
  H475     1.0000 0.82040  0.87510  0.54180  Biso   1.000  H
  H476     1.0000 0.42960  0.37490  0.54180  Biso   1.000  H
  H477     1.0000 0.82040  0.87490  0.20820  Biso   1.000  H
  H478     1.0000 0.42960  0.37510  0.20820  Biso   1.000  H
  H479     1.0000 0.82040  0.37510  0.04180  Biso   1.000  H
  H480     1.0000 0.42960  0.87490  0.04180  Biso   1.000  H
  H481     1.0000 0.73830  0.62620  0.75770  Biso   1.000  H
  H482     1.0000 0.51170  0.62380  0.75770  Biso   1.000  H
  H483     1.0000 0.73830  0.62380  0.49230  Biso   1.000  H
  H484     1.0000 0.51170  0.62620  0.49230  Biso   1.000  H
  H485     1.0000 0.73830  0.12620  0.25770  Biso   1.000  H
  H486     1.0000 0.51170  0.12380  0.25770  Biso   1.000  H
  H487     1.0000 0.73830  0.12380  0.99230  Biso   1.000  H
  H488     1.0000 0.51170  0.12620  0.99230  Biso   1.000  H
  H489     1.0000 0.23830  0.62620  0.25770  Biso   1.000  H
  H490     1.0000 0.01170  0.62380  0.25770  Biso   1.000  H
  H491     1.0000 0.23830  0.62380  0.99230  Biso   1.000  H
  H492     1.0000 0.01170  0.62620  0.99230  Biso   1.000  H
  H493     1.0000 0.23830  0.12620  0.75770  Biso   1.000  H
  H494     1.0000 0.01170  0.12380  0.75770  Biso   1.000  H
  H495     1.0000 0.23830  0.12380  0.49230  Biso   1.000  H
  H496     1.0000 0.01170  0.12620  0.49230  Biso   1.000  H
  H497     1.0000 0.26170  0.37380  0.24230  Biso   1.000  H
  H498     1.0000 0.98830  0.87620  0.24230  Biso   1.000  H
  H499     1.0000 0.26170  0.87620  0.00770  Biso   1.000  H
  H500     1.0000 0.98830  0.37380  0.00770  Biso   1.000  H
  H501     1.0000 0.26170  0.87380  0.74230  Biso   1.000  H
  H502     1.0000 0.98830  0.37620  0.74230  Biso   1.000  H
  H503     1.0000 0.26170  0.37620  0.50770  Biso   1.000  H
  H504     1.0000 0.98830  0.87380  0.50770  Biso   1.000  H
  H505     1.0000 0.76170  0.37380  0.74230  Biso   1.000  H
  H506     1.0000 0.48830  0.87620  0.74230  Biso   1.000  H
  H507     1.0000 0.76170  0.87620  0.50770  Biso   1.000  H
  H508     1.0000 0.48830  0.37380  0.50770  Biso   1.000  H
  H509     1.0000 0.76170  0.87380  0.24230  Biso   1.000  H
  H510     1.0000 0.48830  0.37620  0.24230  Biso   1.000  H
  H511     1.0000 0.76170  0.37620  0.00770  Biso   1.000  H
  H512     1.0000 0.48830  0.87380  0.00770  Biso   1.000  H
