data_image0
_cell_length_a       42.178
_cell_length_b       9.0683
_cell_length_c       23.821
_cell_angle_alpha    90
_cell_angle_beta     93.27
_cell_angle_gamma    90

_symmetry_space_group_name_H-M    "P 1"
_symmetry_int_tables_number       1

loop_
  _symmetry_equiv_pos_as_xyz
  'x, y, z'

loop_
  _atom_site_label
  _atom_site_occupancy
  _atom_site_fract_x
  _atom_site_fract_y
  _atom_site_fract_z
  _atom_site_thermal_displace_type
  _atom_site_B_iso_or_equiv
  _atom_site_type_symbol
  Mo1      1.0000 0.83439  0.57092  0.87076  Biso   1.000  Mo
  Mo2      1.0000 0.16561  0.57092  0.62924  Biso   1.000  Mo
  Mo3      1.0000 0.33439  0.07092  0.87076  Biso   1.000  Mo
  Mo4      1.0000 0.66561  0.07092  0.62924  Biso   1.000  Mo
  Mo5      1.0000 0.16561  0.42908  0.12924  Biso   1.000  Mo
  Mo6      1.0000 0.83439  0.42908  0.37076  Biso   1.000  Mo
  Mo7      1.0000 0.66561  0.92908  0.12924  Biso   1.000  Mo
  Mo8      1.0000 0.33439  0.92908  0.37076  Biso   1.000  Mo
  Mo9      1.0000 0.90123  0.51673  0.87556  Biso   1.000  Mo
  Mo10     1.0000 0.09877  0.51673  0.62444  Biso   1.000  Mo
  Mo11     1.0000 0.40123  0.01673  0.87556  Biso   1.000  Mo
  Mo12     1.0000 0.59877  0.01673  0.62444  Biso   1.000  Mo
  Mo13     1.0000 0.09877  0.48327  0.12444  Biso   1.000  Mo
  Mo14     1.0000 0.90123  0.48327  0.37556  Biso   1.000  Mo
  Mo15     1.0000 0.59877  0.98327  0.12444  Biso   1.000  Mo
  Mo16     1.0000 0.40123  0.98327  0.37556  Biso   1.000  Mo
  Cu1      1.0000 0.85982  0.33992  0.93133  Biso   1.000  Cu
  Cu2      1.0000 0.14018  0.33992  0.56867  Biso   1.000  Cu
  Cu3      1.0000 0.35982  0.83992  0.93133  Biso   1.000  Cu
  Cu4      1.0000 0.64018  0.83992  0.56867  Biso   1.000  Cu
  Cu5      1.0000 0.14018  0.66008  0.06867  Biso   1.000  Cu
  Cu6      1.0000 0.85982  0.66008  0.43133  Biso   1.000  Cu
  Cu7      1.0000 0.64018  0.16008  0.06867  Biso   1.000  Cu
  Cu8      1.0000 0.35982  0.16008  0.43133  Biso   1.000  Cu
  Cu9      1.0000 0.85922  0.35230  0.80757  Biso   1.000  Cu
  Cu10     1.0000 0.14078  0.35230  0.69243  Biso   1.000  Cu
  Cu11     1.0000 0.35922  0.85230  0.80757  Biso   1.000  Cu
  Cu12     1.0000 0.64078  0.85230  0.69243  Biso   1.000  Cu
  Cu13     1.0000 0.14078  0.64770  0.19243  Biso   1.000  Cu
  Cu14     1.0000 0.85922  0.64770  0.30757  Biso   1.000  Cu
  Cu15     1.0000 0.64078  0.14770  0.19243  Biso   1.000  Cu
  Cu16     1.0000 0.35922  0.14770  0.30757  Biso   1.000  Cu
  S1       1.0000 0.81594  0.34020  0.86581  Biso   1.000  S
  S2       1.0000 0.18406  0.34020  0.63419  Biso   1.000  S
  S3       1.0000 0.31594  0.84020  0.86581  Biso   1.000  S
  S4       1.0000 0.68406  0.84020  0.63419  Biso   1.000  S
  S5       1.0000 0.18406  0.65980  0.13419  Biso   1.000  S
  S6       1.0000 0.81594  0.65980  0.36581  Biso   1.000  S
  S7       1.0000 0.68406  0.15980  0.13419  Biso   1.000  S
  S8       1.0000 0.31594  0.15980  0.36581  Biso   1.000  S
  S9       1.0000 0.90108  0.27120  0.87252  Biso   1.000  S
  S10      1.0000 0.09892  0.27120  0.62748  Biso   1.000  S
  S11      1.0000 0.40108  0.77120  0.87252  Biso   1.000  S
  S12      1.0000 0.59892  0.77120  0.62748  Biso   1.000  S
  S13      1.0000 0.09892  0.72880  0.12748  Biso   1.000  S
  S14      1.0000 0.90108  0.72880  0.37252  Biso   1.000  S
  S15      1.0000 0.59892  0.22880  0.12748  Biso   1.000  S
  S16      1.0000 0.40108  0.22880  0.37252  Biso   1.000  S
  S17      1.0000 0.86985  0.57980  0.94914  Biso   1.000  S
  S18      1.0000 0.13015  0.57980  0.55086  Biso   1.000  S
  S19      1.0000 0.36985  0.07980  0.94914  Biso   1.000  S
  S20      1.0000 0.63015  0.07980  0.55086  Biso   1.000  S
  S21      1.0000 0.13015  0.42020  0.05086  Biso   1.000  S
  S22      1.0000 0.86985  0.42020  0.44914  Biso   1.000  S
  S23      1.0000 0.63015  0.92020  0.05086  Biso   1.000  S
  S24      1.0000 0.36985  0.92020  0.44914  Biso   1.000  S
  S25      1.0000 0.86908  0.59710  0.79871  Biso   1.000  S
  S26      1.0000 0.13092  0.59710  0.70129  Biso   1.000  S
  S27      1.0000 0.36908  0.09710  0.79871  Biso   1.000  S
  S28      1.0000 0.63092  0.09710  0.70129  Biso   1.000  S
  S29      1.0000 0.13092  0.40290  0.20129  Biso   1.000  S
  S30      1.0000 0.86908  0.40290  0.29871  Biso   1.000  S
  S31      1.0000 0.63092  0.90290  0.20129  Biso   1.000  S
  S32      1.0000 0.36908  0.90290  0.29871  Biso   1.000  S
  N1       1.0000 0.85710  0.20930  0.99560  Biso   1.000  N
  N2       1.0000 0.14290  0.20930  0.50440  Biso   1.000  N
  N3       1.0000 0.35710  0.70930  0.99560  Biso   1.000  N
  N4       1.0000 0.64290  0.70930  0.50440  Biso   1.000  N
  N5       1.0000 0.14290  0.79070  0.00440  Biso   1.000  N
  N6       1.0000 0.85710  0.79070  0.49560  Biso   1.000  N
  N7       1.0000 0.64290  0.29070  0.00440  Biso   1.000  N
  N8       1.0000 0.35710  0.29070  0.49560  Biso   1.000  N
  C1       1.0000 0.81900  0.81840  0.87450  Biso   1.000  C
  C2       1.0000 0.18100  0.81840  0.62550  Biso   1.000  C
  C3       1.0000 0.31900  0.31840  0.87450  Biso   1.000  C
  C4       1.0000 0.68100  0.31840  0.62550  Biso   1.000  C
  C5       1.0000 0.18100  0.18160  0.12550  Biso   1.000  C
  C6       1.0000 0.81900  0.18160  0.37450  Biso   1.000  C
  C7       1.0000 0.68100  0.68160  0.12550  Biso   1.000  C
  C8       1.0000 0.31900  0.68160  0.37450  Biso   1.000  C
  C9       1.0000 0.80340  0.75700  0.82370  Biso   1.000  C
  C10      1.0000 0.19660  0.75700  0.67630  Biso   1.000  C
  C11      1.0000 0.30340  0.25700  0.82370  Biso   1.000  C
  C12      1.0000 0.69660  0.25700  0.67630  Biso   1.000  C
  C13      1.0000 0.19660  0.24300  0.17630  Biso   1.000  C
  C14      1.0000 0.80340  0.24300  0.32370  Biso   1.000  C
  C15      1.0000 0.69660  0.74300  0.17630  Biso   1.000  C
  C16      1.0000 0.30340  0.74300  0.32370  Biso   1.000  C
  C17      1.0000 0.78270  0.64580  0.83950  Biso   1.000  C
  C18      1.0000 0.21730  0.64580  0.66050  Biso   1.000  C
  C19      1.0000 0.28270  0.14580  0.83950  Biso   1.000  C
  C20      1.0000 0.71730  0.14580  0.66050  Biso   1.000  C
  C21      1.0000 0.21730  0.35420  0.16050  Biso   1.000  C
  C22      1.0000 0.78270  0.35420  0.33950  Biso   1.000  C
  C23      1.0000 0.71730  0.85420  0.16050  Biso   1.000  C
  C24      1.0000 0.28270  0.85420  0.33950  Biso   1.000  C
  C25      1.0000 0.78310  0.63590  0.89960  Biso   1.000  C
  C26      1.0000 0.21690  0.63590  0.60040  Biso   1.000  C
  C27      1.0000 0.28310  0.13590  0.89960  Biso   1.000  C
  C28      1.0000 0.71690  0.13590  0.60040  Biso   1.000  C
  C29      1.0000 0.21690  0.36410  0.10040  Biso   1.000  C
  C30      1.0000 0.78310  0.36410  0.39960  Biso   1.000  C
  C31      1.0000 0.71690  0.86410  0.10040  Biso   1.000  C
  C32      1.0000 0.28310  0.86410  0.39960  Biso   1.000  C
  C33      1.0000 0.80460  0.74530  0.92080  Biso   1.000  C
  C34      1.0000 0.19540  0.74530  0.57920  Biso   1.000  C
  C35      1.0000 0.30460  0.24530  0.92080  Biso   1.000  C
  C36      1.0000 0.69540  0.24530  0.57920  Biso   1.000  C
  C37      1.0000 0.19540  0.25470  0.07920  Biso   1.000  C
  C38      1.0000 0.80460  0.25470  0.42080  Biso   1.000  C
  C39      1.0000 0.69540  0.75470  0.07920  Biso   1.000  C
  C40      1.0000 0.30460  0.75470  0.42080  Biso   1.000  C
  C41      1.0000 0.83990  0.94750  0.87700  Biso   1.000  C
  C42      1.0000 0.16010  0.94750  0.62300  Biso   1.000  C
  C43      1.0000 0.33990  0.44750  0.87700  Biso   1.000  C
  C44      1.0000 0.66010  0.44750  0.62300  Biso   1.000  C
  C45      1.0000 0.16010  0.05250  0.12300  Biso   1.000  C
  C46      1.0000 0.83990  0.05250  0.37700  Biso   1.000  C
  C47      1.0000 0.66010  0.55250  0.12300  Biso   1.000  C
  C48      1.0000 0.33990  0.55250  0.37700  Biso   1.000  C
  H1       1.0000 0.85620  0.93640  0.84940  Biso   1.000  H
  H2       1.0000 0.14380  0.93640  0.65060  Biso   1.000  H
  H3       1.0000 0.35620  0.43640  0.84940  Biso   1.000  H
  H4       1.0000 0.64380  0.43640  0.65060  Biso   1.000  H
  H5       1.0000 0.14380  0.06360  0.15060  Biso   1.000  H
  H6       1.0000 0.85620  0.06360  0.34940  Biso   1.000  H
  H7       1.0000 0.64380  0.56360  0.15060  Biso   1.000  H
  H8       1.0000 0.35620  0.56360  0.34940  Biso   1.000  H
  H9       1.0000 0.85020  0.95580  0.91480  Biso   1.000  H
  H10      1.0000 0.14980  0.95580  0.58520  Biso   1.000  H
  H11      1.0000 0.35020  0.45580  0.91480  Biso   1.000  H
  H12      1.0000 0.64980  0.45580  0.58520  Biso   1.000  H
  H13      1.0000 0.14980  0.04420  0.08520  Biso   1.000  H
  H14      1.0000 0.85020  0.04420  0.41480  Biso   1.000  H
  H15      1.0000 0.64980  0.54420  0.08520  Biso   1.000  H
  H16      1.0000 0.35020  0.54420  0.41480  Biso   1.000  H
  H17      1.0000 0.82740  0.03650  0.86840  Biso   1.000  H
  H18      1.0000 0.17260  0.03650  0.63160  Biso   1.000  H
  H19      1.0000 0.32740  0.53650  0.86840  Biso   1.000  H
  H20      1.0000 0.67260  0.53650  0.63160  Biso   1.000  H
  H21      1.0000 0.17260  0.96350  0.13160  Biso   1.000  H
  H22      1.0000 0.82740  0.96350  0.36840  Biso   1.000  H
  H23      1.0000 0.67260  0.46350  0.13160  Biso   1.000  H
  H24      1.0000 0.32740  0.46350  0.36840  Biso   1.000  H
  C49      1.0000 0.80800  0.82100  0.76650  Biso   1.000  C
  C50      1.0000 0.19200  0.82100  0.73350  Biso   1.000  C
  C51      1.0000 0.30800  0.32100  0.76650  Biso   1.000  C
  C52      1.0000 0.69200  0.32100  0.73350  Biso   1.000  C
  C53      1.0000 0.19200  0.17900  0.23350  Biso   1.000  C
  C54      1.0000 0.80800  0.17900  0.26650  Biso   1.000  C
  C55      1.0000 0.69200  0.67900  0.23350  Biso   1.000  C
  C56      1.0000 0.30800  0.67900  0.26650  Biso   1.000  C
  H25      1.0000 0.79310  0.77440  0.73880  Biso   1.000  H
  H26      1.0000 0.20690  0.77440  0.76120  Biso   1.000  H
  H27      1.0000 0.29310  0.27440  0.73880  Biso   1.000  H
  H28      1.0000 0.70690  0.27440  0.76120  Biso   1.000  H
  H29      1.0000 0.20690  0.22560  0.26120  Biso   1.000  H
  H30      1.0000 0.79310  0.22560  0.23880  Biso   1.000  H
  H31      1.0000 0.70690  0.72560  0.26120  Biso   1.000  H
  H32      1.0000 0.29310  0.72560  0.23880  Biso   1.000  H
  H33      1.0000 0.82980  0.80290  0.75610  Biso   1.000  H
  H34      1.0000 0.17020  0.80290  0.74390  Biso   1.000  H
  H35      1.0000 0.32980  0.30290  0.75610  Biso   1.000  H
  H36      1.0000 0.67020  0.30290  0.74390  Biso   1.000  H
  H37      1.0000 0.17020  0.19710  0.24390  Biso   1.000  H
  H38      1.0000 0.82980  0.19710  0.25610  Biso   1.000  H
  H39      1.0000 0.67020  0.69710  0.24390  Biso   1.000  H
  H40      1.0000 0.32980  0.69710  0.25610  Biso   1.000  H
  H41      1.0000 0.80400  0.92750  0.76720  Biso   1.000  H
  H42      1.0000 0.19600  0.92750  0.73280  Biso   1.000  H
  H43      1.0000 0.30400  0.42750  0.76720  Biso   1.000  H
  H44      1.0000 0.69600  0.42750  0.73280  Biso   1.000  H
  H45      1.0000 0.19600  0.07250  0.23280  Biso   1.000  H
  H46      1.0000 0.80400  0.07250  0.26720  Biso   1.000  H
  H47      1.0000 0.69600  0.57250  0.23280  Biso   1.000  H
  H48      1.0000 0.30400  0.57250  0.26720  Biso   1.000  H
  C57      1.0000 0.76010  0.56070  0.79960  Biso   1.000  C
  C58      1.0000 0.23990  0.56070  0.70040  Biso   1.000  C
  C59      1.0000 0.26010  0.06070  0.79960  Biso   1.000  C
  C60      1.0000 0.73990  0.06070  0.70040  Biso   1.000  C
  C61      1.0000 0.23990  0.43930  0.20040  Biso   1.000  C
  C62      1.0000 0.76010  0.43930  0.29960  Biso   1.000  C
  C63      1.0000 0.73990  0.93930  0.20040  Biso   1.000  C
  C64      1.0000 0.26010  0.93930  0.29960  Biso   1.000  C
  H49      1.0000 0.74160  0.62230  0.78900  Biso   1.000  H
  H50      1.0000 0.25840  0.62230  0.71100  Biso   1.000  H
  H51      1.0000 0.24160  0.12230  0.78900  Biso   1.000  H
  H52      1.0000 0.75840  0.12230  0.71100  Biso   1.000  H
  H53      1.0000 0.25840  0.37770  0.21100  Biso   1.000  H
  H54      1.0000 0.74160  0.37770  0.28900  Biso   1.000  H
  H55      1.0000 0.75840  0.87770  0.21100  Biso   1.000  H
  H56      1.0000 0.24160  0.87770  0.28900  Biso   1.000  H
  H57      1.0000 0.75310  0.47110  0.81830  Biso   1.000  H
  H58      1.0000 0.24690  0.47110  0.68170  Biso   1.000  H
  H59      1.0000 0.25310  0.97110  0.81830  Biso   1.000  H
  H60      1.0000 0.74690  0.97110  0.68170  Biso   1.000  H
  H61      1.0000 0.24690  0.52890  0.18170  Biso   1.000  H
  H62      1.0000 0.75310  0.52890  0.31830  Biso   1.000  H
  H63      1.0000 0.74690  0.02890  0.18170  Biso   1.000  H
  H64      1.0000 0.25310  0.02890  0.31830  Biso   1.000  H
  H65      1.0000 0.77100  0.53380  0.76590  Biso   1.000  H
  H66      1.0000 0.22900  0.53380  0.73410  Biso   1.000  H
  H67      1.0000 0.27100  0.03380  0.76590  Biso   1.000  H
  H68      1.0000 0.72900  0.03380  0.73410  Biso   1.000  H
  H69      1.0000 0.22900  0.46620  0.23410  Biso   1.000  H
  H70      1.0000 0.77100  0.46620  0.26590  Biso   1.000  H
  H71      1.0000 0.72900  0.96620  0.23410  Biso   1.000  H
  H72      1.0000 0.27100  0.96620  0.26590  Biso   1.000  H
  C65      1.0000 0.76210  0.54040  0.93370  Biso   1.000  C
  C66      1.0000 0.23790  0.54040  0.56630  Biso   1.000  C
  C67      1.0000 0.26210  0.04040  0.93370  Biso   1.000  C
  C68      1.0000 0.73790  0.04040  0.56630  Biso   1.000  C
  C69      1.0000 0.23790  0.45960  0.06630  Biso   1.000  C
  C70      1.0000 0.76210  0.45960  0.43370  Biso   1.000  C
  C71      1.0000 0.73790  0.95960  0.06630  Biso   1.000  C
  C72      1.0000 0.26210  0.95960  0.43370  Biso   1.000  C
  H73      1.0000 0.77270  0.52190  0.97080  Biso   1.000  H
  H74      1.0000 0.22730  0.52190  0.52920  Biso   1.000  H
  H75      1.0000 0.27270  0.02190  0.97080  Biso   1.000  H
  H76      1.0000 0.72730  0.02190  0.52920  Biso   1.000  H
  H77      1.0000 0.22730  0.47810  0.02920  Biso   1.000  H
  H78      1.0000 0.77270  0.47810  0.47080  Biso   1.000  H
  H79      1.0000 0.72730  0.97810  0.02920  Biso   1.000  H
  H80      1.0000 0.27270  0.97810  0.47080  Biso   1.000  H
  H81      1.0000 0.75820  0.44640  0.91420  Biso   1.000  H
  H82      1.0000 0.24180  0.44640  0.58580  Biso   1.000  H
  H83      1.0000 0.25820  0.94640  0.91420  Biso   1.000  H
  H84      1.0000 0.74180  0.94640  0.58580  Biso   1.000  H
  H85      1.0000 0.24180  0.55360  0.08580  Biso   1.000  H
  H86      1.0000 0.75820  0.55360  0.41420  Biso   1.000  H
  H87      1.0000 0.74180  0.05360  0.08580  Biso   1.000  H
  H88      1.0000 0.25820  0.05360  0.41420  Biso   1.000  H
  H89      1.0000 0.74190  0.59070  0.93830  Biso   1.000  H
  H90      1.0000 0.25810  0.59070  0.56170  Biso   1.000  H
  H91      1.0000 0.24190  0.09070  0.93830  Biso   1.000  H
  H92      1.0000 0.75810  0.09070  0.56170  Biso   1.000  H
  H93      1.0000 0.25810  0.40930  0.06170  Biso   1.000  H
  H94      1.0000 0.74190  0.40930  0.43830  Biso   1.000  H
  H95      1.0000 0.75810  0.90930  0.06170  Biso   1.000  H
  H96      1.0000 0.24190  0.90930  0.43830  Biso   1.000  H
  C73      1.0000 0.80980  0.78630  0.98070  Biso   1.000  C
  C74      1.0000 0.19020  0.78630  0.51930  Biso   1.000  C
  C75      1.0000 0.30980  0.28630  0.98070  Biso   1.000  C
  C76      1.0000 0.69020  0.28630  0.51930  Biso   1.000  C
  C77      1.0000 0.19020  0.21370  0.01930  Biso   1.000  C
  C78      1.0000 0.80980  0.21370  0.48070  Biso   1.000  C
  C79      1.0000 0.69020  0.71370  0.01930  Biso   1.000  C
  C80      1.0000 0.30980  0.71370  0.48070  Biso   1.000  C
  H97      1.0000 0.79990  0.71230  0.00410  Biso   1.000  H
  H98      1.0000 0.20010  0.71230  0.49590  Biso   1.000  H
  H99      1.0000 0.29990  0.21230  0.00410  Biso   1.000  H
  H100     1.0000 0.70010  0.21230  0.49590  Biso   1.000  H
  H101     1.0000 0.20010  0.28770  0.99590  Biso   1.000  H
  H102     1.0000 0.79990  0.28770  0.50410  Biso   1.000  H
  H103     1.0000 0.70010  0.78770  0.99590  Biso   1.000  H
  H104     1.0000 0.29990  0.78770  0.50410  Biso   1.000  H
  H105     1.0000 0.80020  0.88290  0.98700  Biso   1.000  H
  H106     1.0000 0.19980  0.88290  0.51300  Biso   1.000  H
  H107     1.0000 0.30020  0.38290  0.98700  Biso   1.000  H
  H108     1.0000 0.69980  0.38290  0.51300  Biso   1.000  H
  H109     1.0000 0.19980  0.11710  0.01300  Biso   1.000  H
  H110     1.0000 0.80020  0.11710  0.48700  Biso   1.000  H
  H111     1.0000 0.69980  0.61710  0.01300  Biso   1.000  H
  H112     1.0000 0.30020  0.61710  0.48700  Biso   1.000  H
  H113     1.0000 0.83260  0.79100  0.99070  Biso   1.000  H
  H114     1.0000 0.16740  0.79100  0.50930  Biso   1.000  H
  H115     1.0000 0.33260  0.29100  0.99070  Biso   1.000  H
  H116     1.0000 0.66740  0.29100  0.50930  Biso   1.000  H
  H117     1.0000 0.16740  0.20900  0.00930  Biso   1.000  H
  H118     1.0000 0.83260  0.20900  0.49070  Biso   1.000  H
  H119     1.0000 0.66740  0.70900  0.00930  Biso   1.000  H
  H120     1.0000 0.33260  0.70900  0.49070  Biso   1.000  H
  C81      1.0000 0.83060  0.19490  0.02290  Biso   1.000  C
  C82      1.0000 0.16940  0.19490  0.47710  Biso   1.000  C
  C83      1.0000 0.33060  0.69490  0.02290  Biso   1.000  C
  C84      1.0000 0.66940  0.69490  0.47710  Biso   1.000  C
  C85      1.0000 0.16940  0.80510  0.97710  Biso   1.000  C
  C86      1.0000 0.83060  0.80510  0.52290  Biso   1.000  C
  C87      1.0000 0.66940  0.30510  0.97710  Biso   1.000  C
  C88      1.0000 0.33060  0.30510  0.52290  Biso   1.000  C
  H121     1.0000 0.81230  0.24780  0.00910  Biso   1.000  H
  H122     1.0000 0.18770  0.24780  0.49090  Biso   1.000  H
  H123     1.0000 0.31230  0.74780  0.00910  Biso   1.000  H
  H124     1.0000 0.68770  0.74780  0.49090  Biso   1.000  H
  H125     1.0000 0.18770  0.75220  0.99090  Biso   1.000  H
  H126     1.0000 0.81230  0.75220  0.50910  Biso   1.000  H
  H127     1.0000 0.68770  0.25220  0.99090  Biso   1.000  H
  H128     1.0000 0.31230  0.25220  0.50910  Biso   1.000  H
  C89      1.0000 0.82790  0.10870  0.06980  Biso   1.000  C
  C90      1.0000 0.17210  0.10870  0.43020  Biso   1.000  C
  C91      1.0000 0.32790  0.60870  0.06980  Biso   1.000  C
  C92      1.0000 0.67210  0.60870  0.43020  Biso   1.000  C
  C93      1.0000 0.17210  0.89130  0.93020  Biso   1.000  C
  C94      1.0000 0.82790  0.89130  0.56980  Biso   1.000  C
  C95      1.0000 0.67210  0.39130  0.93020  Biso   1.000  C
  C96      1.0000 0.32790  0.39130  0.56980  Biso   1.000  C
  H129     1.0000 0.80800  0.09620  0.08600  Biso   1.000  H
  H130     1.0000 0.19200  0.09620  0.41400  Biso   1.000  H
  H131     1.0000 0.30800  0.59620  0.08600  Biso   1.000  H
  H132     1.0000 0.69200  0.59620  0.41400  Biso   1.000  H
  H133     1.0000 0.19200  0.90380  0.91400  Biso   1.000  H
  H134     1.0000 0.80800  0.90380  0.58600  Biso   1.000  H
  H135     1.0000 0.69200  0.40380  0.91400  Biso   1.000  H
  H136     1.0000 0.30800  0.40380  0.58600  Biso   1.000  H
  C97      1.0000 0.85440  0.04190  0.09230  Biso   1.000  C
  C98      1.0000 0.14560  0.04190  0.40770  Biso   1.000  C
  C99      1.0000 0.35440  0.54190  0.09230  Biso   1.000  C
  C100     1.0000 0.64560  0.54190  0.40770  Biso   1.000  C
  C101     1.0000 0.14560  0.95810  0.90770  Biso   1.000  C
  C102     1.0000 0.85440  0.95810  0.59230  Biso   1.000  C
  C103     1.0000 0.64560  0.45810  0.90770  Biso   1.000  C
  C104     1.0000 0.35440  0.45810  0.59230  Biso   1.000  C
  C105     1.0000 0.88300  0.05430  0.06350  Biso   1.000  C
  C106     1.0000 0.11700  0.05430  0.43650  Biso   1.000  C
  C107     1.0000 0.38300  0.55430  0.06350  Biso   1.000  C
  C108     1.0000 0.61700  0.55430  0.43650  Biso   1.000  C
  C109     1.0000 0.11700  0.94570  0.93650  Biso   1.000  C
  C110     1.0000 0.88300  0.94570  0.56350  Biso   1.000  C
  C111     1.0000 0.61700  0.44570  0.93650  Biso   1.000  C
  C112     1.0000 0.38300  0.44570  0.56350  Biso   1.000  C
  H137     1.0000 0.90180  0.00450  0.07700  Biso   1.000  H
  H138     1.0000 0.09820  0.00450  0.42300  Biso   1.000  H
  H139     1.0000 0.40180  0.50450  0.07700  Biso   1.000  H
  H140     1.0000 0.59820  0.50450  0.42300  Biso   1.000  H
  H141     1.0000 0.09820  0.99550  0.92300  Biso   1.000  H
  H142     1.0000 0.90180  0.99550  0.57700  Biso   1.000  H
  H143     1.0000 0.59820  0.49550  0.92300  Biso   1.000  H
  H144     1.0000 0.40180  0.49550  0.57700  Biso   1.000  H
  C113     1.0000 0.88290  0.13870  0.01660  Biso   1.000  C
  C114     1.0000 0.11710  0.13870  0.48340  Biso   1.000  C
  C115     1.0000 0.38290  0.63870  0.01660  Biso   1.000  C
  C116     1.0000 0.61710  0.63870  0.48340  Biso   1.000  C
  C117     1.0000 0.11710  0.86130  0.98340  Biso   1.000  C
  C118     1.0000 0.88290  0.86130  0.51660  Biso   1.000  C
  C119     1.0000 0.61710  0.36130  0.98340  Biso   1.000  C
  C120     1.0000 0.38290  0.36130  0.51660  Biso   1.000  C
  H145     1.0000 0.90210  0.14810  0.99780  Biso   1.000  H
  H146     1.0000 0.09790  0.14810  0.50220  Biso   1.000  H
  H147     1.0000 0.40210  0.64810  0.99780  Biso   1.000  H
  H148     1.0000 0.59790  0.64810  0.50220  Biso   1.000  H
  H149     1.0000 0.09790  0.85190  0.00220  Biso   1.000  H
  H150     1.0000 0.90210  0.85190  0.49780  Biso   1.000  H
  H151     1.0000 0.59790  0.35190  0.00220  Biso   1.000  H
  H152     1.0000 0.40210  0.35190  0.49780  Biso   1.000  H
  P1       1.0000 0.73176  0.03730  0.88422  Biso   1.000  P
  P2       1.0000 0.26824  0.03730  0.61578  Biso   1.000  P
  P3       1.0000 0.23176  0.53730  0.88422  Biso   1.000  P
  P4       1.0000 0.76824  0.53730  0.61578  Biso   1.000  P
  P5       1.0000 0.26824  0.96270  0.11578  Biso   1.000  P
  P6       1.0000 0.73176  0.96270  0.38422  Biso   1.000  P
  P7       1.0000 0.76824  0.46270  0.11578  Biso   1.000  P
  P8       1.0000 0.23176  0.46270  0.38422  Biso   1.000  P
  F1       1.0000 0.75840  0.04200  0.92790  Biso   1.000  F
  F2       1.0000 0.24160  0.04200  0.57210  Biso   1.000  F
  F3       1.0000 0.25840  0.54200  0.92790  Biso   1.000  F
  F4       1.0000 0.74160  0.54200  0.57210  Biso   1.000  F
  F5       1.0000 0.24160  0.95800  0.07210  Biso   1.000  F
  F6       1.0000 0.75840  0.95800  0.42790  Biso   1.000  F
  F7       1.0000 0.74160  0.45800  0.07210  Biso   1.000  F
  F8       1.0000 0.25840  0.45800  0.42790  Biso   1.000  F
  F9       1.0000 0.73170  0.86990  0.89540  Biso   1.000  F
  F10      1.0000 0.26830  0.86990  0.60460  Biso   1.000  F
  F11      1.0000 0.23170  0.36990  0.89540  Biso   1.000  F
  F12      1.0000 0.76830  0.36990  0.60460  Biso   1.000  F
  F13      1.0000 0.26830  0.13010  0.10460  Biso   1.000  F
  F14      1.0000 0.73170  0.13010  0.39540  Biso   1.000  F
  F15      1.0000 0.76830  0.63010  0.10460  Biso   1.000  F
  F16      1.0000 0.23170  0.63010  0.39540  Biso   1.000  F
  F17      1.0000 0.70460  0.04610  0.92780  Biso   1.000  F
  F18      1.0000 0.29540  0.04610  0.57220  Biso   1.000  F
  F19      1.0000 0.20460  0.54610  0.92780  Biso   1.000  F
  F20      1.0000 0.79540  0.54610  0.57220  Biso   1.000  F
  F21      1.0000 0.29540  0.95390  0.07220  Biso   1.000  F
  F22      1.0000 0.70460  0.95390  0.42780  Biso   1.000  F
  F23      1.0000 0.79540  0.45390  0.07220  Biso   1.000  F
  F24      1.0000 0.20460  0.45390  0.42780  Biso   1.000  F
  F25      1.0000 0.70430  0.02700  0.83480  Biso   1.000  F
  F26      1.0000 0.29570  0.02700  0.66520  Biso   1.000  F
  F27      1.0000 0.20430  0.52700  0.83480  Biso   1.000  F
  F28      1.0000 0.79570  0.52700  0.66520  Biso   1.000  F
  F29      1.0000 0.29570  0.97300  0.16520  Biso   1.000  F
  F30      1.0000 0.70430  0.97300  0.33480  Biso   1.000  F
  F31      1.0000 0.79570  0.47300  0.16520  Biso   1.000  F
  F32      1.0000 0.20430  0.47300  0.33480  Biso   1.000  F
  F33      1.0000 0.73150  0.20570  0.87240  Biso   1.000  F
  F34      1.0000 0.26850  0.20570  0.62760  Biso   1.000  F
  F35      1.0000 0.23150  0.70570  0.87240  Biso   1.000  F
  F36      1.0000 0.76850  0.70570  0.62760  Biso   1.000  F
  F37      1.0000 0.26850  0.79430  0.12760  Biso   1.000  F
  F38      1.0000 0.73150  0.79430  0.37240  Biso   1.000  F
  F39      1.0000 0.76850  0.29430  0.12760  Biso   1.000  F
  F40      1.0000 0.23150  0.29430  0.37240  Biso   1.000  F
  F41      1.0000 0.75950  0.02570  0.84230  Biso   1.000  F
  F42      1.0000 0.24050  0.02570  0.65770  Biso   1.000  F
  F43      1.0000 0.25950  0.52570  0.84230  Biso   1.000  F
  F44      1.0000 0.74050  0.52570  0.65770  Biso   1.000  F
  F45      1.0000 0.24050  0.97430  0.15770  Biso   1.000  F
  F46      1.0000 0.75950  0.97430  0.34230  Biso   1.000  F
  F47      1.0000 0.74050  0.47430  0.15770  Biso   1.000  F
  F48      1.0000 0.25950  0.47430  0.34230  Biso   1.000  F
  F49      1.0000 0.93920  0.27600  0.07030  Biso   1.000  F
  F50      1.0000 0.06080  0.27600  0.42970  Biso   1.000  F
  F51      1.0000 0.43920  0.77600  0.07030  Biso   1.000  F
  F52      1.0000 0.56080  0.77600  0.42970  Biso   1.000  F
  F53      1.0000 0.06080  0.72400  0.92970  Biso   1.000  F
  F54      1.0000 0.93920  0.72400  0.57030  Biso   1.000  F
  F55      1.0000 0.56080  0.22400  0.92970  Biso   1.000  F
  F56      1.0000 0.43920  0.22400  0.57030  Biso   1.000  F
  F57      1.0000 0.99140  0.27300  0.06680  Biso   1.000  F
  F58      1.0000 0.00860  0.27300  0.43320  Biso   1.000  F
  F59      1.0000 0.49140  0.77300  0.06680  Biso   1.000  F
  F60      1.0000 0.50860  0.77300  0.43320  Biso   1.000  F
  F61      1.0000 0.00860  0.72700  0.93320  Biso   1.000  F
  F62      1.0000 0.99140  0.72700  0.56680  Biso   1.000  F
  F63      1.0000 0.50860  0.22700  0.93320  Biso   1.000  F
  F64      1.0000 0.49140  0.22700  0.56680  Biso   1.000  F
  P9       1.0000 0.96740  0.24700  0.11490  Biso   1.000  P
  P10      1.0000 0.03260  0.24700  0.38510  Biso   1.000  P
  P11      1.0000 0.46740  0.74700  0.11490  Biso   1.000  P
  P12      1.0000 0.53260  0.74700  0.38510  Biso   1.000  P
  P13      1.0000 0.03260  0.75300  0.88510  Biso   1.000  P
  P14      1.0000 0.96740  0.75300  0.61490  Biso   1.000  P
  P15      1.0000 0.53260  0.25300  0.88510  Biso   1.000  P
  P16      1.0000 0.46740  0.25300  0.61490  Biso   1.000  P
  F65      1.0000 0.96750  0.07700  0.10110  Biso   1.000  F
  F66      1.0000 0.03250  0.07700  0.39890  Biso   1.000  F
  F67      1.0000 0.46750  0.57700  0.10110  Biso   1.000  F
  F68      1.0000 0.53250  0.57700  0.39890  Biso   1.000  F
  F69      1.0000 0.03250  0.92300  0.89890  Biso   1.000  F
  F70      1.0000 0.96750  0.92300  0.60110  Biso   1.000  F
  F71      1.0000 0.53250  0.42300  0.89890  Biso   1.000  F
  F72      1.0000 0.46750  0.42300  0.60110  Biso   1.000  F
  F73      1.0000 0.94140  0.22100  0.15920  Biso   1.000  F
  F74      1.0000 0.05860  0.22100  0.34080  Biso   1.000  F
  F75      1.0000 0.44140  0.72100  0.15920  Biso   1.000  F
  F76      1.0000 0.55860  0.72100  0.34080  Biso   1.000  F
  F77      1.0000 0.05860  0.77900  0.84080  Biso   1.000  F
  F78      1.0000 0.94140  0.77900  0.65920  Biso   1.000  F
  F79      1.0000 0.55860  0.27900  0.84080  Biso   1.000  F
  F80      1.0000 0.44140  0.27900  0.65920  Biso   1.000  F
  F81      1.0000 0.96780  0.41700  0.12950  Biso   1.000  F
  F82      1.0000 0.03220  0.41700  0.37050  Biso   1.000  F
  F83      1.0000 0.46780  0.91700  0.12950  Biso   1.000  F
  F84      1.0000 0.53220  0.91700  0.37050  Biso   1.000  F
  F85      1.0000 0.03220  0.58300  0.87050  Biso   1.000  F
  F86      1.0000 0.96780  0.58300  0.62950  Biso   1.000  F
  F87      1.0000 0.53220  0.08300  0.87050  Biso   1.000  F
  F88      1.0000 0.46780  0.08300  0.62950  Biso   1.000  F
  F89      1.0000 0.99520  0.22100  0.16060  Biso   1.000  F
  F90      1.0000 0.00480  0.22100  0.33940  Biso   1.000  F
  F91      1.0000 0.49520  0.72100  0.16060  Biso   1.000  F
  F92      1.0000 0.50480  0.72100  0.33940  Biso   1.000  F
  F93      1.0000 0.00480  0.77900  0.83940  Biso   1.000  F
  F94      1.0000 0.99520  0.77900  0.66060  Biso   1.000  F
  F95      1.0000 0.50480  0.27900  0.83940  Biso   1.000  F
  F96      1.0000 0.49520  0.27900  0.66060  Biso   1.000  F
  C121     1.0000 0.93540  0.71320  0.84720  Biso   1.000  C
  C122     1.0000 0.06460  0.71320  0.65280  Biso   1.000  C
  C123     1.0000 0.43540  0.21320  0.84720  Biso   1.000  C
  C124     1.0000 0.56460  0.21320  0.65280  Biso   1.000  C
  C125     1.0000 0.06460  0.28680  0.15280  Biso   1.000  C
  C126     1.0000 0.93540  0.28680  0.34720  Biso   1.000  C
  C127     1.0000 0.56460  0.78680  0.15280  Biso   1.000  C
  C128     1.0000 0.43540  0.78680  0.34720  Biso   1.000  C
  C129     1.0000 0.93490  0.71300  0.91020  Biso   1.000  C
  C130     1.0000 0.06510  0.71300  0.58980  Biso   1.000  C
  C131     1.0000 0.43490  0.21300  0.91020  Biso   1.000  C
  C132     1.0000 0.56510  0.21300  0.58980  Biso   1.000  C
  C133     1.0000 0.06510  0.28700  0.08980  Biso   1.000  C
  C134     1.0000 0.93490  0.28700  0.41020  Biso   1.000  C
  C135     1.0000 0.56510  0.78700  0.08980  Biso   1.000  C
  C136     1.0000 0.43490  0.78700  0.41020  Biso   1.000  C
  C137     1.0000 0.94620  0.57900  0.93270  Biso   1.000  C
  C138     1.0000 0.05380  0.57900  0.56730  Biso   1.000  C
  C139     1.0000 0.44620  0.07900  0.93270  Biso   1.000  C
  C140     1.0000 0.55380  0.07900  0.56730  Biso   1.000  C
  C141     1.0000 0.05380  0.42100  0.06730  Biso   1.000  C
  C142     1.0000 0.94620  0.42100  0.43270  Biso   1.000  C
  C143     1.0000 0.55380  0.92100  0.06730  Biso   1.000  C
  C144     1.0000 0.44620  0.92100  0.43270  Biso   1.000  C
  C145     1.0000 0.95830  0.50950  0.88840  Biso   1.000  C
  C146     1.0000 0.04170  0.50950  0.61160  Biso   1.000  C
  C147     1.0000 0.45830  0.00950  0.88840  Biso   1.000  C
  C148     1.0000 0.54170  0.00950  0.61160  Biso   1.000  C
  C149     1.0000 0.04170  0.49050  0.11160  Biso   1.000  C
  C150     1.0000 0.95830  0.49050  0.38840  Biso   1.000  C
  C151     1.0000 0.54170  0.99050  0.11160  Biso   1.000  C
  C152     1.0000 0.45830  0.99050  0.38840  Biso   1.000  C
  C153     1.0000 0.94980  0.57740  0.83920  Biso   1.000  C
  C154     1.0000 0.05020  0.57740  0.66080  Biso   1.000  C
  C155     1.0000 0.44980  0.07740  0.83920  Biso   1.000  C
  C156     1.0000 0.55020  0.07740  0.66080  Biso   1.000  C
  C157     1.0000 0.05020  0.42260  0.16080  Biso   1.000  C
  C158     1.0000 0.94980  0.42260  0.33920  Biso   1.000  C
  C159     1.0000 0.55020  0.92260  0.16080  Biso   1.000  C
  C160     1.0000 0.44980  0.92260  0.33920  Biso   1.000  C
  C161     1.0000 0.92980  0.83100  0.81320  Biso   1.000  C
  C162     1.0000 0.07020  0.83100  0.68680  Biso   1.000  C
  C163     1.0000 0.42980  0.33100  0.81320  Biso   1.000  C
  C164     1.0000 0.57020  0.33100  0.68680  Biso   1.000  C
  C165     1.0000 0.07020  0.16900  0.18680  Biso   1.000  C
  C166     1.0000 0.92980  0.16900  0.31320  Biso   1.000  C
  C167     1.0000 0.57020  0.66900  0.18680  Biso   1.000  C
  C168     1.0000 0.42980  0.66900  0.31320  Biso   1.000  C
  H153     1.0000 0.94640  0.83810  0.78630  Biso   1.000  H
  H154     1.0000 0.05360  0.83810  0.71370  Biso   1.000  H
  H155     1.0000 0.44640  0.33810  0.78630  Biso   1.000  H
  H156     1.0000 0.55360  0.33810  0.71370  Biso   1.000  H
  H157     1.0000 0.05360  0.16190  0.21370  Biso   1.000  H
  H158     1.0000 0.94640  0.16190  0.28630  Biso   1.000  H
  H159     1.0000 0.55360  0.66190  0.21370  Biso   1.000  H
  H160     1.0000 0.44640  0.66190  0.28630  Biso   1.000  H
  H161     1.0000 0.92960  0.92100  0.83590  Biso   1.000  H
  H162     1.0000 0.07040  0.92100  0.66410  Biso   1.000  H
  H163     1.0000 0.42960  0.42100  0.83590  Biso   1.000  H
  H164     1.0000 0.57040  0.42100  0.66410  Biso   1.000  H
  H165     1.0000 0.07040  0.07900  0.16410  Biso   1.000  H
  H166     1.0000 0.92960  0.07900  0.33590  Biso   1.000  H
  H167     1.0000 0.57040  0.57900  0.16410  Biso   1.000  H
  H168     1.0000 0.42960  0.57900  0.33590  Biso   1.000  H
  H169     1.0000 0.90910  0.81920  0.79270  Biso   1.000  H
  H170     1.0000 0.09090  0.81920  0.70730  Biso   1.000  H
  H171     1.0000 0.40910  0.31920  0.79270  Biso   1.000  H
  H172     1.0000 0.59090  0.31920  0.70730  Biso   1.000  H
  H173     1.0000 0.09090  0.18080  0.20730  Biso   1.000  H
  H174     1.0000 0.90910  0.18080  0.29270  Biso   1.000  H
  H175     1.0000 0.59090  0.68080  0.20730  Biso   1.000  H
  H176     1.0000 0.40910  0.68080  0.29270  Biso   1.000  H
  C169     1.0000 0.92400  0.84900  0.94750  Biso   1.000  C
  C170     1.0000 0.07600  0.84900  0.55250  Biso   1.000  C
  C171     1.0000 0.42400  0.34900  0.94750  Biso   1.000  C
  C172     1.0000 0.57600  0.34900  0.55250  Biso   1.000  C
  C173     1.0000 0.07600  0.15100  0.05250  Biso   1.000  C
  C174     1.0000 0.92400  0.15100  0.44750  Biso   1.000  C
  C175     1.0000 0.57600  0.65100  0.05250  Biso   1.000  C
  C176     1.0000 0.42400  0.65100  0.44750  Biso   1.000  C
  H177     1.0000 0.92910  0.82770  0.98730  Biso   1.000  H
  H178     1.0000 0.07090  0.82770  0.51270  Biso   1.000  H
  H179     1.0000 0.42910  0.32770  0.98730  Biso   1.000  H
  H180     1.0000 0.57090  0.32770  0.51270  Biso   1.000  H
  H181     1.0000 0.07090  0.17230  0.01270  Biso   1.000  H
  H182     1.0000 0.92910  0.17230  0.48730  Biso   1.000  H
  H183     1.0000 0.57090  0.67230  0.01270  Biso   1.000  H
  H184     1.0000 0.42910  0.67230  0.48730  Biso   1.000  H
  H185     1.0000 0.90110  0.86320  0.94130  Biso   1.000  H
  H186     1.0000 0.09890  0.86320  0.55870  Biso   1.000  H
  H187     1.0000 0.40110  0.36320  0.94130  Biso   1.000  H
  H188     1.0000 0.59890  0.36320  0.55870  Biso   1.000  H
  H189     1.0000 0.09890  0.13680  0.05870  Biso   1.000  H
  H190     1.0000 0.90110  0.13680  0.44130  Biso   1.000  H
  H191     1.0000 0.59890  0.63680  0.05870  Biso   1.000  H
  H192     1.0000 0.40110  0.63680  0.44130  Biso   1.000  H
  H193     1.0000 0.93520  0.93820  0.93660  Biso   1.000  H
  H194     1.0000 0.06480  0.93820  0.56340  Biso   1.000  H
  H195     1.0000 0.43520  0.43820  0.93660  Biso   1.000  H
  H196     1.0000 0.56480  0.43820  0.56340  Biso   1.000  H
  H197     1.0000 0.06480  0.06180  0.06340  Biso   1.000  H
  H198     1.0000 0.93520  0.06180  0.43660  Biso   1.000  H
  H199     1.0000 0.56480  0.56180  0.06340  Biso   1.000  H
  H200     1.0000 0.43520  0.56180  0.43660  Biso   1.000  H
  C177     1.0000 0.94970  0.53800  0.99850  Biso   1.000  C
  C178     1.0000 0.05030  0.53800  0.50150  Biso   1.000  C
  C179     1.0000 0.44970  0.03800  0.99850  Biso   1.000  C
  C180     1.0000 0.55030  0.03800  0.50150  Biso   1.000  C
  C181     1.0000 0.05030  0.46200  0.00150  Biso   1.000  C
  C182     1.0000 0.94970  0.46200  0.49850  Biso   1.000  C
  C183     1.0000 0.55030  0.96200  0.00150  Biso   1.000  C
  C184     1.0000 0.44970  0.96200  0.49850  Biso   1.000  C
  H201     1.0000 0.97200  0.51530  0.00910  Biso   1.000  H
  H202     1.0000 0.02800  0.51530  0.49090  Biso   1.000  H
  H203     1.0000 0.47200  0.01530  0.00910  Biso   1.000  H
  H204     1.0000 0.52800  0.01530  0.49090  Biso   1.000  H
  H205     1.0000 0.02800  0.48470  0.99090  Biso   1.000  H
  H206     1.0000 0.97200  0.48470  0.50910  Biso   1.000  H
  H207     1.0000 0.52800  0.98470  0.99090  Biso   1.000  H
  H208     1.0000 0.47200  0.98470  0.50910  Biso   1.000  H
  H209     1.0000 0.93660  0.45110  0.00560  Biso   1.000  H
  H210     1.0000 0.06340  0.45110  0.49440  Biso   1.000  H
  H211     1.0000 0.43660  0.95110  0.00560  Biso   1.000  H
  H212     1.0000 0.56340  0.95110  0.49440  Biso   1.000  H
  H213     1.0000 0.06340  0.54890  0.99440  Biso   1.000  H
  H214     1.0000 0.93660  0.54890  0.50560  Biso   1.000  H
  H215     1.0000 0.56340  0.04890  0.99440  Biso   1.000  H
  H216     1.0000 0.43660  0.04890  0.50560  Biso   1.000  H
  H217     1.0000 0.94270  0.62110  0.02070  Biso   1.000  H
  H218     1.0000 0.05730  0.62110  0.47930  Biso   1.000  H
  H219     1.0000 0.44270  0.12110  0.02070  Biso   1.000  H
  H220     1.0000 0.55730  0.12110  0.47930  Biso   1.000  H
  H221     1.0000 0.05730  0.37890  0.97930  Biso   1.000  H
  H222     1.0000 0.94270  0.37890  0.52070  Biso   1.000  H
  H223     1.0000 0.55730  0.87890  0.97930  Biso   1.000  H
  H224     1.0000 0.44270  0.87890  0.52070  Biso   1.000  H
  C185     1.0000 0.97550  0.36000  0.88870  Biso   1.000  C
  C186     1.0000 0.02450  0.36000  0.61130  Biso   1.000  C
  C187     1.0000 0.47550  0.86000  0.88870  Biso   1.000  C
  C188     1.0000 0.52450  0.86000  0.61130  Biso   1.000  C
  C189     1.0000 0.02450  0.64000  0.11130  Biso   1.000  C
  C190     1.0000 0.97550  0.64000  0.38870  Biso   1.000  C
  C191     1.0000 0.52450  0.14000  0.11130  Biso   1.000  C
  C192     1.0000 0.47550  0.14000  0.38870  Biso   1.000  C
  H225     1.0000 0.96830  0.30330  0.85520  Biso   1.000  H
  H226     1.0000 0.03170  0.30330  0.64480  Biso   1.000  H
  H227     1.0000 0.46830  0.80330  0.85520  Biso   1.000  H
  H228     1.0000 0.53170  0.80330  0.64480  Biso   1.000  H
  H229     1.0000 0.03170  0.69670  0.14480  Biso   1.000  H
  H230     1.0000 0.96830  0.69670  0.35520  Biso   1.000  H
  H231     1.0000 0.53170  0.19670  0.14480  Biso   1.000  H
  H232     1.0000 0.46830  0.19670  0.35520  Biso   1.000  H
  H233     1.0000 0.97070  0.30460  0.92250  Biso   1.000  H
  H234     1.0000 0.02930  0.30460  0.57750  Biso   1.000  H
  H235     1.0000 0.47070  0.80460  0.92250  Biso   1.000  H
  H236     1.0000 0.52930  0.80460  0.57750  Biso   1.000  H
  H237     1.0000 0.02930  0.69540  0.07750  Biso   1.000  H
  H238     1.0000 0.97070  0.69540  0.42250  Biso   1.000  H
  H239     1.0000 0.52930  0.19540  0.07750  Biso   1.000  H
  H240     1.0000 0.47070  0.19540  0.42250  Biso   1.000  H
  H241     1.0000 0.99850  0.37590  0.88840  Biso   1.000  H
  H242     1.0000 0.00150  0.37590  0.61160  Biso   1.000  H
  H243     1.0000 0.49850  0.87590  0.88840  Biso   1.000  H
  H244     1.0000 0.50150  0.87590  0.61160  Biso   1.000  H
  H245     1.0000 0.00150  0.62410  0.11160  Biso   1.000  H
  H246     1.0000 0.99850  0.62410  0.38840  Biso   1.000  H
  H247     1.0000 0.50150  0.12410  0.11160  Biso   1.000  H
  H248     1.0000 0.49850  0.12410  0.38840  Biso   1.000  H
  C193     1.0000 0.95580  0.54400  0.78360  Biso   1.000  C
  C194     1.0000 0.04420  0.54400  0.71640  Biso   1.000  C
  C195     1.0000 0.45580  0.04400  0.78360  Biso   1.000  C
  C196     1.0000 0.54420  0.04400  0.71640  Biso   1.000  C
  C197     1.0000 0.04420  0.45600  0.21640  Biso   1.000  C
  C198     1.0000 0.95580  0.45600  0.28360  Biso   1.000  C
  C199     1.0000 0.54420  0.95600  0.21640  Biso   1.000  C
  C200     1.0000 0.45580  0.95600  0.28360  Biso   1.000  C
  H249     1.0000 0.96980  0.61850  0.76890  Biso   1.000  H
  H250     1.0000 0.03020  0.61850  0.73110  Biso   1.000  H
  H251     1.0000 0.46980  0.11850  0.76890  Biso   1.000  H
  H252     1.0000 0.53020  0.11850  0.73110  Biso   1.000  H
  H253     1.0000 0.03020  0.38150  0.23110  Biso   1.000  H
  H254     1.0000 0.96980  0.38150  0.26890  Biso   1.000  H
  H255     1.0000 0.53020  0.88150  0.23110  Biso   1.000  H
  H256     1.0000 0.46980  0.88150  0.26890  Biso   1.000  H
  H257     1.0000 0.93570  0.54180  0.76080  Biso   1.000  H
  H258     1.0000 0.06430  0.54180  0.73920  Biso   1.000  H
  H259     1.0000 0.43570  0.04180  0.76080  Biso   1.000  H
  H260     1.0000 0.56430  0.04180  0.73920  Biso   1.000  H
  H261     1.0000 0.06430  0.45820  0.23920  Biso   1.000  H
  H262     1.0000 0.93570  0.45820  0.26080  Biso   1.000  H
  H263     1.0000 0.56430  0.95820  0.23920  Biso   1.000  H
  H264     1.0000 0.43570  0.95820  0.26080  Biso   1.000  H
  H265     1.0000 0.96600  0.44660  0.78220  Biso   1.000  H
  H266     1.0000 0.03400  0.44660  0.71780  Biso   1.000  H
  H267     1.0000 0.46600  0.94660  0.78220  Biso   1.000  H
  H268     1.0000 0.53400  0.94660  0.71780  Biso   1.000  H
  H269     1.0000 0.03400  0.55340  0.21780  Biso   1.000  H
  H270     1.0000 0.96600  0.55340  0.28220  Biso   1.000  H
  H271     1.0000 0.53400  0.05340  0.21780  Biso   1.000  H
  H272     1.0000 0.46600  0.05340  0.28220  Biso   1.000  H
  C201     1.0000 0.62350  0.06100  0.87080  Biso   1.000  C
  C202     1.0000 0.37650  0.06100  0.62920  Biso   1.000  C
  C203     1.0000 0.12350  0.56100  0.87080  Biso   1.000  C
  C204     1.0000 0.87650  0.56100  0.62920  Biso   1.000  C
  C205     1.0000 0.37650  0.93900  0.12920  Biso   1.000  C
  C206     1.0000 0.62350  0.93900  0.37080  Biso   1.000  C
  C207     1.0000 0.87650  0.43900  0.12920  Biso   1.000  C
  C208     1.0000 0.12350  0.43900  0.37080  Biso   1.000  C
  C209     1.0000 0.61500  0.92000  0.89100  Biso   1.000  C
  C210     1.0000 0.38500  0.92000  0.60900  Biso   1.000  C
  C211     1.0000 0.11500  0.42000  0.89100  Biso   1.000  C
  C212     1.0000 0.88500  0.42000  0.60900  Biso   1.000  C
  C213     1.0000 0.38500  0.08000  0.10900  Biso   1.000  C
  C214     1.0000 0.61500  0.08000  0.39100  Biso   1.000  C
  C215     1.0000 0.88500  0.58000  0.10900  Biso   1.000  C
  C216     1.0000 0.11500  0.58000  0.39100  Biso   1.000  C
  N9       1.0000 0.60810  0.80900  0.91120  Biso   1.000  N
  N10      1.0000 0.39190  0.80900  0.58880  Biso   1.000  N
  N11      1.0000 0.10810  0.30900  0.91120  Biso   1.000  N
  N12      1.0000 0.89190  0.30900  0.58880  Biso   1.000  N
  N13      1.0000 0.39190  0.19100  0.08880  Biso   1.000  N
  N14      1.0000 0.60810  0.19100  0.41120  Biso   1.000  N
  N15      1.0000 0.89190  0.69100  0.08880  Biso   1.000  N
  N16      1.0000 0.10810  0.69100  0.41120  Biso   1.000  N
  N17      1.0000 0.85700  0.77800  0.24150  Biso   1.000  N
  N18      1.0000 0.14300  0.77800  0.25850  Biso   1.000  N
  N19      1.0000 0.35700  0.27800  0.24150  Biso   1.000  N
  N20      1.0000 0.64300  0.27800  0.25850  Biso   1.000  N
  N21      1.0000 0.14300  0.22200  0.75850  Biso   1.000  N
  N22      1.0000 0.85700  0.22200  0.74150  Biso   1.000  N
  N23      1.0000 0.64300  0.72200  0.75850  Biso   1.000  N
  N24      1.0000 0.35700  0.72200  0.74150  Biso   1.000  N
  C217     1.0000 0.83130  0.77480  0.20420  Biso   1.000  C
  C218     1.0000 0.16870  0.77480  0.29580  Biso   1.000  C
  C219     1.0000 0.33130  0.27480  0.20420  Biso   1.000  C
  C220     1.0000 0.66870  0.27480  0.29580  Biso   1.000  C
  C221     1.0000 0.16870  0.22520  0.79580  Biso   1.000  C
  C222     1.0000 0.83130  0.22520  0.70420  Biso   1.000  C
  C223     1.0000 0.66870  0.72520  0.79580  Biso   1.000  C
  C224     1.0000 0.33130  0.72520  0.70420  Biso   1.000  C
  H273     1.0000 0.81390  0.71270  0.21140  Biso   1.000  H
  H274     1.0000 0.18610  0.71270  0.28860  Biso   1.000  H
  H275     1.0000 0.31390  0.21270  0.21140  Biso   1.000  H
  H276     1.0000 0.68610  0.21270  0.28860  Biso   1.000  H
  H277     1.0000 0.18610  0.28730  0.78860  Biso   1.000  H
  H278     1.0000 0.81390  0.28730  0.71140  Biso   1.000  H
  H279     1.0000 0.68610  0.78730  0.78860  Biso   1.000  H
  H280     1.0000 0.31390  0.78730  0.71140  Biso   1.000  H
  C225     1.0000 0.83010  0.85740  0.15760  Biso   1.000  C
  C226     1.0000 0.16990  0.85740  0.34240  Biso   1.000  C
  C227     1.0000 0.33010  0.35740  0.15760  Biso   1.000  C
  C228     1.0000 0.66990  0.35740  0.34240  Biso   1.000  C
  C229     1.0000 0.16990  0.14260  0.84240  Biso   1.000  C
  C230     1.0000 0.83010  0.14260  0.65760  Biso   1.000  C
  C231     1.0000 0.66990  0.64260  0.84240  Biso   1.000  C
  C232     1.0000 0.33010  0.64260  0.65760  Biso   1.000  C
  H281     1.0000 0.81220  0.84990  0.13160  Biso   1.000  H
  H282     1.0000 0.18780  0.84990  0.36840  Biso   1.000  H
  H283     1.0000 0.31220  0.34990  0.13160  Biso   1.000  H
  H284     1.0000 0.68780  0.34990  0.36840  Biso   1.000  H
  H285     1.0000 0.18780  0.15010  0.86840  Biso   1.000  H
  H286     1.0000 0.81220  0.15010  0.63160  Biso   1.000  H
  H287     1.0000 0.68780  0.65010  0.86840  Biso   1.000  H
  H288     1.0000 0.31220  0.65010  0.63160  Biso   1.000  H
  C233     1.0000 0.85510  0.95580  0.14630  Biso   1.000  C
  C234     1.0000 0.14490  0.95580  0.35370  Biso   1.000  C
  C235     1.0000 0.35510  0.45580  0.14630  Biso   1.000  C
  C236     1.0000 0.64490  0.45580  0.35370  Biso   1.000  C
  C237     1.0000 0.14490  0.04420  0.85370  Biso   1.000  C
  C238     1.0000 0.85510  0.04420  0.64630  Biso   1.000  C
  C239     1.0000 0.64490  0.54420  0.85370  Biso   1.000  C
  C240     1.0000 0.35510  0.54420  0.64630  Biso   1.000  C
  C241     1.0000 0.88000  0.95040  0.18390  Biso   1.000  C
  C242     1.0000 0.12000  0.95040  0.31610  Biso   1.000  C
  C243     1.0000 0.38000  0.45040  0.18390  Biso   1.000  C
  C244     1.0000 0.62000  0.45040  0.31610  Biso   1.000  C
  C245     1.0000 0.12000  0.04960  0.81610  Biso   1.000  C
  C246     1.0000 0.88000  0.04960  0.68390  Biso   1.000  C
  C247     1.0000 0.62000  0.54960  0.81610  Biso   1.000  C
  C248     1.0000 0.38000  0.54960  0.68390  Biso   1.000  C
  H289     1.0000 0.89820  0.00780  0.17690  Biso   1.000  H
  H290     1.0000 0.10180  0.00780  0.32310  Biso   1.000  H
  H291     1.0000 0.39820  0.50780  0.17690  Biso   1.000  H
  H292     1.0000 0.60180  0.50780  0.32310  Biso   1.000  H
  H293     1.0000 0.10180  0.99220  0.82310  Biso   1.000  H
  H294     1.0000 0.89820  0.99220  0.67690  Biso   1.000  H
  H295     1.0000 0.60180  0.49220  0.82310  Biso   1.000  H
  H296     1.0000 0.39820  0.49220  0.67690  Biso   1.000  H
  C249     1.0000 0.88060  0.86570  0.23220  Biso   1.000  C
  C250     1.0000 0.11940  0.86570  0.26780  Biso   1.000  C
  C251     1.0000 0.38060  0.36570  0.23220  Biso   1.000  C
  C252     1.0000 0.61940  0.36570  0.26780  Biso   1.000  C
  C253     1.0000 0.11940  0.13430  0.76780  Biso   1.000  C
  C254     1.0000 0.88060  0.13430  0.73220  Biso   1.000  C
  C255     1.0000 0.61940  0.63430  0.76780  Biso   1.000  C
  C256     1.0000 0.38060  0.63430  0.73220  Biso   1.000  C
  H297     1.0000 0.89830  0.87150  0.25870  Biso   1.000  H
  H298     1.0000 0.10170  0.87150  0.24130  Biso   1.000  H
  H299     1.0000 0.39830  0.37150  0.25870  Biso   1.000  H
  H300     1.0000 0.60170  0.37150  0.24130  Biso   1.000  H
  H301     1.0000 0.10170  0.12850  0.74130  Biso   1.000  H
  H302     1.0000 0.89830  0.12850  0.75870  Biso   1.000  H
  H303     1.0000 0.60170  0.62850  0.74130  Biso   1.000  H
  H304     1.0000 0.39830  0.62850  0.75870  Biso   1.000  H
  C257     1.0000 0.94350  0.62600  0.82600  Biso   1.000  C
  C258     1.0000 0.05650  0.62600  0.67400  Biso   1.000  C
  C259     1.0000 0.44350  0.12600  0.82600  Biso   1.000  C
  C260     1.0000 0.55650  0.12600  0.67400  Biso   1.000  C
  C261     1.0000 0.05650  0.37400  0.17400  Biso   1.000  C
  C262     1.0000 0.94350  0.37400  0.32600  Biso   1.000  C
  C263     1.0000 0.55650  0.87400  0.17400  Biso   1.000  C
  C264     1.0000 0.44350  0.87400  0.32600  Biso   1.000  C
  C265     1.0000 0.94150  0.70200  0.87100  Biso   1.000  C
  C266     1.0000 0.05850  0.70200  0.62900  Biso   1.000  C
  C267     1.0000 0.44150  0.20200  0.87100  Biso   1.000  C
  C268     1.0000 0.55850  0.20200  0.62900  Biso   1.000  C
  C269     1.0000 0.05850  0.29800  0.12900  Biso   1.000  C
  C270     1.0000 0.94150  0.29800  0.37100  Biso   1.000  C
  C271     1.0000 0.55850  0.79800  0.12900  Biso   1.000  C
  C272     1.0000 0.44150  0.79800  0.37100  Biso   1.000  C
  C273     1.0000 0.94820  0.60700  0.92300  Biso   1.000  C
  C274     1.0000 0.05180  0.60700  0.57700  Biso   1.000  C
  C275     1.0000 0.44820  0.10700  0.92300  Biso   1.000  C
  C276     1.0000 0.55180  0.10700  0.57700  Biso   1.000  C
  C277     1.0000 0.05180  0.39300  0.07700  Biso   1.000  C
  C278     1.0000 0.94820  0.39300  0.42300  Biso   1.000  C
  C279     1.0000 0.55180  0.89300  0.07700  Biso   1.000  C
  C280     1.0000 0.44820  0.89300  0.42300  Biso   1.000  C
  C281     1.0000 0.95790  0.48300  0.89700  Biso   1.000  C
  C282     1.0000 0.04210  0.48300  0.60300  Biso   1.000  C
  C283     1.0000 0.45790  0.98300  0.89700  Biso   1.000  C
  C284     1.0000 0.54210  0.98300  0.60300  Biso   1.000  C
  C285     1.0000 0.04210  0.51700  0.10300  Biso   1.000  C
  C286     1.0000 0.95790  0.51700  0.39700  Biso   1.000  C
  C287     1.0000 0.54210  0.01700  0.10300  Biso   1.000  C
  C288     1.0000 0.45790  0.01700  0.39700  Biso   1.000  C
  C289     1.0000 0.95270  0.50200  0.84400  Biso   1.000  C
  C290     1.0000 0.04730  0.50200  0.65600  Biso   1.000  C
  C291     1.0000 0.45270  0.00200  0.84400  Biso   1.000  C
  C292     1.0000 0.54730  0.00200  0.65600  Biso   1.000  C
  C293     1.0000 0.04730  0.49800  0.15600  Biso   1.000  C
  C294     1.0000 0.95270  0.49800  0.34400  Biso   1.000  C
  C295     1.0000 0.54730  0.99800  0.15600  Biso   1.000  C
  C296     1.0000 0.45270  0.99800  0.34400  Biso   1.000  C
  C297     1.0000 0.93560  0.70300  0.77700  Biso   1.000  C
  C298     1.0000 0.06440  0.70300  0.72300  Biso   1.000  C
  C299     1.0000 0.43560  0.20300  0.77700  Biso   1.000  C
  C300     1.0000 0.56440  0.20300  0.72300  Biso   1.000  C
  C301     1.0000 0.06440  0.29700  0.22300  Biso   1.000  C
  C302     1.0000 0.93560  0.29700  0.27700  Biso   1.000  C
  C303     1.0000 0.56440  0.79700  0.22300  Biso   1.000  C
  C304     1.0000 0.43560  0.79700  0.27700  Biso   1.000  C
  C305     1.0000 0.92910  0.85300  0.88600  Biso   1.000  C
  C306     1.0000 0.07090  0.85300  0.61400  Biso   1.000  C
  C307     1.0000 0.42910  0.35300  0.88600  Biso   1.000  C
  C308     1.0000 0.57090  0.35300  0.61400  Biso   1.000  C
  C309     1.0000 0.07090  0.14700  0.11400  Biso   1.000  C
  C310     1.0000 0.92910  0.14700  0.38600  Biso   1.000  C
  C311     1.0000 0.57090  0.64700  0.11400  Biso   1.000  C
  C312     1.0000 0.42910  0.64700  0.38600  Biso   1.000  C
  C313     1.0000 0.94840  0.64000  0.98010  Biso   1.000  C
  C314     1.0000 0.05160  0.64000  0.51990  Biso   1.000  C
  C315     1.0000 0.44840  0.14000  0.98010  Biso   1.000  C
  C316     1.0000 0.55160  0.14000  0.51990  Biso   1.000  C
  C317     1.0000 0.05160  0.36000  0.01990  Biso   1.000  C
  C318     1.0000 0.94840  0.36000  0.48010  Biso   1.000  C
  C319     1.0000 0.55160  0.86000  0.01990  Biso   1.000  C
  C320     1.0000 0.44840  0.86000  0.48010  Biso   1.000  C
  C321     1.0000 0.97090  0.35800  0.92750  Biso   1.000  C
  C322     1.0000 0.02910  0.35800  0.57250  Biso   1.000  C
  C323     1.0000 0.47090  0.85800  0.92750  Biso   1.000  C
  C324     1.0000 0.52910  0.85800  0.57250  Biso   1.000  C
  C325     1.0000 0.02910  0.64200  0.07250  Biso   1.000  C
  C326     1.0000 0.97090  0.64200  0.42750  Biso   1.000  C
  C327     1.0000 0.52910  0.14200  0.07250  Biso   1.000  C
  C328     1.0000 0.47090  0.14200  0.42750  Biso   1.000  C
  C329     1.0000 0.96550  0.39500  0.80080  Biso   1.000  C
  C330     1.0000 0.03450  0.39500  0.69920  Biso   1.000  C
  C331     1.0000 0.46550  0.89500  0.80080  Biso   1.000  C
  C332     1.0000 0.53450  0.89500  0.69920  Biso   1.000  C
  C333     1.0000 0.03450  0.60500  0.19920  Biso   1.000  C
  C334     1.0000 0.96550  0.60500  0.30080  Biso   1.000  C
  C335     1.0000 0.53450  0.10500  0.19920  Biso   1.000  C
  C336     1.0000 0.46550  0.10500  0.30080  Biso   1.000  C
  C337     1.0000 0.59820  0.95800  0.87600  Biso   1.000  C
  C338     1.0000 0.40180  0.95800  0.62400  Biso   1.000  C
  C339     1.0000 0.09820  0.45800  0.87600  Biso   1.000  C
  C340     1.0000 0.90180  0.45800  0.62400  Biso   1.000  C
  C341     1.0000 0.40180  0.04200  0.12400  Biso   1.000  C
  C342     1.0000 0.59820  0.04200  0.37600  Biso   1.000  C
  C343     1.0000 0.90180  0.54200  0.12400  Biso   1.000  C
  C344     1.0000 0.09820  0.54200  0.37600  Biso   1.000  C
  F97      1.0000 0.94300  0.10100  0.13760  Biso   1.000  F
  F98      1.0000 0.05700  0.10100  0.36240  Biso   1.000  F
  F99      1.0000 0.44300  0.60100  0.13760  Biso   1.000  F
  F100     1.0000 0.55700  0.60100  0.36240  Biso   1.000  F
  F101     1.0000 0.05700  0.89900  0.86240  Biso   1.000  F
  F102     1.0000 0.94300  0.89900  0.63760  Biso   1.000  F
  F103     1.0000 0.55700  0.39900  0.86240  Biso   1.000  F
  F104     1.0000 0.44300  0.39900  0.63760  Biso   1.000  F
  F105     1.0000 0.97130  0.30700  0.14870  Biso   1.000  F
  F106     1.0000 0.02870  0.30700  0.35130  Biso   1.000  F
  F107     1.0000 0.47130  0.80700  0.14870  Biso   1.000  F
  F108     1.0000 0.52870  0.80700  0.35130  Biso   1.000  F
  F109     1.0000 0.02870  0.69300  0.85130  Biso   1.000  F
  F110     1.0000 0.97130  0.69300  0.64870  Biso   1.000  F
  F111     1.0000 0.52870  0.19300  0.85130  Biso   1.000  F
  F112     1.0000 0.47130  0.19300  0.64870  Biso   1.000  F
  F113     1.0000 0.99560  0.09100  0.12920  Biso   1.000  F
  F114     1.0000 0.00440  0.09100  0.37080  Biso   1.000  F
  F115     1.0000 0.49560  0.59100  0.12920  Biso   1.000  F
  F116     1.0000 0.50440  0.59100  0.37080  Biso   1.000  F
  F117     1.0000 0.00440  0.90900  0.87080  Biso   1.000  F
  F118     1.0000 0.99560  0.90900  0.62920  Biso   1.000  F
  F119     1.0000 0.50440  0.40900  0.87080  Biso   1.000  F
  F120     1.0000 0.49560  0.40900  0.62920  Biso   1.000  F
  F121     1.0000 0.96250  0.06700  0.05260  Biso   1.000  F
  F122     1.0000 0.03750  0.06700  0.44740  Biso   1.000  F
  F123     1.0000 0.46250  0.56700  0.05260  Biso   1.000  F
  F124     1.0000 0.53750  0.56700  0.44740  Biso   1.000  F
  F125     1.0000 0.03750  0.93300  0.94740  Biso   1.000  F
  F126     1.0000 0.96250  0.93300  0.55260  Biso   1.000  F
  F127     1.0000 0.53750  0.43300  0.94740  Biso   1.000  F
  F128     1.0000 0.46250  0.43300  0.55260  Biso   1.000  F
  H305     1.0000 0.92940  0.80380  0.78610  Biso   1.000  H
  H306     1.0000 0.07060  0.80380  0.71390  Biso   1.000  H
  H307     1.0000 0.42940  0.30380  0.78610  Biso   1.000  H
  H308     1.0000 0.57060  0.30380  0.71390  Biso   1.000  H
  H309     1.0000 0.07060  0.19620  0.21390  Biso   1.000  H
  H310     1.0000 0.92940  0.19620  0.28610  Biso   1.000  H
  H311     1.0000 0.57060  0.69620  0.21390  Biso   1.000  H
  H312     1.0000 0.42940  0.69620  0.28610  Biso   1.000  H
  H313     1.0000 0.91780  0.65390  0.75600  Biso   1.000  H
  H314     1.0000 0.08220  0.65390  0.74400  Biso   1.000  H
  H315     1.0000 0.41780  0.15390  0.75600  Biso   1.000  H
  H316     1.0000 0.58220  0.15390  0.74400  Biso   1.000  H
  H317     1.0000 0.08220  0.34610  0.24400  Biso   1.000  H
  H318     1.0000 0.91780  0.34610  0.25600  Biso   1.000  H
  H319     1.0000 0.58220  0.84610  0.24400  Biso   1.000  H
  H320     1.0000 0.41780  0.84610  0.25600  Biso   1.000  H
  H321     1.0000 0.95390  0.70590  0.75330  Biso   1.000  H
  H322     1.0000 0.04610  0.70590  0.74670  Biso   1.000  H
  H323     1.0000 0.45390  0.20590  0.75330  Biso   1.000  H
  H324     1.0000 0.54610  0.20590  0.74670  Biso   1.000  H
  H325     1.0000 0.04610  0.29410  0.24670  Biso   1.000  H
  H326     1.0000 0.95390  0.29410  0.25330  Biso   1.000  H
  H327     1.0000 0.54610  0.79410  0.24670  Biso   1.000  H
  H328     1.0000 0.45390  0.79410  0.25330  Biso   1.000  H
  H329     1.0000 0.91610  0.89230  0.85410  Biso   1.000  H
  H330     1.0000 0.08390  0.89230  0.64590  Biso   1.000  H
  H331     1.0000 0.41610  0.39230  0.85410  Biso   1.000  H
  H332     1.0000 0.58390  0.39230  0.64590  Biso   1.000  H
  H333     1.0000 0.08390  0.10770  0.14590  Biso   1.000  H
  H334     1.0000 0.91610  0.10770  0.35410  Biso   1.000  H
  H335     1.0000 0.58390  0.60770  0.14590  Biso   1.000  H
  H336     1.0000 0.41610  0.60770  0.35410  Biso   1.000  H
  H337     1.0000 0.94700  0.91940  0.89470  Biso   1.000  H
  H338     1.0000 0.05300  0.91940  0.60530  Biso   1.000  H
  H339     1.0000 0.44700  0.41940  0.89470  Biso   1.000  H
  H340     1.0000 0.55300  0.41940  0.60530  Biso   1.000  H
  H341     1.0000 0.05300  0.08060  0.10530  Biso   1.000  H
  H342     1.0000 0.94700  0.08060  0.39470  Biso   1.000  H
  H343     1.0000 0.55300  0.58060  0.10530  Biso   1.000  H
  H344     1.0000 0.44700  0.58060  0.39470  Biso   1.000  H
  H345     1.0000 0.91630  0.84440  0.91880  Biso   1.000  H
  H346     1.0000 0.08370  0.84440  0.58120  Biso   1.000  H
  H347     1.0000 0.41630  0.34440  0.91880  Biso   1.000  H
  H348     1.0000 0.58370  0.34440  0.58120  Biso   1.000  H
  H349     1.0000 0.08370  0.15560  0.08120  Biso   1.000  H
  H350     1.0000 0.91630  0.15560  0.41880  Biso   1.000  H
  H351     1.0000 0.58370  0.65560  0.08120  Biso   1.000  H
  H352     1.0000 0.41630  0.65560  0.41880  Biso   1.000  H
  H353     1.0000 0.93120  0.58740  0.99710  Biso   1.000  H
  H354     1.0000 0.06880  0.58740  0.50290  Biso   1.000  H
  H355     1.0000 0.43120  0.08740  0.99710  Biso   1.000  H
  H356     1.0000 0.56880  0.08740  0.50290  Biso   1.000  H
  H357     1.0000 0.06880  0.41260  0.00290  Biso   1.000  H
  H358     1.0000 0.93120  0.41260  0.49710  Biso   1.000  H
  H359     1.0000 0.56880  0.91260  0.00290  Biso   1.000  H
  H360     1.0000 0.43120  0.91260  0.49710  Biso   1.000  H
  H361     1.0000 0.94550  0.74690  0.98490  Biso   1.000  H
  H362     1.0000 0.05450  0.74690  0.51510  Biso   1.000  H
  H363     1.0000 0.44550  0.24690  0.98490  Biso   1.000  H
  H364     1.0000 0.55450  0.24690  0.51510  Biso   1.000  H
  H365     1.0000 0.05450  0.25310  0.01510  Biso   1.000  H
  H366     1.0000 0.94550  0.25310  0.48490  Biso   1.000  H
  H367     1.0000 0.55450  0.75310  0.01510  Biso   1.000  H
  H368     1.0000 0.44550  0.75310  0.48490  Biso   1.000  H
  H369     1.0000 0.96880  0.61070  0.99840  Biso   1.000  H
  H370     1.0000 0.03120  0.61070  0.50160  Biso   1.000  H
  H371     1.0000 0.46880  0.11070  0.99840  Biso   1.000  H
  H372     1.0000 0.53120  0.11070  0.50160  Biso   1.000  H
  H373     1.0000 0.03120  0.38930  0.00160  Biso   1.000  H
  H374     1.0000 0.96880  0.38930  0.49840  Biso   1.000  H
  H375     1.0000 0.53120  0.88930  0.00160  Biso   1.000  H
  H376     1.0000 0.46880  0.88930  0.49840  Biso   1.000  H
  H377     1.0000 0.96480  0.26680  0.90740  Biso   1.000  H
  H378     1.0000 0.03520  0.26680  0.59260  Biso   1.000  H
  H379     1.0000 0.46480  0.76680  0.90740  Biso   1.000  H
  H380     1.0000 0.53520  0.76680  0.59260  Biso   1.000  H
  H381     1.0000 0.03520  0.73320  0.09260  Biso   1.000  H
  H382     1.0000 0.96480  0.73320  0.40740  Biso   1.000  H
  H383     1.0000 0.53520  0.23320  0.09260  Biso   1.000  H
  H384     1.0000 0.46480  0.23320  0.40740  Biso   1.000  H
  H385     1.0000 0.96280  0.35560  0.96520  Biso   1.000  H
  H386     1.0000 0.03720  0.35560  0.53480  Biso   1.000  H
  H387     1.0000 0.46280  0.85560  0.96520  Biso   1.000  H
  H388     1.0000 0.53720  0.85560  0.53480  Biso   1.000  H
  H389     1.0000 0.03720  0.64440  0.03480  Biso   1.000  H
  H390     1.0000 0.96280  0.64440  0.46520  Biso   1.000  H
  H391     1.0000 0.53720  0.14440  0.03480  Biso   1.000  H
  H392     1.0000 0.46280  0.14440  0.46520  Biso   1.000  H
  H393     1.0000 0.99420  0.36540  0.93050  Biso   1.000  H
  H394     1.0000 0.00580  0.36540  0.56950  Biso   1.000  H
  H395     1.0000 0.49420  0.86540  0.93050  Biso   1.000  H
  H396     1.0000 0.50580  0.86540  0.56950  Biso   1.000  H
  H397     1.0000 0.00580  0.63460  0.06950  Biso   1.000  H
  H398     1.0000 0.99420  0.63460  0.43050  Biso   1.000  H
  H399     1.0000 0.50580  0.13460  0.06950  Biso   1.000  H
  H400     1.0000 0.49420  0.13460  0.43050  Biso   1.000  H
  H401     1.0000 0.97310  0.30530  0.82010  Biso   1.000  H
  H402     1.0000 0.02690  0.30530  0.67990  Biso   1.000  H
  H403     1.0000 0.47310  0.80530  0.82010  Biso   1.000  H
  H404     1.0000 0.52690  0.80530  0.67990  Biso   1.000  H
  H405     1.0000 0.02690  0.69470  0.17990  Biso   1.000  H
  H406     1.0000 0.97310  0.69470  0.32010  Biso   1.000  H
  H407     1.0000 0.52690  0.19470  0.17990  Biso   1.000  H
  H408     1.0000 0.47310  0.19470  0.32010  Biso   1.000  H
  H409     1.0000 0.98310  0.44160  0.78220  Biso   1.000  H
  H410     1.0000 0.01690  0.44160  0.71780  Biso   1.000  H
  H411     1.0000 0.48310  0.94160  0.78220  Biso   1.000  H
  H412     1.0000 0.51690  0.94160  0.71780  Biso   1.000  H
  H413     1.0000 0.01690  0.55840  0.21780  Biso   1.000  H
  H414     1.0000 0.98310  0.55840  0.28220  Biso   1.000  H
  H415     1.0000 0.51690  0.05840  0.21780  Biso   1.000  H
  H416     1.0000 0.48310  0.05840  0.28220  Biso   1.000  H
  H417     1.0000 0.94850  0.37000  0.77270  Biso   1.000  H
  H418     1.0000 0.05150  0.37000  0.72730  Biso   1.000  H
  H419     1.0000 0.44850  0.87000  0.77270  Biso   1.000  H
  H420     1.0000 0.55150  0.87000  0.72730  Biso   1.000  H
  H421     1.0000 0.05150  0.63000  0.22730  Biso   1.000  H
  H422     1.0000 0.94850  0.63000  0.27270  Biso   1.000  H
  H423     1.0000 0.55150  0.13000  0.22730  Biso   1.000  H
  H424     1.0000 0.44850  0.13000  0.27270  Biso   1.000  H
  N25      1.0000 0.57530  0.88800  0.87800  Biso   1.000  N
  N26      1.0000 0.42470  0.88800  0.62200  Biso   1.000  N
  N27      1.0000 0.07530  0.38800  0.87800  Biso   1.000  N
  N28      1.0000 0.92470  0.38800  0.62200  Biso   1.000  N
  N29      1.0000 0.42470  0.11200  0.12200  Biso   1.000  N
  N30      1.0000 0.57530  0.11200  0.37800  Biso   1.000  N
  N31      1.0000 0.92470  0.61200  0.12200  Biso   1.000  N
  N32      1.0000 0.07530  0.61200  0.37800  Biso   1.000  N
  P17      1.0000 0.96730  0.18500  0.10150  Biso   1.000  P
  P18      1.0000 0.03270  0.18500  0.39850  Biso   1.000  P
  P19      1.0000 0.46730  0.68500  0.10150  Biso   1.000  P
  P20      1.0000 0.53270  0.68500  0.39850  Biso   1.000  P
  P21      1.0000 0.03270  0.81500  0.89850  Biso   1.000  P
  P22      1.0000 0.96730  0.81500  0.60150  Biso   1.000  P
  P23      1.0000 0.53270  0.31500  0.89850  Biso   1.000  P
  P24      1.0000 0.46730  0.31500  0.60150  Biso   1.000  P
