data_image0
_cell_length_a       23.241
_cell_length_b       18.081
_cell_length_c       34.189
_cell_angle_alpha    90
_cell_angle_beta     102.706
_cell_angle_gamma    90

_symmetry_space_group_name_H-M    "P 1"
_symmetry_int_tables_number       1

loop_
  _symmetry_equiv_pos_as_xyz
  'x, y, z'

loop_
  _atom_site_label
  _atom_site_occupancy
  _atom_site_fract_x
  _atom_site_fract_y
  _atom_site_fract_z
  _atom_site_thermal_displace_type
  _atom_site_B_iso_or_equiv
  _atom_site_type_symbol
  Cu1      1.0000 0.57739  0.10307  0.35071  Biso   1.000  Cu
  Cu2      1.0000 0.07739  0.39693  0.85071  Biso   1.000  Cu
  Cu3      1.0000 0.42261  0.89693  0.64929  Biso   1.000  Cu
  Cu4      1.0000 0.92261  0.60307  0.14929  Biso   1.000  Cu
  Cu5      1.0000 0.92511  0.87215  0.63648  Biso   1.000  Cu
  Cu6      1.0000 0.42511  0.62785  0.13648  Biso   1.000  Cu
  Cu7      1.0000 0.07489  0.12785  0.36352  Biso   1.000  Cu
  Cu8      1.0000 0.57489  0.37215  0.86352  Biso   1.000  Cu
  Cu9      1.0000 0.56891  0.62209  0.36194  Biso   1.000  Cu
  Cu10     1.0000 0.06891  0.87791  0.86194  Biso   1.000  Cu
  Cu11     1.0000 0.43109  0.37791  0.63806  Biso   1.000  Cu
  Cu12     1.0000 0.93109  0.12209  0.13806  Biso   1.000  Cu
  Cu13     1.0000 0.91334  0.35653  0.64126  Biso   1.000  Cu
  Cu14     1.0000 0.41334  0.14347  0.14126  Biso   1.000  Cu
  Cu15     1.0000 0.08666  0.64347  0.35874  Biso   1.000  Cu
  Cu16     1.0000 0.58666  0.85653  0.85874  Biso   1.000  Cu
  S1       1.0000 0.64374  0.19701  0.37403  Biso   1.000  S
  S2       1.0000 0.14374  0.30299  0.87403  Biso   1.000  S
  S3       1.0000 0.35626  0.80299  0.62597  Biso   1.000  S
  S4       1.0000 0.85626  0.69701  0.12597  Biso   1.000  S
  S5       1.0000 0.60640  0.01077  0.31385  Biso   1.000  S
  S6       1.0000 0.10640  0.48923  0.81385  Biso   1.000  S
  S7       1.0000 0.39360  0.98923  0.68615  Biso   1.000  S
  S8       1.0000 0.89360  0.51077  0.18615  Biso   1.000  S
  S9       1.0000 0.86052  0.96553  0.60830  Biso   1.000  S
  S10      1.0000 0.36052  0.53447  0.10830  Biso   1.000  S
  S11      1.0000 0.13948  0.03447  0.39170  Biso   1.000  S
  S12      1.0000 0.63948  0.46553  0.89170  Biso   1.000  S
  S13      1.0000 0.89076  0.79273  0.67778  Biso   1.000  S
  S14      1.0000 0.39076  0.70727  0.17778  Biso   1.000  S
  S15      1.0000 0.10924  0.20727  0.32222  Biso   1.000  S
  S16      1.0000 0.60924  0.29273  0.82222  Biso   1.000  S
  S17      1.0000 0.63627  0.71486  0.38790  Biso   1.000  S
  S18      1.0000 0.13627  0.78514  0.88790  Biso   1.000  S
  S19      1.0000 0.36373  0.28514  0.61210  Biso   1.000  S
  S20      1.0000 0.86373  0.21486  0.11210  Biso   1.000  S
  S21      1.0000 0.60193  0.54387  0.31924  Biso   1.000  S
  S22      1.0000 0.10193  0.95613  0.81924  Biso   1.000  S
  S23      1.0000 0.39807  0.45613  0.68076  Biso   1.000  S
  S24      1.0000 0.89807  0.04387  0.18076  Biso   1.000  S
  S25      1.0000 0.84688  0.44919  0.61445  Biso   1.000  S
  S26      1.0000 0.34688  0.05081  0.11445  Biso   1.000  S
  S27      1.0000 0.15312  0.55081  0.38555  Biso   1.000  S
  S28      1.0000 0.65312  0.94919  0.88555  Biso   1.000  S
  S29      1.0000 0.87577  0.26306  0.67366  Biso   1.000  S
  S30      1.0000 0.37577  0.23694  0.17366  Biso   1.000  S
  S31      1.0000 0.12423  0.73694  0.32634  Biso   1.000  S
  S32      1.0000 0.62423  0.76306  0.82634  Biso   1.000  S
  P1       1.0000 0.46978  0.09516  0.88581  Biso   1.000  P
  P2       1.0000 0.96978  0.40484  0.38581  Biso   1.000  P
  P3       1.0000 0.53022  0.90484  0.11419  Biso   1.000  P
  P4       1.0000 0.03022  0.59516  0.61419  Biso   1.000  P
  F1       1.0000 0.46915  0.02548  0.91480  Biso   1.000  F
  F2       1.0000 0.96915  0.47452  0.41480  Biso   1.000  F
  F3       1.0000 0.53085  0.97452  0.08520  Biso   1.000  F
  F4       1.0000 0.03085  0.52548  0.58520  Biso   1.000  F
  F5       1.0000 0.47091  0.16450  0.85692  Biso   1.000  F
  F6       1.0000 0.97091  0.33550  0.35692  Biso   1.000  F
  F7       1.0000 0.52909  0.83550  0.14308  Biso   1.000  F
  F8       1.0000 0.02909  0.66450  0.64308  Biso   1.000  F
  F9       1.0000 0.52207  0.05741  0.86964  Biso   1.000  F
  F10      1.0000 0.02207  0.44259  0.36964  Biso   1.000  F
  F11      1.0000 0.47793  0.94259  0.13036  Biso   1.000  F
  F12      1.0000 0.97793  0.55741  0.63036  Biso   1.000  F
  F13      1.0000 0.41740  0.13200  0.90207  Biso   1.000  F
  F14      1.0000 0.91740  0.36800  0.40207  Biso   1.000  F
  F15      1.0000 0.58260  0.86800  0.09793  Biso   1.000  F
  F16      1.0000 0.08260  0.63200  0.59793  Biso   1.000  F
  F17      1.0000 0.51697  0.13487  0.92062  Biso   1.000  F
  F18      1.0000 0.01697  0.36513  0.42062  Biso   1.000  F
  F19      1.0000 0.48303  0.86513  0.07938  Biso   1.000  F
  F20      1.0000 0.98303  0.63487  0.57938  Biso   1.000  F
  F21      1.0000 0.42223  0.05547  0.85106  Biso   1.000  F
  F22      1.0000 0.92223  0.44453  0.35106  Biso   1.000  F
  F23      1.0000 0.57777  0.94453  0.14894  Biso   1.000  F
  F24      1.0000 0.07777  0.55547  0.64894  Biso   1.000  F
  P5       1.0000 0.53996  0.15054  0.61231  Biso   1.000  P
  P6       1.0000 0.03996  0.34946  0.11231  Biso   1.000  P
  P7       1.0000 0.46004  0.84946  0.38769  Biso   1.000  P
  P8       1.0000 0.96004  0.65054  0.88769  Biso   1.000  P
  F25      1.0000 0.52973  0.08785  0.64323  Biso   1.000  F
  F26      1.0000 0.02973  0.41215  0.14323  Biso   1.000  F
  F27      1.0000 0.47027  0.91215  0.35677  Biso   1.000  F
  F28      1.0000 0.97027  0.58785  0.85677  Biso   1.000  F
  F29      1.0000 0.55005  0.21308  0.58141  Biso   1.000  F
  F30      1.0000 0.05005  0.28692  0.08141  Biso   1.000  F
  F31      1.0000 0.44995  0.78692  0.41859  Biso   1.000  F
  F32      1.0000 0.94995  0.71308  0.91859  Biso   1.000  F
  F33      1.0000 0.58426  0.09610  0.59642  Biso   1.000  F
  F34      1.0000 0.08426  0.40390  0.09642  Biso   1.000  F
  F35      1.0000 0.41574  0.90390  0.40358  Biso   1.000  F
  F36      1.0000 0.91574  0.59610  0.90358  Biso   1.000  F
  F37      1.0000 0.49504  0.20377  0.62801  Biso   1.000  F
  F38      1.0000 0.99504  0.29623  0.12801  Biso   1.000  F
  F39      1.0000 0.50496  0.79623  0.37199  Biso   1.000  F
  F40      1.0000 0.00496  0.70377  0.87199  Biso   1.000  F
  F41      1.0000 0.59382  0.18319  0.64507  Biso   1.000  F
  F42      1.0000 0.09382  0.31681  0.14507  Biso   1.000  F
  F43      1.0000 0.40618  0.81681  0.35493  Biso   1.000  F
  F44      1.0000 0.90618  0.68319  0.85493  Biso   1.000  F
  F45      1.0000 0.48628  0.11769  0.57903  Biso   1.000  F
  F46      1.0000 0.98628  0.38231  0.07903  Biso   1.000  F
  F47      1.0000 0.51372  0.88231  0.42097  Biso   1.000  F
  F48      1.0000 0.01372  0.61769  0.92097  Biso   1.000  F
  P9       1.0000 0.04198  0.10761  0.62338  Biso   1.000  P
  P10      1.0000 0.54198  0.39239  0.12338  Biso   1.000  P
  P11      1.0000 0.95802  0.89239  0.37662  Biso   1.000  P
  P12      1.0000 0.45802  0.60761  0.87662  Biso   1.000  P
  F49      1.0000 0.99050  0.05840  0.63374  Biso   1.000  F
  F50      1.0000 0.49050  0.44160  0.13374  Biso   1.000  F
  F51      1.0000 0.00950  0.94160  0.36626  Biso   1.000  F
  F52      1.0000 0.50950  0.55840  0.86626  Biso   1.000  F
  F53      1.0000 0.09196  0.15726  0.61201  Biso   1.000  F
  F54      1.0000 0.59196  0.34274  0.11201  Biso   1.000  F
  F55      1.0000 0.90804  0.84274  0.38799  Biso   1.000  F
  F56      1.0000 0.40804  0.65726  0.88799  Biso   1.000  F
  F57      1.0000 0.08606  0.07926  0.66290  Biso   1.000  F
  F58      1.0000 0.58606  0.42074  0.16290  Biso   1.000  F
  F59      1.0000 0.91394  0.92074  0.33710  Biso   1.000  F
  F60      1.0000 0.41394  0.57926  0.83710  Biso   1.000  F
  F61      1.0000 0.99673  0.13592  0.58373  Biso   1.000  F
  F62      1.0000 0.49673  0.36408  0.08373  Biso   1.000  F
  F63      1.0000 0.00327  0.86408  0.41627  Biso   1.000  F
  F64      1.0000 0.50327  0.63592  0.91627  Biso   1.000  F
  F65      1.0000 0.06087  0.03948  0.59961  Biso   1.000  F
  F66      1.0000 0.56087  0.46052  0.09961  Biso   1.000  F
  F67      1.0000 0.93913  0.96052  0.40039  Biso   1.000  F
  F68      1.0000 0.43913  0.53948  0.90039  Biso   1.000  F
  F69      1.0000 0.02311  0.17532  0.64759  Biso   1.000  F
  F70      1.0000 0.52311  0.32468  0.14759  Biso   1.000  F
  F71      1.0000 0.97689  0.82468  0.35241  Biso   1.000  F
  F72      1.0000 0.47689  0.67532  0.85241  Biso   1.000  F
  P13      1.0000 0.96475  0.14745  0.88065  Biso   1.000  P
  P14      1.0000 0.46475  0.35255  0.38065  Biso   1.000  P
  P15      1.0000 0.03525  0.85255  0.11935  Biso   1.000  P
  P16      1.0000 0.53525  0.64745  0.61935  Biso   1.000  P
  F73      1.0000 0.01421  0.11018  0.91538  Biso   1.000  F
  F74      1.0000 0.51421  0.38982  0.41538  Biso   1.000  F
  F75      1.0000 0.98579  0.88982  0.08462  Biso   1.000  F
  F76      1.0000 0.48579  0.61018  0.58462  Biso   1.000  F
  F77      1.0000 0.91472  0.18431  0.84608  Biso   1.000  F
  F78      1.0000 0.41472  0.31569  0.34608  Biso   1.000  F
  F79      1.0000 0.08528  0.81569  0.15392  Biso   1.000  F
  F80      1.0000 0.58528  0.68431  0.65392  Biso   1.000  F
  F81      1.0000 0.96411  0.07498  0.85347  Biso   1.000  F
  F82      1.0000 0.46411  0.42502  0.35347  Biso   1.000  F
  F83      1.0000 0.03589  0.92502  0.14653  Biso   1.000  F
  F84      1.0000 0.53589  0.57498  0.64653  Biso   1.000  F
  F85      1.0000 0.96552  0.22014  0.90778  Biso   1.000  F
  F86      1.0000 0.46552  0.27986  0.40778  Biso   1.000  F
  F87      1.0000 0.03448  0.77986  0.09222  Biso   1.000  F
  F88      1.0000 0.53448  0.72014  0.59222  Biso   1.000  F
  F89      1.0000 0.91430  0.11220  0.90028  Biso   1.000  F
  F90      1.0000 0.41430  0.38780  0.40028  Biso   1.000  F
  F91      1.0000 0.08570  0.88780  0.09972  Biso   1.000  F
  F92      1.0000 0.58570  0.61220  0.59972  Biso   1.000  F
  F93      1.0000 0.01514  0.18325  0.86143  Biso   1.000  F
  F94      1.0000 0.51514  0.31675  0.36143  Biso   1.000  F
  F95      1.0000 0.98486  0.81675  0.13857  Biso   1.000  F
  F96      1.0000 0.48486  0.68325  0.63857  Biso   1.000  F
  N1       1.0000 0.93842  0.35570  0.58734  Biso   1.000  N
  N2       1.0000 0.43842  0.14430  0.08734  Biso   1.000  N
  N3       1.0000 0.06158  0.64430  0.41266  Biso   1.000  N
  N4       1.0000 0.56158  0.85570  0.91266  Biso   1.000  N
  C1       1.0000 0.97808  0.31024  0.57820  Biso   1.000  C
  C2       1.0000 0.47808  0.18976  0.07820  Biso   1.000  C
  C3       1.0000 0.02192  0.68976  0.42180  Biso   1.000  C
  C4       1.0000 0.52192  0.81024  0.92180  Biso   1.000  C
  H1       1.0000 0.99210  0.27190  0.59590  Biso   1.000  H
  H2       1.0000 0.49210  0.22810  0.09590  Biso   1.000  H
  H3       1.0000 0.00790  0.72810  0.40410  Biso   1.000  H
  H4       1.0000 0.50790  0.77190  0.90410  Biso   1.000  H
  C5       1.0000 0.00012  0.31672  0.54323  Biso   1.000  C
  C6       1.0000 0.50012  0.18328  0.04323  Biso   1.000  C
  C7       1.0000 0.99988  0.68328  0.45677  Biso   1.000  C
  C8       1.0000 0.49988  0.81672  0.95677  Biso   1.000  C
  H5       1.0000 0.02790  0.28320  0.53810  Biso   1.000  H
  H6       1.0000 0.52790  0.21680  0.03810  Biso   1.000  H
  H7       1.0000 0.97210  0.71680  0.46190  Biso   1.000  H
  H8       1.0000 0.47210  0.78320  0.96190  Biso   1.000  H
  C9       1.0000 0.98031  0.37264  0.51686  Biso   1.000  C
  C10      1.0000 0.48031  0.12736  0.01686  Biso   1.000  C
  C11      1.0000 0.01969  0.62736  0.48314  Biso   1.000  C
  C12      1.0000 0.51969  0.87264  0.98314  Biso   1.000  C
  H9       1.0000 0.99410  0.37710  0.49340  Biso   1.000  H
  H10      1.0000 0.49410  0.12290  0.99340  Biso   1.000  H
  H11      1.0000 0.00590  0.62290  0.50660  Biso   1.000  H
  H12      1.0000 0.50590  0.87710  0.00660  Biso   1.000  H
  C13      1.0000 0.93873  0.42365  0.52553  Biso   1.000  C
  C14      1.0000 0.43873  0.07635  0.02553  Biso   1.000  C
  C15      1.0000 0.06127  0.57635  0.47447  Biso   1.000  C
  C16      1.0000 0.56127  0.92365  0.97447  Biso   1.000  C
  C17      1.0000 0.91790  0.48549  0.50060  Biso   1.000  C
  C18      1.0000 0.41790  0.01451  0.00060  Biso   1.000  C
  C19      1.0000 0.08210  0.51451  0.49940  Biso   1.000  C
  C20      1.0000 0.58210  0.98549  0.99940  Biso   1.000  C
  H13      1.0000 0.93080  0.49260  0.47700  Biso   1.000  H
  H14      1.0000 0.43080  0.00740  0.97700  Biso   1.000  H
  H15      1.0000 0.06920  0.50740  0.52300  Biso   1.000  H
  H16      1.0000 0.56920  0.99260  0.02300  Biso   1.000  H
  C21      1.0000 0.87923  0.53439  0.51114  Biso   1.000  C
  C22      1.0000 0.37923  0.96561  0.01114  Biso   1.000  C
  C23      1.0000 0.12077  0.46561  0.48886  Biso   1.000  C
  C24      1.0000 0.62077  0.03439  0.98886  Biso   1.000  C
  H17      1.0000 0.86700  0.57550  0.49510  Biso   1.000  H
  H18      1.0000 0.36700  0.92450  0.99510  Biso   1.000  H
  H19      1.0000 0.13300  0.42450  0.50490  Biso   1.000  H
  H20      1.0000 0.63300  0.07550  0.00490  Biso   1.000  H
  C25      1.0000 0.85762  0.52293  0.54626  Biso   1.000  C
  C26      1.0000 0.35762  0.97707  0.04626  Biso   1.000  C
  C27      1.0000 0.14238  0.47707  0.45374  Biso   1.000  C
  C28      1.0000 0.64238  0.02293  0.95374  Biso   1.000  C
  H21      1.0000 0.83060  0.55610  0.55280  Biso   1.000  H
  H22      1.0000 0.33060  0.94390  0.05280  Biso   1.000  H
  H23      1.0000 0.16940  0.44390  0.44720  Biso   1.000  H
  H24      1.0000 0.66940  0.05610  0.94720  Biso   1.000  H
  C29      1.0000 0.87610  0.46344  0.57085  Biso   1.000  C
  C30      1.0000 0.37610  0.03656  0.07085  Biso   1.000  C
  C31      1.0000 0.12390  0.53656  0.42915  Biso   1.000  C
  C32      1.0000 0.62390  0.96344  0.92915  Biso   1.000  C
  C33      1.0000 0.91807  0.41311  0.56139  Biso   1.000  C
  C34      1.0000 0.41807  0.08689  0.06139  Biso   1.000  C
  C35      1.0000 0.08193  0.58689  0.43861  Biso   1.000  C
  C36      1.0000 0.58193  0.91311  0.93861  Biso   1.000  C
  C37      1.0000 0.78097  0.39148  0.59238  Biso   1.000  C
  C38      1.0000 0.28097  0.10852  0.09238  Biso   1.000  C
  C39      1.0000 0.21903  0.60852  0.40762  Biso   1.000  C
  C40      1.0000 0.71903  0.89148  0.90762  Biso   1.000  C
  H25      1.0000 0.79390  0.34670  0.58130  Biso   1.000  H
  H26      1.0000 0.29390  0.15330  0.08130  Biso   1.000  H
  H27      1.0000 0.20610  0.65330  0.41870  Biso   1.000  H
  H28      1.0000 0.70610  0.84670  0.91870  Biso   1.000  H
  H29      1.0000 0.76120  0.37720  0.61340  Biso   1.000  H
  H30      1.0000 0.26120  0.12280  0.11340  Biso   1.000  H
  H31      1.0000 0.23880  0.62280  0.38660  Biso   1.000  H
  H32      1.0000 0.73880  0.87720  0.88660  Biso   1.000  H
  C41      1.0000 0.73781  0.43191  0.55989  Biso   1.000  C
  C42      1.0000 0.23781  0.06809  0.05989  Biso   1.000  C
  C43      1.0000 0.26219  0.56809  0.44011  Biso   1.000  C
  C44      1.0000 0.76219  0.93191  0.94011  Biso   1.000  C
  C45      1.0000 0.69580  0.47930  0.56925  Biso   1.000  C
  C46      1.0000 0.19580  0.02070  0.06925  Biso   1.000  C
  C47      1.0000 0.30420  0.52070  0.43075  Biso   1.000  C
  C48      1.0000 0.80420  0.97930  0.93075  Biso   1.000  C
  H33      1.0000 0.69360  0.48580  0.59590  Biso   1.000  H
  H34      1.0000 0.19360  0.01420  0.09590  Biso   1.000  H
  H35      1.0000 0.30640  0.51420  0.40410  Biso   1.000  H
  H36      1.0000 0.80640  0.98580  0.90410  Biso   1.000  H
  C49      1.0000 0.65711  0.51709  0.53918  Biso   1.000  C
  C50      1.0000 0.15711  0.98291  0.03918  Biso   1.000  C
  C51      1.0000 0.34289  0.48291  0.46082  Biso   1.000  C
  C52      1.0000 0.84289  0.01709  0.96082  Biso   1.000  C
  H37      1.0000 0.62900  0.54850  0.54570  Biso   1.000  H
  H38      1.0000 0.12900  0.95150  0.04570  Biso   1.000  H
  H39      1.0000 0.37100  0.45150  0.45430  Biso   1.000  H
  H40      1.0000 0.87100  0.04850  0.95430  Biso   1.000  H
  C53      1.0000 0.66020  0.50823  0.49942  Biso   1.000  C
  C54      1.0000 0.16020  0.99177  0.99942  Biso   1.000  C
  C55      1.0000 0.33980  0.49177  0.50058  Biso   1.000  C
  C56      1.0000 0.83980  0.00823  0.00058  Biso   1.000  C
  H41      1.0000 0.63390  0.53370  0.47950  Biso   1.000  H
  H42      1.0000 0.13390  0.96630  0.97950  Biso   1.000  H
  H43      1.0000 0.36610  0.46630  0.52050  Biso   1.000  H
  H44      1.0000 0.86610  0.03370  0.02050  Biso   1.000  H
  C57      1.0000 0.70230  0.46147  0.48882  Biso   1.000  C
  C58      1.0000 0.20230  0.03853  0.98882  Biso   1.000  C
  C59      1.0000 0.29770  0.53853  0.51118  Biso   1.000  C
  C60      1.0000 0.79770  0.96147  0.01118  Biso   1.000  C
  C61      1.0000 0.74039  0.42287  0.51970  Biso   1.000  C
  C62      1.0000 0.24039  0.07713  0.01970  Biso   1.000  C
  C63      1.0000 0.25961  0.57713  0.48030  Biso   1.000  C
  C64      1.0000 0.75961  0.92287  0.98030  Biso   1.000  C
  H45      1.0000 0.76800  0.39050  0.51320  Biso   1.000  H
  H46      1.0000 0.26800  0.10950  0.01320  Biso   1.000  H
  H47      1.0000 0.23200  0.60950  0.48680  Biso   1.000  H
  H48      1.0000 0.73200  0.89050  0.98680  Biso   1.000  H
  C65      1.0000 0.70778  0.45378  0.44617  Biso   1.000  C
  C66      1.0000 0.20778  0.04622  0.94617  Biso   1.000  C
  C67      1.0000 0.29222  0.54622  0.55383  Biso   1.000  C
  C68      1.0000 0.79222  0.95378  0.05383  Biso   1.000  C
  C69      1.0000 0.76296  0.44324  0.43699  Biso   1.000  C
  C70      1.0000 0.26296  0.05676  0.93699  Biso   1.000  C
  C71      1.0000 0.23704  0.55676  0.56301  Biso   1.000  C
  C72      1.0000 0.73704  0.94324  0.06301  Biso   1.000  C
  H49      1.0000 0.79650  0.44100  0.45760  Biso   1.000  H
  H50      1.0000 0.29650  0.05900  0.95760  Biso   1.000  H
  H51      1.0000 0.20350  0.55900  0.54240  Biso   1.000  H
  H52      1.0000 0.70350  0.94100  0.04240  Biso   1.000  H
  C73      1.0000 0.76823  0.43612  0.39752  Biso   1.000  C
  C74      1.0000 0.26823  0.06388  0.89752  Biso   1.000  C
  C75      1.0000 0.23177  0.56388  0.60248  Biso   1.000  C
  C76      1.0000 0.73177  0.93612  0.10248  Biso   1.000  C
  H53      1.0000 0.80530  0.42970  0.39190  Biso   1.000  H
  H54      1.0000 0.30530  0.07030  0.89190  Biso   1.000  H
  H55      1.0000 0.19470  0.57030  0.60810  Biso   1.000  H
  H56      1.0000 0.69470  0.92970  0.10810  Biso   1.000  H
  C77      1.0000 0.71861  0.43854  0.36652  Biso   1.000  C
  C78      1.0000 0.21861  0.06146  0.86652  Biso   1.000  C
  C79      1.0000 0.28139  0.56146  0.63348  Biso   1.000  C
  C80      1.0000 0.78139  0.93854  0.13348  Biso   1.000  C
  H57      1.0000 0.72240  0.43380  0.34010  Biso   1.000  H
  H58      1.0000 0.22240  0.06620  0.84010  Biso   1.000  H
  H59      1.0000 0.27760  0.56620  0.65990  Biso   1.000  H
  H60      1.0000 0.77760  0.93380  0.15990  Biso   1.000  H
  C81      1.0000 0.66306  0.44802  0.37472  Biso   1.000  C
  C82      1.0000 0.16306  0.05198  0.87472  Biso   1.000  C
  C83      1.0000 0.33694  0.55198  0.62528  Biso   1.000  C
  C84      1.0000 0.83694  0.94802  0.12528  Biso   1.000  C
  C85      1.0000 0.65794  0.45628  0.41448  Biso   1.000  C
  C86      1.0000 0.15794  0.04372  0.91448  Biso   1.000  C
  C87      1.0000 0.34206  0.54372  0.58552  Biso   1.000  C
  C88      1.0000 0.84206  0.95628  0.08552  Biso   1.000  C
  H61      1.0000 0.62090  0.46350  0.42000  Biso   1.000  H
  H62      1.0000 0.12090  0.03650  0.92000  Biso   1.000  H
  H63      1.0000 0.37910  0.53650  0.58000  Biso   1.000  H
  H64      1.0000 0.87910  0.96350  0.08000  Biso   1.000  H
  C89      1.0000 0.60900  0.44980  0.34096  Biso   1.000  C
  C90      1.0000 0.10900  0.05020  0.84096  Biso   1.000  C
  C91      1.0000 0.39100  0.55020  0.65904  Biso   1.000  C
  C92      1.0000 0.89100  0.94980  0.15904  Biso   1.000  C
  H65      1.0000 0.57420  0.43770  0.35100  Biso   1.000  H
  H66      1.0000 0.07420  0.06230  0.85100  Biso   1.000  H
  H67      1.0000 0.42580  0.56230  0.64900  Biso   1.000  H
  H68      1.0000 0.92580  0.93770  0.14900  Biso   1.000  H
  H69      1.0000 0.61280  0.41380  0.32060  Biso   1.000  H
  H70      1.0000 0.11280  0.08620  0.82060  Biso   1.000  H
  H71      1.0000 0.38720  0.58620  0.67940  Biso   1.000  H
  H72      1.0000 0.88720  0.91380  0.17940  Biso   1.000  H
  N5       1.0000 0.48721  0.61568  0.32514  Biso   1.000  N
  N6       1.0000 0.98721  0.88432  0.82514  Biso   1.000  N
  N7       1.0000 0.51279  0.38432  0.67486  Biso   1.000  N
  N8       1.0000 0.01279  0.11568  0.17486  Biso   1.000  N
  C93      1.0000 0.43926  0.64795  0.33207  Biso   1.000  C
  C94      1.0000 0.93926  0.85205  0.83207  Biso   1.000  C
  C95      1.0000 0.56074  0.35205  0.66793  Biso   1.000  C
  C96      1.0000 0.06074  0.14795  0.16793  Biso   1.000  C
  H73      1.0000 0.44280  0.67640  0.35520  Biso   1.000  H
  H74      1.0000 0.94280  0.82360  0.85520  Biso   1.000  H
  H75      1.0000 0.55720  0.32360  0.64480  Biso   1.000  H
  H76      1.0000 0.05720  0.17640  0.14480  Biso   1.000  H
  C97      1.0000 0.38330  0.64143  0.30633  Biso   1.000  C
  C98      1.0000 0.88330  0.85857  0.80633  Biso   1.000  C
  C99      1.0000 0.61670  0.35857  0.69367  Biso   1.000  C
  C100     1.0000 0.11670  0.14143  0.19367  Biso   1.000  C
  H77      1.0000 0.35070  0.66460  0.31260  Biso   1.000  H
  H78      1.0000 0.85070  0.83540  0.81260  Biso   1.000  H
  H79      1.0000 0.64930  0.33540  0.68740  Biso   1.000  H
  H80      1.0000 0.14930  0.16460  0.18740  Biso   1.000  H
  C101     1.0000 0.37735  0.60073  0.27203  Biso   1.000  C
  C102     1.0000 0.87735  0.89927  0.77203  Biso   1.000  C
  C103     1.0000 0.62265  0.39927  0.72797  Biso   1.000  C
  C104     1.0000 0.12265  0.10073  0.22797  Biso   1.000  C
  H81      1.0000 0.34080  0.59700  0.25440  Biso   1.000  H
  H82      1.0000 0.84080  0.90300  0.75440  Biso   1.000  H
  H83      1.0000 0.65920  0.40300  0.74560  Biso   1.000  H
  H84      1.0000 0.15920  0.09700  0.24560  Biso   1.000  H
  C105     1.0000 0.42703  0.56422  0.26340  Biso   1.000  C
  C106     1.0000 0.92703  0.93578  0.76340  Biso   1.000  C
  C107     1.0000 0.57297  0.43578  0.73660  Biso   1.000  C
  C108     1.0000 0.07297  0.06422  0.23660  Biso   1.000  C
  C109     1.0000 0.42453  0.52070  0.22870  Biso   1.000  C
  C110     1.0000 0.92453  0.97930  0.72870  Biso   1.000  C
  C111     1.0000 0.57547  0.47930  0.77130  Biso   1.000  C
  C112     1.0000 0.07547  0.02070  0.27130  Biso   1.000  C
  H85      1.0000 0.38880  0.51500  0.21030  Biso   1.000  H
  H86      1.0000 0.88880  0.98500  0.71030  Biso   1.000  H
  H87      1.0000 0.61120  0.48500  0.78970  Biso   1.000  H
  H88      1.0000 0.11120  0.01500  0.28970  Biso   1.000  H
  C113     1.0000 0.47420  0.48682  0.22187  Biso   1.000  C
  C114     1.0000 0.97420  0.01318  0.72187  Biso   1.000  C
  C115     1.0000 0.52580  0.51318  0.77813  Biso   1.000  C
  C116     1.0000 0.02580  0.98682  0.27813  Biso   1.000  C
  H89      1.0000 0.47200  0.45860  0.19880  Biso   1.000  H
  H90      1.0000 0.97200  0.04140  0.69880  Biso   1.000  H
  H91      1.0000 0.52800  0.54140  0.80120  Biso   1.000  H
  H92      1.0000 0.02800  0.95860  0.30120  Biso   1.000  H
  C117     1.0000 0.52855  0.49458  0.24964  Biso   1.000  C
  C118     1.0000 0.02855  0.00542  0.74964  Biso   1.000  C
  C119     1.0000 0.47145  0.50542  0.75036  Biso   1.000  C
  C120     1.0000 0.97145  0.99458  0.25036  Biso   1.000  C
  H93      1.0000 0.56200  0.47140  0.24470  Biso   1.000  H
  H94      1.0000 0.06200  0.02860  0.74470  Biso   1.000  H
  H95      1.0000 0.43800  0.52860  0.75530  Biso   1.000  H
  H96      1.0000 0.93800  0.97140  0.25530  Biso   1.000  H
  C121     1.0000 0.53278  0.53570  0.28370  Biso   1.000  C
  C122     1.0000 0.03278  0.96430  0.78370  Biso   1.000  C
  C123     1.0000 0.46722  0.46430  0.71630  Biso   1.000  C
  C124     1.0000 0.96722  0.03570  0.21630  Biso   1.000  C
  C125     1.0000 0.48192  0.57297  0.29137  Biso   1.000  C
  C126     1.0000 0.98192  0.92703  0.79137  Biso   1.000  C
  C127     1.0000 0.51808  0.42703  0.70863  Biso   1.000  C
  C128     1.0000 0.01808  0.07297  0.20863  Biso   1.000  C
  C129     1.0000 0.92633  0.91695  0.55431  Biso   1.000  C
  C130     1.0000 0.42633  0.58305  0.05431  Biso   1.000  C
  C131     1.0000 0.07367  0.08305  0.44569  Biso   1.000  C
  C132     1.0000 0.57367  0.41695  0.94569  Biso   1.000  C
  N9       1.0000 0.55093  0.61504  0.41771  Biso   1.000  N
  N10      1.0000 0.05093  0.88496  0.91771  Biso   1.000  N
  N11      1.0000 0.44907  0.38496  0.58229  Biso   1.000  N
  N12      1.0000 0.94907  0.11504  0.08229  Biso   1.000  N
  C133     1.0000 0.51233  0.56839  0.42716  Biso   1.000  C
  C134     1.0000 0.01233  0.93161  0.92716  Biso   1.000  C
  C135     1.0000 0.48767  0.43161  0.57284  Biso   1.000  C
  C136     1.0000 0.98767  0.06839  0.07284  Biso   1.000  C
  H97      1.0000 0.49690  0.53150  0.40890  Biso   1.000  H
  H98      1.0000 0.99690  0.96850  0.90890  Biso   1.000  H
  H99      1.0000 0.50310  0.46850  0.59110  Biso   1.000  H
  H100     1.0000 0.00310  0.03150  0.09110  Biso   1.000  H
  C137     1.0000 0.49347  0.57170  0.46349  Biso   1.000  C
  C138     1.0000 0.99347  0.92830  0.96349  Biso   1.000  C
  C139     1.0000 0.50653  0.42830  0.53651  Biso   1.000  C
  C140     1.0000 0.00653  0.07170  0.03651  Biso   1.000  C
  H101     1.0000 0.46630  0.53760  0.46890  Biso   1.000  H
  H102     1.0000 0.96630  0.96240  0.96890  Biso   1.000  H
  H103     1.0000 0.53370  0.46240  0.53110  Biso   1.000  H
  H104     1.0000 0.03370  0.03760  0.03110  Biso   1.000  H
  C141     1.0000 0.51534  0.62538  0.49071  Biso   1.000  C
  C142     1.0000 0.01534  0.87462  0.99071  Biso   1.000  C
  C143     1.0000 0.48466  0.37462  0.50929  Biso   1.000  C
  C144     1.0000 0.98466  0.12538  0.00929  Biso   1.000  C
  H105     1.0000 0.50390  0.62760  0.51510  Biso   1.000  H
  H106     1.0000 0.00390  0.87240  0.01510  Biso   1.000  H
  H107     1.0000 0.49610  0.37240  0.48490  Biso   1.000  H
  H108     1.0000 0.99610  0.12760  0.98490  Biso   1.000  H
  C145     1.0000 0.55577  0.67791  0.48155  Biso   1.000  C
  C146     1.0000 0.05577  0.82209  0.98155  Biso   1.000  C
  C147     1.0000 0.44423  0.32209  0.51845  Biso   1.000  C
  C148     1.0000 0.94423  0.17791  0.01845  Biso   1.000  C
  C149     1.0000 0.57830  0.73789  0.50739  Biso   1.000  C
  C150     1.0000 0.07830  0.76211  0.00739  Biso   1.000  C
  C151     1.0000 0.42170  0.26211  0.49261  Biso   1.000  C
  C152     1.0000 0.92170  0.23789  0.99261  Biso   1.000  C
  H109     1.0000 0.56720  0.74300  0.53180  Biso   1.000  H
  H110     1.0000 0.06720  0.75700  0.03180  Biso   1.000  H
  H111     1.0000 0.43280  0.25700  0.46820  Biso   1.000  H
  H112     1.0000 0.93280  0.24300  0.96820  Biso   1.000  H
  C153     1.0000 0.61601  0.78800  0.49666  Biso   1.000  C
  C154     1.0000 0.11601  0.71200  0.99666  Biso   1.000  C
  C155     1.0000 0.38399  0.21200  0.50334  Biso   1.000  C
  C156     1.0000 0.88399  0.28800  0.00334  Biso   1.000  C
  H113     1.0000 0.62980  0.82750  0.51350  Biso   1.000  H
  H114     1.0000 0.12980  0.67250  0.01350  Biso   1.000  H
  H115     1.0000 0.37020  0.17250  0.48650  Biso   1.000  H
  H116     1.0000 0.87020  0.32750  0.98650  Biso   1.000  H
  C157     1.0000 0.63413  0.78000  0.46006  Biso   1.000  C
  C158     1.0000 0.13413  0.72000  0.96006  Biso   1.000  C
  C159     1.0000 0.36587  0.22000  0.53994  Biso   1.000  C
  C160     1.0000 0.86587  0.28000  0.03994  Biso   1.000  C
  H117     1.0000 0.66050  0.81380  0.45330  Biso   1.000  H
  H118     1.0000 0.16050  0.68620  0.95330  Biso   1.000  H
  H119     1.0000 0.33950  0.18620  0.54670  Biso   1.000  H
  H120     1.0000 0.83950  0.31380  0.04670  Biso   1.000  H
  C161     1.0000 0.61329  0.72307  0.43428  Biso   1.000  C
  C162     1.0000 0.11329  0.77693  0.93428  Biso   1.000  C
  C163     1.0000 0.38671  0.27693  0.56572  Biso   1.000  C
  C164     1.0000 0.88671  0.22307  0.06572  Biso   1.000  C
  C165     1.0000 0.57290  0.67079  0.44434  Biso   1.000  C
  C166     1.0000 0.07290  0.82921  0.94434  Biso   1.000  C
  C167     1.0000 0.42710  0.32921  0.55566  Biso   1.000  C
  C168     1.0000 0.92710  0.17079  0.05566  Biso   1.000  C
  C169     1.0000 0.70330  0.65592  0.40364  Biso   1.000  C
  C170     1.0000 0.20330  0.84408  0.90364  Biso   1.000  C
  C171     1.0000 0.29670  0.34408  0.59636  Biso   1.000  C
  C172     1.0000 0.79670  0.15592  0.09636  Biso   1.000  C
  H121     1.0000 0.69200  0.60910  0.41360  Biso   1.000  H
  H122     1.0000 0.19200  0.89090  0.91360  Biso   1.000  H
  H123     1.0000 0.30800  0.39090  0.58640  Biso   1.000  H
  H124     1.0000 0.80800  0.10910  0.08640  Biso   1.000  H
  H125     1.0000 0.71970  0.64570  0.38040  Biso   1.000  H
  H126     1.0000 0.21970  0.85430  0.88040  Biso   1.000  H
  H127     1.0000 0.28030  0.35430  0.61960  Biso   1.000  H
  H128     1.0000 0.78030  0.14570  0.11960  Biso   1.000  H
  C173     1.0000 0.75007  0.69137  0.43567  Biso   1.000  C
  C174     1.0000 0.25007  0.80863  0.93567  Biso   1.000  C
  C175     1.0000 0.24993  0.30863  0.56433  Biso   1.000  C
  C176     1.0000 0.74993  0.19137  0.06433  Biso   1.000  C
  C177     1.0000 0.79198  0.73941  0.42608  Biso   1.000  C
  C178     1.0000 0.29198  0.76059  0.92608  Biso   1.000  C
  C179     1.0000 0.20802  0.26059  0.57392  Biso   1.000  C
  C180     1.0000 0.70802  0.23941  0.07392  Biso   1.000  C
  H129     1.0000 0.79140  0.75020  0.39940  Biso   1.000  H
  H130     1.0000 0.29140  0.74980  0.89940  Biso   1.000  H
  H131     1.0000 0.20860  0.24980  0.60060  Biso   1.000  H
  H132     1.0000 0.70860  0.25020  0.10060  Biso   1.000  H
  C181     1.0000 0.83456  0.77105  0.45645  Biso   1.000  C
  C182     1.0000 0.33456  0.72895  0.95645  Biso   1.000  C
  C183     1.0000 0.16544  0.22895  0.54355  Biso   1.000  C
  C184     1.0000 0.66544  0.27105  0.04355  Biso   1.000  C
  H133     1.0000 0.86320  0.80170  0.44990  Biso   1.000  H
  H134     1.0000 0.36320  0.69830  0.94990  Biso   1.000  H
  H135     1.0000 0.13680  0.19830  0.55010  Biso   1.000  H
  H136     1.0000 0.63680  0.30170  0.05010  Biso   1.000  H
  C185     1.0000 0.83478  0.75738  0.49647  Biso   1.000  C
  C186     1.0000 0.33478  0.74262  0.99647  Biso   1.000  C
  C187     1.0000 0.16522  0.24262  0.50353  Biso   1.000  C
  C188     1.0000 0.66522  0.25738  0.00353  Biso   1.000  C
  H137     1.0000 0.86350  0.77900  0.51640  Biso   1.000  H
  H138     1.0000 0.36350  0.72100  0.01640  Biso   1.000  H
  H139     1.0000 0.13650  0.22100  0.48360  Biso   1.000  H
  H140     1.0000 0.63650  0.27900  0.98360  Biso   1.000  H
  C189     1.0000 0.79239  0.71154  0.50710  Biso   1.000  C
  C190     1.0000 0.29239  0.78846  0.00710  Biso   1.000  C
  C191     1.0000 0.20761  0.28846  0.49290  Biso   1.000  C
  C192     1.0000 0.70761  0.21154  0.99290  Biso   1.000  C
  C193     1.0000 0.75117  0.67741  0.47609  Biso   1.000  C
  C194     1.0000 0.25117  0.82259  0.97609  Biso   1.000  C
  C195     1.0000 0.24883  0.32259  0.52391  Biso   1.000  C
  C196     1.0000 0.74883  0.17741  0.02391  Biso   1.000  C
  H141     1.0000 0.72390  0.64470  0.48260  Biso   1.000  H
  H142     1.0000 0.22390  0.85530  0.98260  Biso   1.000  H
  H143     1.0000 0.27610  0.35530  0.51740  Biso   1.000  H
  H144     1.0000 0.77610  0.14470  0.01740  Biso   1.000  H
  C197     1.0000 0.78796  0.70140  0.54970  Biso   1.000  C
  C198     1.0000 0.28796  0.79860  0.04970  Biso   1.000  C
  C199     1.0000 0.21204  0.29860  0.45030  Biso   1.000  C
  C200     1.0000 0.71204  0.20140  0.95030  Biso   1.000  C
  C201     1.0000 0.73313  0.68925  0.55914  Biso   1.000  C
  C202     1.0000 0.23313  0.81075  0.05914  Biso   1.000  C
  C203     1.0000 0.26687  0.31075  0.44086  Biso   1.000  C
  C204     1.0000 0.76687  0.18925  0.94086  Biso   1.000  C
  H145     1.0000 0.69960  0.68670  0.53850  Biso   1.000  H
  H146     1.0000 0.19960  0.81330  0.03850  Biso   1.000  H
  H147     1.0000 0.30040  0.31330  0.46150  Biso   1.000  H
  H148     1.0000 0.80040  0.18670  0.96150  Biso   1.000  H
  C205     1.0000 0.72747  0.68091  0.59833  Biso   1.000  C
  C206     1.0000 0.22747  0.81909  0.09833  Biso   1.000  C
  C207     1.0000 0.27253  0.31909  0.40167  Biso   1.000  C
  C208     1.0000 0.77253  0.18091  0.90167  Biso   1.000  C
  H149     1.0000 0.69050  0.67290  0.60390  Biso   1.000  H
  H150     1.0000 0.19050  0.82710  0.10390  Biso   1.000  H
  H151     1.0000 0.30950  0.32710  0.39610  Biso   1.000  H
  H152     1.0000 0.80950  0.17290  0.89610  Biso   1.000  H
  C209     1.0000 0.77723  0.68454  0.62938  Biso   1.000  C
  C210     1.0000 0.27723  0.81546  0.12938  Biso   1.000  C
  C211     1.0000 0.22277  0.31546  0.37062  Biso   1.000  C
  C212     1.0000 0.72277  0.18454  0.87062  Biso   1.000  C
  H153     1.0000 0.77350  0.67920  0.65580  Biso   1.000  H
  H154     1.0000 0.27350  0.82080  0.15580  Biso   1.000  H
  H155     1.0000 0.22650  0.32080  0.34420  Biso   1.000  H
  H156     1.0000 0.72650  0.17920  0.84420  Biso   1.000  H
  C213     1.0000 0.83262  0.69611  0.62127  Biso   1.000  C
  C214     1.0000 0.33262  0.80389  0.12127  Biso   1.000  C
  C215     1.0000 0.16738  0.30389  0.37873  Biso   1.000  C
  C216     1.0000 0.66738  0.19611  0.87873  Biso   1.000  C
  C217     1.0000 0.83777  0.70459  0.58164  Biso   1.000  C
  C218     1.0000 0.33777  0.79541  0.08164  Biso   1.000  C
  C219     1.0000 0.16223  0.29541  0.41836  Biso   1.000  C
  C220     1.0000 0.66223  0.20459  0.91836  Biso   1.000  C
  H157     1.0000 0.87480  0.71250  0.57620  Biso   1.000  H
  H158     1.0000 0.37480  0.78750  0.07620  Biso   1.000  H
  H159     1.0000 0.12520  0.28750  0.42380  Biso   1.000  H
  H160     1.0000 0.62520  0.21250  0.92380  Biso   1.000  H
  C221     1.0000 0.88599  0.69927  0.65541  Biso   1.000  C
  C222     1.0000 0.38599  0.80073  0.15541  Biso   1.000  C
  C223     1.0000 0.11401  0.30073  0.34459  Biso   1.000  C
  C224     1.0000 0.61401  0.19927  0.84459  Biso   1.000  C
  H161     1.0000 0.92130  0.68890  0.64570  Biso   1.000  H
  H162     1.0000 0.42130  0.81110  0.14570  Biso   1.000  H
  H163     1.0000 0.07870  0.31110  0.35430  Biso   1.000  H
  H164     1.0000 0.57870  0.18890  0.85430  Biso   1.000  H
  H165     1.0000 0.88270  0.66250  0.67550  Biso   1.000  H
  H166     1.0000 0.38270  0.83750  0.17550  Biso   1.000  H
  H167     1.0000 0.11730  0.33750  0.32450  Biso   1.000  H
  H168     1.0000 0.61730  0.16250  0.82450  Biso   1.000  H
  N13      1.0000 0.00592  0.86559  0.67415  Biso   1.000  N
  N14      1.0000 0.50592  0.63441  0.17415  Biso   1.000  N
  N15      1.0000 0.99408  0.13441  0.32585  Biso   1.000  N
  N16      1.0000 0.49408  0.36559  0.82585  Biso   1.000  N
  C225     1.0000 0.05433  0.89834  0.66795  Biso   1.000  C
  C226     1.0000 0.55433  0.60166  0.16795  Biso   1.000  C
  C227     1.0000 0.94567  0.10166  0.33205  Biso   1.000  C
  C228     1.0000 0.44567  0.39834  0.83205  Biso   1.000  C
  H169     1.0000 0.05130  0.92770  0.64530  Biso   1.000  H
  H170     1.0000 0.55130  0.57230  0.14530  Biso   1.000  H
  H171     1.0000 0.94870  0.07230  0.35470  Biso   1.000  H
  H172     1.0000 0.44870  0.42770  0.85470  Biso   1.000  H
  C229     1.0000 0.10955  0.89068  0.69394  Biso   1.000  C
  C230     1.0000 0.60955  0.60932  0.19394  Biso   1.000  C
  C231     1.0000 0.89045  0.10932  0.30606  Biso   1.000  C
  C232     1.0000 0.39045  0.39068  0.80606  Biso   1.000  C
  H173     1.0000 0.14240  0.91390  0.68820  Biso   1.000  H
  H174     1.0000 0.64240  0.58610  0.18820  Biso   1.000  H
  H175     1.0000 0.85760  0.08610  0.31180  Biso   1.000  H
  H176     1.0000 0.35760  0.41390  0.81180  Biso   1.000  H
  C233     1.0000 0.11502  0.84899  0.72778  Biso   1.000  C
  C234     1.0000 0.61502  0.65101  0.22778  Biso   1.000  C
  C235     1.0000 0.88498  0.15101  0.27222  Biso   1.000  C
  C236     1.0000 0.38498  0.34899  0.77222  Biso   1.000  C
  H177     1.0000 0.15150  0.84430  0.74550  Biso   1.000  H
  H178     1.0000 0.65150  0.65570  0.24550  Biso   1.000  H
  H179     1.0000 0.84850  0.15570  0.25450  Biso   1.000  H
  H180     1.0000 0.34850  0.34430  0.75450  Biso   1.000  H
  C237     1.0000 0.06475  0.81277  0.73586  Biso   1.000  C
  C238     1.0000 0.56475  0.68723  0.23586  Biso   1.000  C
  C239     1.0000 0.93525  0.18723  0.26414  Biso   1.000  C
  C240     1.0000 0.43525  0.31277  0.76414  Biso   1.000  C
  C241     1.0000 0.06616  0.76907  0.77050  Biso   1.000  C
  C242     1.0000 0.56616  0.73093  0.27050  Biso   1.000  C
  C243     1.0000 0.93384  0.23093  0.22950  Biso   1.000  C
  C244     1.0000 0.43384  0.26907  0.72950  Biso   1.000  C
  H181     1.0000 0.10150  0.76320  0.78930  Biso   1.000  H
  H182     1.0000 0.60150  0.73680  0.28930  Biso   1.000  H
  H183     1.0000 0.89850  0.23680  0.21070  Biso   1.000  H
  H184     1.0000 0.39850  0.26320  0.71070  Biso   1.000  H
  C245     1.0000 0.01640  0.73569  0.77661  Biso   1.000  C
  C246     1.0000 0.51640  0.76431  0.27661  Biso   1.000  C
  C247     1.0000 0.98360  0.26431  0.22339  Biso   1.000  C
  C248     1.0000 0.48360  0.23569  0.72339  Biso   1.000  C
  H185     1.0000 0.01790  0.70790  0.79970  Biso   1.000  H
  H186     1.0000 0.51790  0.79210  0.29970  Biso   1.000  H
  H187     1.0000 0.98210  0.29210  0.20030  Biso   1.000  H
  H188     1.0000 0.48210  0.20790  0.70030  Biso   1.000  H
  C249     1.0000 0.96246  0.74298  0.74817  Biso   1.000  C
  C250     1.0000 0.46246  0.75702  0.24817  Biso   1.000  C
  C251     1.0000 0.03754  0.25702  0.25183  Biso   1.000  C
  C252     1.0000 0.53754  0.24298  0.75183  Biso   1.000  C
  H189     1.0000 0.92890  0.71930  0.75250  Biso   1.000  H
  H190     1.0000 0.42890  0.78070  0.25250  Biso   1.000  H
  H191     1.0000 0.07110  0.28070  0.24750  Biso   1.000  H
  H192     1.0000 0.57110  0.21930  0.74750  Biso   1.000  H
  C253     1.0000 0.95928  0.78478  0.71414  Biso   1.000  C
  C254     1.0000 0.45928  0.71522  0.21414  Biso   1.000  C
  C255     1.0000 0.04072  0.21522  0.28586  Biso   1.000  C
  C256     1.0000 0.54072  0.28478  0.78586  Biso   1.000  C
  C257     1.0000 0.01046  0.82170  0.70754  Biso   1.000  C
  C258     1.0000 0.51046  0.67830  0.20754  Biso   1.000  C
  C259     1.0000 0.98954  0.17830  0.29246  Biso   1.000  C
  C260     1.0000 0.48954  0.32170  0.79246  Biso   1.000  C
  N17      1.0000 0.94541  0.86133  0.58158  Biso   1.000  N
  N18      1.0000 0.44541  0.63867  0.08158  Biso   1.000  N
  N19      1.0000 0.05459  0.13867  0.41842  Biso   1.000  N
  N20      1.0000 0.55459  0.36133  0.91842  Biso   1.000  N
  C261     1.0000 0.98330  0.81183  0.57331  Biso   1.000  C
  C262     1.0000 0.48330  0.68817  0.07331  Biso   1.000  C
  C263     1.0000 0.01670  0.18817  0.42669  Biso   1.000  C
  C264     1.0000 0.51670  0.31183  0.92669  Biso   1.000  C
  H193     1.0000 0.99690  0.77490  0.59200  Biso   1.000  H
  H194     1.0000 0.49690  0.72510  0.09200  Biso   1.000  H
  H195     1.0000 0.00310  0.22510  0.40800  Biso   1.000  H
  H196     1.0000 0.50310  0.27490  0.90800  Biso   1.000  H
  C265     1.0000 0.00387  0.81262  0.53757  Biso   1.000  C
  C266     1.0000 0.50387  0.68738  0.03757  Biso   1.000  C
  C267     1.0000 0.99613  0.18738  0.46243  Biso   1.000  C
  C268     1.0000 0.49613  0.31262  0.96243  Biso   1.000  C
  H197     1.0000 0.03020  0.77670  0.53290  Biso   1.000  H
  H198     1.0000 0.53020  0.72330  0.03290  Biso   1.000  H
  H199     1.0000 0.96980  0.22330  0.46710  Biso   1.000  H
  H200     1.0000 0.46980  0.27670  0.96710  Biso   1.000  H
  C269     1.0000 0.98488  0.86664  0.50985  Biso   1.000  C
  C270     1.0000 0.48488  0.63336  0.00985  Biso   1.000  C
  C271     1.0000 0.01512  0.13336  0.49015  Biso   1.000  C
  C272     1.0000 0.51512  0.36664  0.99015  Biso   1.000  C
  H201     1.0000 0.99780  0.86740  0.48600  Biso   1.000  H
  H202     1.0000 0.49780  0.63260  0.98600  Biso   1.000  H
  H203     1.0000 0.00220  0.13260  0.51400  Biso   1.000  H
  H204     1.0000 0.50220  0.36740  0.01400  Biso   1.000  H
  C273     1.0000 0.94545  0.92150  0.51760  Biso   1.000  C
  C274     1.0000 0.44545  0.57850  0.01760  Biso   1.000  C
  C275     1.0000 0.05455  0.07850  0.48240  Biso   1.000  C
  C276     1.0000 0.55455  0.42150  0.98240  Biso   1.000  C
  C277     1.0000 0.92530  0.98087  0.49102  Biso   1.000  C
  C278     1.0000 0.42530  0.51913  0.99102  Biso   1.000  C
  C279     1.0000 0.07470  0.01913  0.50898  Biso   1.000  C
  C280     1.0000 0.57470  0.48087  0.00898  Biso   1.000  C
  H205     1.0000 0.93770  0.98430  0.46700  Biso   1.000  H
  H206     1.0000 0.43770  0.51570  0.96700  Biso   1.000  H
  H207     1.0000 0.06230  0.01570  0.53300  Biso   1.000  H
  H208     1.0000 0.56230  0.48430  0.03300  Biso   1.000  H
  C281     1.0000 0.88793  0.03301  0.50021  Biso   1.000  C
  C282     1.0000 0.38793  0.46699  0.00021  Biso   1.000  C
  C283     1.0000 0.11207  0.96699  0.49979  Biso   1.000  C
  C284     1.0000 0.61207  0.53301  0.99979  Biso   1.000  C
  H209     1.0000 0.87550  0.07200  0.48270  Biso   1.000  H
  H210     1.0000 0.37550  0.42800  0.98270  Biso   1.000  H
  H211     1.0000 0.12450  0.92800  0.51730  Biso   1.000  H
  H212     1.0000 0.62450  0.57200  0.01730  Biso   1.000  H
  C285     1.0000 0.86804  0.02783  0.53641  Biso   1.000  C
  C286     1.0000 0.36804  0.47217  0.03641  Biso   1.000  C
  C287     1.0000 0.13196  0.97217  0.46359  Biso   1.000  C
  C288     1.0000 0.63196  0.52783  0.96359  Biso   1.000  C
  H213     1.0000 0.84200  0.06310  0.54230  Biso   1.000  H
  H214     1.0000 0.34200  0.43690  0.04230  Biso   1.000  H
  H215     1.0000 0.15800  0.93690  0.45770  Biso   1.000  H
  H216     1.0000 0.65800  0.56310  0.95770  Biso   1.000  H
  C289     1.0000 0.88682  0.97127  0.56297  Biso   1.000  C
  C290     1.0000 0.38682  0.52873  0.06297  Biso   1.000  C
  C291     1.0000 0.11318  0.02873  0.43703  Biso   1.000  C
  C292     1.0000 0.61318  0.47127  0.93703  Biso   1.000  C
  C293     1.0000 0.79405  0.90661  0.59099  Biso   1.000  C
  C294     1.0000 0.29405  0.59339  0.09099  Biso   1.000  C
  C295     1.0000 0.20595  0.09339  0.40901  Biso   1.000  C
  C296     1.0000 0.70595  0.40661  0.90901  Biso   1.000  C
  H217     1.0000 0.80620  0.85980  0.58150  Biso   1.000  H
  H218     1.0000 0.30620  0.64020  0.08150  Biso   1.000  H
  H219     1.0000 0.19380  0.14020  0.41850  Biso   1.000  H
  H220     1.0000 0.69380  0.35980  0.91850  Biso   1.000  H
  H221     1.0000 0.77640  0.89630  0.61360  Biso   1.000  H
  H222     1.0000 0.27640  0.60370  0.11360  Biso   1.000  H
  H223     1.0000 0.22360  0.10370  0.38640  Biso   1.000  H
  H224     1.0000 0.72360  0.39630  0.88640  Biso   1.000  H
  C297     1.0000 0.74823  0.94153  0.55794  Biso   1.000  C
  C298     1.0000 0.24823  0.55847  0.05794  Biso   1.000  C
  C299     1.0000 0.25177  0.05847  0.44206  Biso   1.000  C
  C300     1.0000 0.75177  0.44153  0.94206  Biso   1.000  C
  C301     1.0000 0.70451  0.98743  0.56647  Biso   1.000  C
  C302     1.0000 0.20451  0.51257  0.06647  Biso   1.000  C
  C303     1.0000 0.29549  0.01257  0.43353  Biso   1.000  C
  C304     1.0000 0.79549  0.48743  0.93353  Biso   1.000  C
  H225     1.0000 0.70370  0.99770  0.59300  Biso   1.000  H
  H226     1.0000 0.20370  0.50230  0.09300  Biso   1.000  H
  H227     1.0000 0.29630  0.00230  0.40700  Biso   1.000  H
  H228     1.0000 0.79630  0.49770  0.90700  Biso   1.000  H
  C305     1.0000 0.66215  0.01795  0.53568  Biso   1.000  C
  C306     1.0000 0.16215  0.48205  0.03568  Biso   1.000  C
  C307     1.0000 0.33785  0.98205  0.46432  Biso   1.000  C
  C308     1.0000 0.83785  0.51795  0.96432  Biso   1.000  C
  H229     1.0000 0.63260  0.04770  0.54160  Biso   1.000  H
  H230     1.0000 0.13260  0.45230  0.04160  Biso   1.000  H
  H231     1.0000 0.36740  0.95230  0.45840  Biso   1.000  H
  H232     1.0000 0.86740  0.54770  0.95840  Biso   1.000  H
  C309     1.0000 0.66386  0.00409  0.49588  Biso   1.000  C
  C310     1.0000 0.16386  0.49591  0.99588  Biso   1.000  C
  C311     1.0000 0.33614  0.99591  0.50412  Biso   1.000  C
  C312     1.0000 0.83614  0.50409  0.00412  Biso   1.000  C
  H233     1.0000 0.63510  0.02430  0.47540  Biso   1.000  H
  H234     1.0000 0.13510  0.47570  0.97540  Biso   1.000  H
  H235     1.0000 0.36490  0.97570  0.52460  Biso   1.000  H
  H236     1.0000 0.86490  0.52430  0.02460  Biso   1.000  H
  C313     1.0000 0.70836  0.96000  0.48636  Biso   1.000  C
  C314     1.0000 0.20836  0.54000  0.98636  Biso   1.000  C
  C315     1.0000 0.29164  0.04000  0.51364  Biso   1.000  C
  C316     1.0000 0.79164  0.46000  0.01364  Biso   1.000  C
  C317     1.0000 0.74925  0.92801  0.51799  Biso   1.000  C
  C318     1.0000 0.24925  0.57199  0.01799  Biso   1.000  C
  C319     1.0000 0.25075  0.07199  0.48201  Biso   1.000  C
  C320     1.0000 0.75075  0.42801  0.98201  Biso   1.000  C
  H237     1.0000 0.77800  0.89670  0.51220  Biso   1.000  H
  H238     1.0000 0.27800  0.60330  0.01220  Biso   1.000  H
  H239     1.0000 0.22200  0.10330  0.48780  Biso   1.000  H
  H240     1.0000 0.72200  0.39670  0.98780  Biso   1.000  H
  C321     1.0000 0.71312  0.94822  0.44395  Biso   1.000  C
  C322     1.0000 0.21312  0.55178  0.94395  Biso   1.000  C
  C323     1.0000 0.28688  0.05178  0.55605  Biso   1.000  C
  C324     1.0000 0.78688  0.44822  0.05605  Biso   1.000  C
  C325     1.0000 0.76841  0.94350  0.43421  Biso   1.000  C
  C326     1.0000 0.26841  0.55650  0.93421  Biso   1.000  C
  C327     1.0000 0.23159  0.05650  0.56579  Biso   1.000  C
  C328     1.0000 0.73159  0.44350  0.06579  Biso   1.000  C
  H241     1.0000 0.80230  0.94840  0.45440  Biso   1.000  H
  H242     1.0000 0.30230  0.55160  0.95440  Biso   1.000  H
  H243     1.0000 0.19770  0.05160  0.54560  Biso   1.000  H
  H244     1.0000 0.69770  0.44840  0.04560  Biso   1.000  H
  C329     1.0000 0.77387  0.93177  0.39513  Biso   1.000  C
  C330     1.0000 0.27387  0.56823  0.89513  Biso   1.000  C
  C331     1.0000 0.22613  0.06823  0.60487  Biso   1.000  C
  C332     1.0000 0.72613  0.43177  0.10487  Biso   1.000  C
  H245     1.0000 0.81100  0.92960  0.38920  Biso   1.000  H
  H246     1.0000 0.31100  0.57040  0.88920  Biso   1.000  H
  H247     1.0000 0.18900  0.07040  0.61080  Biso   1.000  H
  H248     1.0000 0.68900  0.42960  0.11080  Biso   1.000  H
  C333     1.0000 0.72370  0.92327  0.36492  Biso   1.000  C
  C334     1.0000 0.22370  0.57673  0.86492  Biso   1.000  C
  C335     1.0000 0.27630  0.07673  0.63508  Biso   1.000  C
  C336     1.0000 0.77630  0.42327  0.13508  Biso   1.000  C
  H249     1.0000 0.72730  0.91470  0.33870  Biso   1.000  H
  H250     1.0000 0.22730  0.58530  0.83870  Biso   1.000  H
  H251     1.0000 0.27270  0.08530  0.66130  Biso   1.000  H
  H252     1.0000 0.77270  0.41470  0.16130  Biso   1.000  H
  C337     1.0000 0.66785  0.92755  0.37346  Biso   1.000  C
  C338     1.0000 0.16785  0.57245  0.87346  Biso   1.000  C
  C339     1.0000 0.33215  0.07245  0.62654  Biso   1.000  C
  C340     1.0000 0.83215  0.42755  0.12654  Biso   1.000  C
  C341     1.0000 0.66282  0.94076  0.41283  Biso   1.000  C
  C342     1.0000 0.16282  0.55924  0.91283  Biso   1.000  C
  C343     1.0000 0.33718  0.05924  0.58717  Biso   1.000  C
  C344     1.0000 0.83718  0.44076  0.08717  Biso   1.000  C
  H253     1.0000 0.62560  0.94470  0.41850  Biso   1.000  H
  H254     1.0000 0.12560  0.55530  0.91850  Biso   1.000  H
  H255     1.0000 0.37440  0.05530  0.58150  Biso   1.000  H
  H256     1.0000 0.87440  0.44470  0.08150  Biso   1.000  H
  C345     1.0000 0.61371  0.92114  0.34027  Biso   1.000  C
  C346     1.0000 0.11371  0.57886  0.84027  Biso   1.000  C
  C347     1.0000 0.38629  0.07886  0.65973  Biso   1.000  C
  C348     1.0000 0.88629  0.42114  0.15973  Biso   1.000  C
  H257     1.0000 0.57920  0.91140  0.35110  Biso   1.000  H
  H258     1.0000 0.07920  0.58860  0.85110  Biso   1.000  H
  H259     1.0000 0.42080  0.08860  0.64890  Biso   1.000  H
  H260     1.0000 0.92080  0.41140  0.14890  Biso   1.000  H
  H261     1.0000 0.61810  0.88130  0.32220  Biso   1.000  H
  H262     1.0000 0.11810  0.61870  0.82220  Biso   1.000  H
  H263     1.0000 0.38190  0.11870  0.67780  Biso   1.000  H
  H264     1.0000 0.88190  0.38130  0.17780  Biso   1.000  H
  N21      1.0000 0.49974  0.10513  0.30968  Biso   1.000  N
  N22      1.0000 0.99974  0.39487  0.80968  Biso   1.000  N
  N23      1.0000 0.50026  0.89487  0.69032  Biso   1.000  N
  N24      1.0000 0.00026  0.60513  0.19032  Biso   1.000  N
  C349     1.0000 0.45674  0.15258  0.31011  Biso   1.000  C
  C350     1.0000 0.95674  0.34742  0.81011  Biso   1.000  C
  C351     1.0000 0.54326  0.84742  0.68989  Biso   1.000  C
  C352     1.0000 0.04326  0.65258  0.18989  Biso   1.000  C
  H265     1.0000 0.46310  0.18970  0.32940  Biso   1.000  H
  H266     1.0000 0.96310  0.31030  0.82940  Biso   1.000  H
  H267     1.0000 0.53690  0.81030  0.67060  Biso   1.000  H
  H268     1.0000 0.03690  0.68970  0.17060  Biso   1.000  H
  C353     1.0000 0.40203  0.14988  0.28293  Biso   1.000  C
  C354     1.0000 0.90203  0.35012  0.78293  Biso   1.000  C
  C355     1.0000 0.59797  0.85012  0.71707  Biso   1.000  C
  C356     1.0000 0.09797  0.64988  0.21707  Biso   1.000  C
  H269     1.0000 0.37300  0.18460  0.28430  Biso   1.000  H
  H270     1.0000 0.87300  0.31540  0.78430  Biso   1.000  H
  H271     1.0000 0.62700  0.81540  0.71570  Biso   1.000  H
  H272     1.0000 0.12700  0.68460  0.21570  Biso   1.000  H
  C357     1.0000 0.39162  0.09589  0.25441  Biso   1.000  C
  C358     1.0000 0.89162  0.40411  0.75441  Biso   1.000  C
  C359     1.0000 0.60838  0.90411  0.74559  Biso   1.000  C
  C360     1.0000 0.10838  0.59589  0.24559  Biso   1.000  C
  H273     1.0000 0.35540  0.09350  0.23630  Biso   1.000  H
  H274     1.0000 0.85540  0.40650  0.73630  Biso   1.000  H
  H275     1.0000 0.64460  0.90650  0.76370  Biso   1.000  H
  H276     1.0000 0.14460  0.59350  0.26370  Biso   1.000  H
  C361     1.0000 0.43617  0.04356  0.25253  Biso   1.000  C
  C362     1.0000 0.93617  0.45644  0.75253  Biso   1.000  C
  C363     1.0000 0.56383  0.95644  0.74747  Biso   1.000  C
  C364     1.0000 0.06383  0.54356  0.24747  Biso   1.000  C
  C365     1.0000 0.42963  0.98685  0.22342  Biso   1.000  C
  C366     1.0000 0.92963  0.51315  0.72342  Biso   1.000  C
  C367     1.0000 0.57037  0.01315  0.77658  Biso   1.000  C
  C368     1.0000 0.07037  0.48685  0.27658  Biso   1.000  C
  H277     1.0000 0.39390  0.98150  0.20500  Biso   1.000  H
  H278     1.0000 0.89390  0.51850  0.70500  Biso   1.000  H
  H279     1.0000 0.60610  0.01850  0.79500  Biso   1.000  H
  H280     1.0000 0.10610  0.48150  0.29500  Biso   1.000  H
  C369     1.0000 0.47512  0.93981  0.22208  Biso   1.000  C
  C370     1.0000 0.97512  0.56019  0.72208  Biso   1.000  C
  C371     1.0000 0.52488  0.06019  0.77792  Biso   1.000  C
  C372     1.0000 0.02488  0.43981  0.27792  Biso   1.000  C
  H281     1.0000 0.47030  0.90300  0.20260  Biso   1.000  H
  H282     1.0000 0.97030  0.59700  0.70260  Biso   1.000  H
  H283     1.0000 0.52970  0.09700  0.79740  Biso   1.000  H
  H284     1.0000 0.02970  0.40300  0.29740  Biso   1.000  H
  C373     1.0000 0.52936  0.94665  0.25006  Biso   1.000  C
  C374     1.0000 0.02936  0.55335  0.75006  Biso   1.000  C
  C375     1.0000 0.47064  0.05335  0.74994  Biso   1.000  C
  C376     1.0000 0.97064  0.44665  0.24994  Biso   1.000  C
  H285     1.0000 0.56020  0.91470  0.24870  Biso   1.000  H
  H286     1.0000 0.06020  0.58530  0.74870  Biso   1.000  H
  H287     1.0000 0.43980  0.08530  0.75130  Biso   1.000  H
  H288     1.0000 0.93980  0.41470  0.25130  Biso   1.000  H
  C377     1.0000 0.53694  0.99982  0.27917  Biso   1.000  C
  C378     1.0000 0.03694  0.50018  0.77917  Biso   1.000  C
  C379     1.0000 0.46306  0.00018  0.72083  Biso   1.000  C
  C380     1.0000 0.96306  0.49982  0.22083  Biso   1.000  C
  C381     1.0000 0.49058  0.05031  0.28090  Biso   1.000  C
  C382     1.0000 0.99058  0.44969  0.78090  Biso   1.000  C
  C383     1.0000 0.50942  0.94969  0.71910  Biso   1.000  C
  C384     1.0000 0.00942  0.55031  0.21910  Biso   1.000  C
  N25      1.0000 0.98694  0.35139  0.68624  Biso   1.000  N
  N26      1.0000 0.48694  0.14861  0.18624  Biso   1.000  N
  N27      1.0000 0.01306  0.64861  0.31376  Biso   1.000  N
  N28      1.0000 0.51306  0.85139  0.81376  Biso   1.000  N
  C385     1.0000 0.03351  0.39498  0.68903  Biso   1.000  C
  C386     1.0000 0.53351  0.10502  0.18903  Biso   1.000  C
  C387     1.0000 0.96649  0.60502  0.31097  Biso   1.000  C
  C388     1.0000 0.46649  0.89498  0.81097  Biso   1.000  C
  H289     1.0000 0.03140  0.43360  0.67080  Biso   1.000  H
  H290     1.0000 0.53140  0.06640  0.17080  Biso   1.000  H
  H291     1.0000 0.96860  0.56640  0.32920  Biso   1.000  H
  H292     1.0000 0.46860  0.93360  0.82920  Biso   1.000  H
  C389     1.0000 0.08608  0.38556  0.71838  Biso   1.000  C
  C390     1.0000 0.58608  0.11444  0.21838  Biso   1.000  C
  C391     1.0000 0.91392  0.61444  0.28162  Biso   1.000  C
  C392     1.0000 0.41392  0.88556  0.78162  Biso   1.000  C
  H293     1.0000 0.11790  0.41720  0.71910  Biso   1.000  H
  H294     1.0000 0.61790  0.08280  0.21910  Biso   1.000  H
  H295     1.0000 0.88210  0.58280  0.28090  Biso   1.000  H
  H296     1.0000 0.38210  0.91720  0.78090  Biso   1.000  H
  C393     1.0000 0.08998  0.32988  0.74558  Biso   1.000  C
  C394     1.0000 0.58998  0.17012  0.24558  Biso   1.000  C
  C395     1.0000 0.91002  0.67012  0.25442  Biso   1.000  C
  C396     1.0000 0.41002  0.82988  0.75442  Biso   1.000  C
  H297     1.0000 0.12440  0.32360  0.76520  Biso   1.000  H
  H298     1.0000 0.62440  0.17640  0.26520  Biso   1.000  H
  H299     1.0000 0.87560  0.67640  0.23480  Biso   1.000  H
  H300     1.0000 0.37560  0.82360  0.73480  Biso   1.000  H
  C397     1.0000 0.04169  0.28170  0.74401  Biso   1.000  C
  C398     1.0000 0.54169  0.21830  0.24401  Biso   1.000  C
  C399     1.0000 0.95831  0.71830  0.25599  Biso   1.000  C
  C400     1.0000 0.45831  0.78170  0.75599  Biso   1.000  C
  C401     1.0000 0.04188  0.22335  0.77174  Biso   1.000  C
  C402     1.0000 0.54188  0.27665  0.27174  Biso   1.000  C
  C403     1.0000 0.95812  0.77665  0.22826  Biso   1.000  C
  C404     1.0000 0.45812  0.72335  0.72826  Biso   1.000  C
  H301     1.0000 0.07530  0.21500  0.79190  Biso   1.000  H
  H302     1.0000 0.57530  0.28500  0.29190  Biso   1.000  H
  H303     1.0000 0.92470  0.78500  0.20810  Biso   1.000  H
  H304     1.0000 0.42470  0.71500  0.70810  Biso   1.000  H
  C405     1.0000 0.99353  0.17929  0.76911  Biso   1.000  C
  C406     1.0000 0.49353  0.32071  0.26911  Biso   1.000  C
  C407     1.0000 0.00647  0.82071  0.23089  Biso   1.000  C
  C408     1.0000 0.50647  0.67929  0.73089  Biso   1.000  C
  H305     1.0000 0.99420  0.14110  0.78740  Biso   1.000  H
  H306     1.0000 0.49420  0.35890  0.28740  Biso   1.000  H
  H307     1.0000 0.00580  0.85890  0.21260  Biso   1.000  H
  H308     1.0000 0.50580  0.64110  0.71260  Biso   1.000  H
  C409     1.0000 0.94293  0.19142  0.73897  Biso   1.000  C
  C410     1.0000 0.44293  0.30858  0.23897  Biso   1.000  C
  C411     1.0000 0.05707  0.80858  0.26103  Biso   1.000  C
  C412     1.0000 0.55707  0.69142  0.76103  Biso   1.000  C
  H309     1.0000 0.91020  0.16110  0.73760  Biso   1.000  H
  H310     1.0000 0.41020  0.33890  0.23760  Biso   1.000  H
  H311     1.0000 0.08980  0.83890  0.26240  Biso   1.000  H
  H312     1.0000 0.58980  0.66110  0.76240  Biso   1.000  H
  C413     1.0000 0.94077  0.24702  0.71156  Biso   1.000  C
  C414     1.0000 0.44077  0.25298  0.21156  Biso   1.000  C
  C415     1.0000 0.05923  0.75298  0.28844  Biso   1.000  C
  C416     1.0000 0.55923  0.74702  0.78844  Biso   1.000  C
  C417     1.0000 0.99015  0.29444  0.71345  Biso   1.000  C
  C418     1.0000 0.49015  0.20556  0.21345  Biso   1.000  C
  C419     1.0000 0.00985  0.70556  0.28655  Biso   1.000  C
  C420     1.0000 0.50985  0.79444  0.78655  Biso   1.000  C
  C421     1.0000 0.87071  0.17457  0.64611  Biso   1.000  C
  C422     1.0000 0.37071  0.32543  0.14611  Biso   1.000  C
  C423     1.0000 0.12929  0.82543  0.35389  Biso   1.000  C
  C424     1.0000 0.62929  0.67457  0.85389  Biso   1.000  C
  H313     1.0000 0.90740  0.16610  0.63720  Biso   1.000  H
  H314     1.0000 0.40740  0.33390  0.13720  Biso   1.000  H
  H315     1.0000 0.09260  0.83390  0.36280  Biso   1.000  H
  H316     1.0000 0.59260  0.66610  0.86280  Biso   1.000  H
  H317     1.0000 0.86350  0.13650  0.66460  Biso   1.000  H
  H318     1.0000 0.36350  0.36350  0.16460  Biso   1.000  H
  H319     1.0000 0.13650  0.86350  0.33540  Biso   1.000  H
  H320     1.0000 0.63650  0.63650  0.83540  Biso   1.000  H
  N29      1.0000 0.55695  0.10226  0.40591  Biso   1.000  N
  N30      1.0000 0.05695  0.39774  0.90591  Biso   1.000  N
  N31      1.0000 0.44305  0.89774  0.59409  Biso   1.000  N
  N32      1.0000 0.94305  0.60226  0.09409  Biso   1.000  N
  C425     1.0000 0.51966  0.05614  0.41730  Biso   1.000  C
  C426     1.0000 0.01966  0.44386  0.91730  Biso   1.000  C
  C427     1.0000 0.48034  0.94386  0.58270  Biso   1.000  C
  C428     1.0000 0.98034  0.55614  0.08270  Biso   1.000  C
  H321     1.0000 0.50510  0.01690  0.40040  Biso   1.000  H
  H322     1.0000 0.00510  0.48310  0.90040  Biso   1.000  H
  H323     1.0000 0.49490  0.98310  0.59960  Biso   1.000  H
  H324     1.0000 0.99490  0.51690  0.09960  Biso   1.000  H
  C429     1.0000 0.50071  0.06295  0.45339  Biso   1.000  C
  C430     1.0000 0.00071  0.43705  0.95339  Biso   1.000  C
  C431     1.0000 0.49929  0.93705  0.54661  Biso   1.000  C
  C432     1.0000 0.99929  0.56295  0.04661  Biso   1.000  C
  H325     1.0000 0.47530  0.02810  0.46040  Biso   1.000  H
  H326     1.0000 0.97530  0.47190  0.96040  Biso   1.000  H
  H327     1.0000 0.52470  0.97190  0.53960  Biso   1.000  H
  H328     1.0000 0.02470  0.52810  0.03960  Biso   1.000  H
  C433     1.0000 0.52014  0.12146  0.47821  Biso   1.000  C
  C434     1.0000 0.02014  0.37854  0.97821  Biso   1.000  C
  C435     1.0000 0.47986  0.87854  0.52179  Biso   1.000  C
  C436     1.0000 0.97986  0.62146  0.02179  Biso   1.000  C
  H329     1.0000 0.50820  0.12670  0.50230  Biso   1.000  H
  H330     1.0000 0.00820  0.37330  0.00230  Biso   1.000  H
  H331     1.0000 0.49180  0.87330  0.49770  Biso   1.000  H
  H332     1.0000 0.99180  0.62670  0.99770  Biso   1.000  H
  C437     1.0000 0.55870  0.17404  0.46674  Biso   1.000  C
  C438     1.0000 0.05870  0.32596  0.96674  Biso   1.000  C
  C439     1.0000 0.44130  0.82596  0.53326  Biso   1.000  C
  C440     1.0000 0.94130  0.67404  0.03326  Biso   1.000  C
  C441     1.0000 0.57814  0.23816  0.48955  Biso   1.000  C
  C442     1.0000 0.07814  0.26184  0.98955  Biso   1.000  C
  C443     1.0000 0.42186  0.76184  0.51045  Biso   1.000  C
  C444     1.0000 0.92186  0.73816  0.01045  Biso   1.000  C
  H333     1.0000 0.56630  0.24650  0.51340  Biso   1.000  H
  H334     1.0000 0.06630  0.25350  0.01340  Biso   1.000  H
  H335     1.0000 0.43370  0.75350  0.48660  Biso   1.000  H
  H336     1.0000 0.93370  0.74650  0.98660  Biso   1.000  H
  C445     1.0000 0.61423  0.28804  0.47674  Biso   1.000  C
  C446     1.0000 0.11423  0.21196  0.97674  Biso   1.000  C
  C447     1.0000 0.38577  0.71196  0.52326  Biso   1.000  C
  C448     1.0000 0.88577  0.78804  0.02326  Biso   1.000  C
  H337     1.0000 0.62570  0.33080  0.49150  Biso   1.000  H
  H338     1.0000 0.12570  0.16920  0.99150  Biso   1.000  H
  H339     1.0000 0.37430  0.66920  0.50850  Biso   1.000  H
  H340     1.0000 0.87430  0.83080  0.00850  Biso   1.000  H
  C449     1.0000 0.63426  0.27483  0.44116  Biso   1.000  C
  C450     1.0000 0.13426  0.22517  0.94116  Biso   1.000  C
  C451     1.0000 0.36574  0.72517  0.55884  Biso   1.000  C
  C452     1.0000 0.86574  0.77483  0.05884  Biso   1.000  C
  H341     1.0000 0.65950  0.30850  0.43300  Biso   1.000  H
  H342     1.0000 0.15950  0.19150  0.93300  Biso   1.000  H
  H343     1.0000 0.34050  0.69150  0.56700  Biso   1.000  H
  H344     1.0000 0.84050  0.80850  0.06700  Biso   1.000  H
  C453     1.0000 0.61681  0.21284  0.41861  Biso   1.000  C
  C454     1.0000 0.11681  0.28716  0.91861  Biso   1.000  C
  C455     1.0000 0.38319  0.78716  0.58139  Biso   1.000  C
  C456     1.0000 0.88319  0.71284  0.08139  Biso   1.000  C
  C457     1.0000 0.57730  0.16185  0.43027  Biso   1.000  C
  C458     1.0000 0.07730  0.33815  0.93027  Biso   1.000  C
  C459     1.0000 0.42270  0.83815  0.56973  Biso   1.000  C
  C460     1.0000 0.92270  0.66185  0.06973  Biso   1.000  C
  C461     1.0000 0.71078  0.14070  0.39398  Biso   1.000  C
  C462     1.0000 0.21078  0.35930  0.89398  Biso   1.000  C
  C463     1.0000 0.28922  0.85930  0.60602  Biso   1.000  C
  C464     1.0000 0.78922  0.64070  0.10602  Biso   1.000  C
  H345     1.0000 0.69900  0.09450  0.40440  Biso   1.000  H
  H346     1.0000 0.19900  0.40550  0.90440  Biso   1.000  H
  H347     1.0000 0.30100  0.90550  0.59560  Biso   1.000  H
  H348     1.0000 0.80100  0.59450  0.09560  Biso   1.000  H
  H349     1.0000 0.72980  0.12890  0.37220  Biso   1.000  H
  H350     1.0000 0.22980  0.37110  0.87220  Biso   1.000  H
  H351     1.0000 0.27020  0.87110  0.62780  Biso   1.000  H
  H352     1.0000 0.77020  0.62890  0.12780  Biso   1.000  H
  C465     1.0000 0.75451  0.17938  0.42667  Biso   1.000  C
  C466     1.0000 0.25451  0.32062  0.92667  Biso   1.000  C
  C467     1.0000 0.24549  0.82062  0.57333  Biso   1.000  C
  C468     1.0000 0.74549  0.67938  0.07333  Biso   1.000  C
  C469     1.0000 0.79805  0.22577  0.41818  Biso   1.000  C
  C470     1.0000 0.29805  0.27423  0.91818  Biso   1.000  C
  C471     1.0000 0.20195  0.77423  0.58182  Biso   1.000  C
  C472     1.0000 0.70195  0.72577  0.08182  Biso   1.000  C
  H353     1.0000 0.80120  0.23260  0.39180  Biso   1.000  H
  H354     1.0000 0.30120  0.26740  0.89180  Biso   1.000  H
  H355     1.0000 0.19880  0.76740  0.60820  Biso   1.000  H
  H356     1.0000 0.69880  0.73260  0.10820  Biso   1.000  H
  C473     1.0000 0.83671  0.26167  0.44890  Biso   1.000  C
  C474     1.0000 0.33671  0.23833  0.94890  Biso   1.000  C
  C475     1.0000 0.16329  0.73833  0.55110  Biso   1.000  C
  C476     1.0000 0.66329  0.76167  0.05110  Biso   1.000  C
  H357     1.0000 0.86590  0.29220  0.44300  Biso   1.000  H
  H358     1.0000 0.36590  0.20780  0.94300  Biso   1.000  H
  H359     1.0000 0.13410  0.70780  0.55700  Biso   1.000  H
  H360     1.0000 0.63410  0.79220  0.05700  Biso   1.000  H
  C477     1.0000 0.83237  0.25265  0.48847  Biso   1.000  C
  C478     1.0000 0.33237  0.24735  0.98847  Biso   1.000  C
  C479     1.0000 0.16763  0.74735  0.51153  Biso   1.000  C
  C480     1.0000 0.66763  0.75265  0.01153  Biso   1.000  C
  H361     1.0000 0.85870  0.27690  0.50880  Biso   1.000  H
  H362     1.0000 0.35870  0.22310  0.00880  Biso   1.000  H
  H363     1.0000 0.14130  0.72310  0.49120  Biso   1.000  H
  H364     1.0000 0.64130  0.77690  0.99120  Biso   1.000  H
  C481     1.0000 0.78877  0.20747  0.49785  Biso   1.000  C
  C482     1.0000 0.28877  0.29253  0.99785  Biso   1.000  C
  C483     1.0000 0.21123  0.79253  0.50215  Biso   1.000  C
  C484     1.0000 0.71123  0.70747  0.00215  Biso   1.000  C
  C485     1.0000 0.75065  0.17025  0.46657  Biso   1.000  C
  C486     1.0000 0.25065  0.32975  0.96657  Biso   1.000  C
  C487     1.0000 0.24935  0.82975  0.53343  Biso   1.000  C
  C488     1.0000 0.74935  0.67025  0.03343  Biso   1.000  C
  H365     1.0000 0.72210  0.13870  0.47250  Biso   1.000  H
  H366     1.0000 0.22210  0.36130  0.97250  Biso   1.000  H
  H367     1.0000 0.27790  0.86130  0.52750  Biso   1.000  H
  H368     1.0000 0.77790  0.63870  0.02750  Biso   1.000  H
  C489     1.0000 0.78030  0.19935  0.53970  Biso   1.000  C
  C490     1.0000 0.28030  0.30065  0.03970  Biso   1.000  C
  C491     1.0000 0.21970  0.80065  0.46030  Biso   1.000  C
  C492     1.0000 0.71970  0.69935  0.96030  Biso   1.000  C
  C493     1.0000 0.82837  0.19374  0.57266  Biso   1.000  C
  C494     1.0000 0.32837  0.30626  0.07266  Biso   1.000  C
  C495     1.0000 0.17163  0.80626  0.42734  Biso   1.000  C
  C496     1.0000 0.67163  0.69374  0.92734  Biso   1.000  C
  H369     1.0000 0.86670  0.19780  0.56890  Biso   1.000  H
  H370     1.0000 0.36670  0.30220  0.06890  Biso   1.000  H
  H371     1.0000 0.13330  0.80220  0.43110  Biso   1.000  H
  H372     1.0000 0.63330  0.69780  0.93110  Biso   1.000  H
  C497     1.0000 0.81888  0.18212  0.61102  Biso   1.000  C
  C498     1.0000 0.31888  0.31788  0.11102  Biso   1.000  C
  C499     1.0000 0.18112  0.81788  0.38898  Biso   1.000  C
  C500     1.0000 0.68112  0.68212  0.88898  Biso   1.000  C
  C501     1.0000 0.76177  0.17946  0.61724  Biso   1.000  C
  C502     1.0000 0.26177  0.32054  0.11724  Biso   1.000  C
  C503     1.0000 0.23823  0.82054  0.38276  Biso   1.000  C
  C504     1.0000 0.73823  0.67946  0.88276  Biso   1.000  C
  H373     1.0000 0.75560  0.17260  0.64300  Biso   1.000  H
  H374     1.0000 0.25560  0.32740  0.14300  Biso   1.000  H
  H375     1.0000 0.24440  0.82740  0.35700  Biso   1.000  H
  H376     1.0000 0.74440  0.67260  0.85700  Biso   1.000  H
  C505     1.0000 0.71396  0.18697  0.58516  Biso   1.000  C
  C506     1.0000 0.21396  0.31303  0.08516  Biso   1.000  C
  C507     1.0000 0.28604  0.81303  0.41484  Biso   1.000  C
  C508     1.0000 0.78604  0.68697  0.91484  Biso   1.000  C
  H377     1.0000 0.67580  0.18610  0.58930  Biso   1.000  H
  H378     1.0000 0.17580  0.31390  0.08930  Biso   1.000  H
  H379     1.0000 0.32420  0.81390  0.41070  Biso   1.000  H
  H380     1.0000 0.82420  0.68610  0.91070  Biso   1.000  H
  C509     1.0000 0.72345  0.19587  0.54678  Biso   1.000  C
  C510     1.0000 0.22345  0.30413  0.04678  Biso   1.000  C
  C511     1.0000 0.27655  0.80413  0.45322  Biso   1.000  C
  C512     1.0000 0.77655  0.69587  0.95322  Biso   1.000  C
  H381     1.0000 0.69120  0.19960  0.52530  Biso   1.000  H
  H382     1.0000 0.19120  0.30040  0.02530  Biso   1.000  H
  H383     1.0000 0.30880  0.80040  0.47470  Biso   1.000  H
  H384     1.0000 0.80880  0.69960  0.97470  Biso   1.000  H
  C513     1.0000 0.32072  0.19141  0.81405  Biso   1.000  C
  C514     1.0000 0.82072  0.30859  0.31405  Biso   1.000  C
  C515     1.0000 0.67928  0.80859  0.18595  Biso   1.000  C
  C516     1.0000 0.17928  0.69141  0.68595  Biso   1.000  C
  H385     1.0000 0.29240  0.23060  0.81250  Biso   1.000  H
  H386     1.0000 0.79240  0.26940  0.31250  Biso   1.000  H
  H387     1.0000 0.70760  0.76940  0.18750  Biso   1.000  H
  H388     1.0000 0.20760  0.73060  0.68750  Biso   1.000  H
  H389     1.0000 0.35860  0.20840  0.82840  Biso   1.000  H
  H390     1.0000 0.85860  0.29160  0.32840  Biso   1.000  H
  H391     1.0000 0.64140  0.79160  0.17160  Biso   1.000  H
  H392     1.0000 0.14140  0.70840  0.67160  Biso   1.000  H
  H393     1.0000 0.30870  0.14990  0.82780  Biso   1.000  H
  H394     1.0000 0.80870  0.35010  0.32780  Biso   1.000  H
  H395     1.0000 0.69130  0.85010  0.17220  Biso   1.000  H
  H396     1.0000 0.19130  0.64990  0.67220  Biso   1.000  H
  C517     1.0000 0.32445  0.16916  0.77383  Biso   1.000  C
  C518     1.0000 0.82445  0.33084  0.27383  Biso   1.000  C
  C519     1.0000 0.67555  0.83084  0.22617  Biso   1.000  C
  C520     1.0000 0.17555  0.66916  0.72617  Biso   1.000  C
  N33      1.0000 0.32673  0.15192  0.74206  Biso   1.000  N
  N34      1.0000 0.82673  0.34808  0.24206  Biso   1.000  N
  N35      1.0000 0.67327  0.84808  0.25794  Biso   1.000  N
  N36      1.0000 0.17327  0.65192  0.75794  Biso   1.000  N
  C521     1.0000 0.17964  0.20970  0.70251  Biso   1.000  C
  C522     1.0000 0.67964  0.29030  0.20251  Biso   1.000  C
  C523     1.0000 0.82036  0.79030  0.29749  Biso   1.000  C
  C524     1.0000 0.32036  0.70970  0.79749  Biso   1.000  C
  H397     1.0000 0.14080  0.22280  0.68790  Biso   1.000  H
  H398     1.0000 0.64080  0.27720  0.18790  Biso   1.000  H
  H399     1.0000 0.85920  0.77720  0.31210  Biso   1.000  H
  H400     1.0000 0.35920  0.72280  0.81210  Biso   1.000  H
  H401     1.0000 0.19950  0.18230  0.68540  Biso   1.000  H
  H402     1.0000 0.69950  0.31770  0.18540  Biso   1.000  H
  H403     1.0000 0.80050  0.81770  0.31460  Biso   1.000  H
  H404     1.0000 0.30050  0.68230  0.81460  Biso   1.000  H
  H405     1.0000 0.20150  0.25380  0.71150  Biso   1.000  H
  H406     1.0000 0.70150  0.24620  0.21150  Biso   1.000  H
  H407     1.0000 0.79850  0.74620  0.28850  Biso   1.000  H
  H408     1.0000 0.29850  0.75380  0.78850  Biso   1.000  H
  C525     1.0000 0.17518  0.16431  0.73707  Biso   1.000  C
  C526     1.0000 0.67518  0.33569  0.23707  Biso   1.000  C
  C527     1.0000 0.82482  0.83569  0.26293  Biso   1.000  C
  C528     1.0000 0.32482  0.66431  0.76293  Biso   1.000  C
  N37      1.0000 0.17194  0.12916  0.76408  Biso   1.000  N
  N38      1.0000 0.67194  0.37084  0.26408  Biso   1.000  N
  N39      1.0000 0.82806  0.87084  0.23592  Biso   1.000  N
  N40      1.0000 0.32806  0.62916  0.73592  Biso   1.000  N
  C529     1.0000 0.74693  0.01576  0.25961  Biso   1.000  C
  C530     1.0000 0.24693  0.48424  0.75961  Biso   1.000  C
  C531     1.0000 0.25307  0.98424  0.74039  Biso   1.000  C
  C532     1.0000 0.75307  0.51576  0.24039  Biso   1.000  C
  H409     1.0000 0.75110  0.02320  0.23260  Biso   1.000  H
  H410     1.0000 0.25110  0.47680  0.73260  Biso   1.000  H
  H411     1.0000 0.24890  0.97680  0.76740  Biso   1.000  H
  H412     1.0000 0.74890  0.52320  0.26740  Biso   1.000  H
  H413     1.0000 0.71290  0.98560  0.25950  Biso   1.000  H
  H414     1.0000 0.21290  0.51440  0.75950  Biso   1.000  H
  H415     1.0000 0.28710  0.01440  0.74050  Biso   1.000  H
  H416     1.0000 0.78710  0.48560  0.24050  Biso   1.000  H
  H417     1.0000 0.78150  0.99150  0.27480  Biso   1.000  H
  H418     1.0000 0.28150  0.50850  0.77480  Biso   1.000  H
  H419     1.0000 0.21850  0.00850  0.72520  Biso   1.000  H
  H420     1.0000 0.71850  0.49150  0.22520  Biso   1.000  H
  C533     1.0000 0.73975  0.08685  0.27782  Biso   1.000  C
  C534     1.0000 0.23975  0.41315  0.77782  Biso   1.000  C
  C535     1.0000 0.26025  0.91315  0.72218  Biso   1.000  C
  C536     1.0000 0.76025  0.58685  0.22218  Biso   1.000  C
  N41      1.0000 0.73490  0.14244  0.29199  Biso   1.000  N
  N42      1.0000 0.23490  0.35756  0.79199  Biso   1.000  N
  N43      1.0000 0.26510  0.85756  0.70801  Biso   1.000  N
  N44      1.0000 0.76510  0.64244  0.20801  Biso   1.000  N
  C537     1.0000 0.63130  0.09960  0.11120  Biso   1.000  C
  C538     1.0000 0.13130  0.40040  0.61120  Biso   1.000  C
  C539     1.0000 0.36870  0.90040  0.88880  Biso   1.000  C
  C540     1.0000 0.86870  0.59960  0.38880  Biso   1.000  C
  H421     1.0000 0.60960  0.14510  0.10650  Biso   1.000  H
  H422     1.0000 0.10960  0.35490  0.60650  Biso   1.000  H
  H423     1.0000 0.39040  0.85490  0.89350  Biso   1.000  H
  H424     1.0000 0.89040  0.64510  0.39350  Biso   1.000  H
  H425     1.0000 0.60540  0.06050  0.11540  Biso   1.000  H
  H426     1.0000 0.10540  0.43950  0.61540  Biso   1.000  H
  H427     1.0000 0.39460  0.93950  0.88460  Biso   1.000  H
  H428     1.0000 0.89460  0.56050  0.38460  Biso   1.000  H
  H429     1.0000 0.64740  0.08820  0.08840  Biso   1.000  H
  H430     1.0000 0.14740  0.41180  0.58840  Biso   1.000  H
  H431     1.0000 0.35260  0.91180  0.91160  Biso   1.000  H
  H432     1.0000 0.85260  0.58820  0.41160  Biso   1.000  H
  C541     1.0000 0.67889  0.10740  0.14642  Biso   1.000  C
  C542     1.0000 0.17889  0.39260  0.64642  Biso   1.000  C
  C543     1.0000 0.32111  0.89260  0.85358  Biso   1.000  C
  C544     1.0000 0.82111  0.60740  0.35358  Biso   1.000  C
  N45      1.0000 0.71618  0.11425  0.17374  Biso   1.000  N
  N46      1.0000 0.21618  0.38575  0.67374  Biso   1.000  N
  N47      1.0000 0.28382  0.88575  0.82626  Biso   1.000  N
  N48      1.0000 0.78382  0.61425  0.32626  Biso   1.000  N
  C545     1.0000 0.35838  0.15870  0.38486  Biso   1.000  C
  C546     1.0000 0.85838  0.34130  0.88486  Biso   1.000  C
  C547     1.0000 0.64162  0.84130  0.61514  Biso   1.000  C
  C548     1.0000 0.14162  0.65870  0.11514  Biso   1.000  C
  H433     1.0000 0.34210  0.16980  0.40770  Biso   1.000  H
  H434     1.0000 0.84210  0.33020  0.90770  Biso   1.000  H
  H435     1.0000 0.65790  0.83020  0.59230  Biso   1.000  H
  H436     1.0000 0.15790  0.66980  0.09230  Biso   1.000  H
  H437     1.0000 0.38350  0.19850  0.38040  Biso   1.000  H
  H438     1.0000 0.88350  0.30150  0.88040  Biso   1.000  H
  H439     1.0000 0.61650  0.80150  0.61960  Biso   1.000  H
  H440     1.0000 0.11650  0.69850  0.11960  Biso   1.000  H
  H441     1.0000 0.38090  0.11380  0.38970  Biso   1.000  H
  H442     1.0000 0.88090  0.38620  0.88970  Biso   1.000  H
  H443     1.0000 0.61910  0.88620  0.61030  Biso   1.000  H
  H444     1.0000 0.11910  0.61380  0.11030  Biso   1.000  H
  C549     1.0000 0.31069  0.14960  0.34956  Biso   1.000  C
  C550     1.0000 0.81069  0.35040  0.84956  Biso   1.000  C
  C551     1.0000 0.68931  0.85040  0.65044  Biso   1.000  C
  C552     1.0000 0.18931  0.64960  0.15044  Biso   1.000  C
  N49      1.0000 0.27344  0.14080  0.32187  Biso   1.000  N
  N50      1.0000 0.77344  0.35920  0.82187  Biso   1.000  N
  N51      1.0000 0.72656  0.85920  0.67813  Biso   1.000  N
  N52      1.0000 0.22656  0.64080  0.17813  Biso   1.000  N
  C553     1.0000 0.18288  0.94535  0.18585  Biso   1.000  C
  C554     1.0000 0.68288  0.55465  0.68585  Biso   1.000  C
  C555     1.0000 0.81712  0.05465  0.81415  Biso   1.000  C
  C556     1.0000 0.31712  0.44535  0.31415  Biso   1.000  C
  H445     1.0000 0.17530  0.93640  0.21190  Biso   1.000  H
  H446     1.0000 0.67530  0.56360  0.71190  Biso   1.000  H
  H447     1.0000 0.82470  0.06360  0.78810  Biso   1.000  H
  H448     1.0000 0.32470  0.43640  0.28810  Biso   1.000  H
  H449     1.0000 0.19850  0.90130  0.17640  Biso   1.000  H
  H450     1.0000 0.69850  0.59870  0.67640  Biso   1.000  H
  H451     1.0000 0.80150  0.09870  0.82360  Biso   1.000  H
  H452     1.0000 0.30150  0.40130  0.32360  Biso   1.000  H
  H453     1.0000 0.14680  0.95890  0.16760  Biso   1.000  H
  H454     1.0000 0.64680  0.54110  0.66760  Biso   1.000  H
  H455     1.0000 0.85320  0.04110  0.83240  Biso   1.000  H
  H456     1.0000 0.35320  0.45890  0.33240  Biso   1.000  H
  C557     1.0000 0.22525  0.00490  0.18832  Biso   1.000  C
  C558     1.0000 0.72525  0.49510  0.68832  Biso   1.000  C
  C559     1.0000 0.77475  0.99510  0.81168  Biso   1.000  C
  C560     1.0000 0.27475  0.50490  0.31168  Biso   1.000  C
  N53      1.0000 0.25767  0.05261  0.18985  Biso   1.000  N
  N54      1.0000 0.75767  0.44739  0.68985  Biso   1.000  N
  N55      1.0000 0.74233  0.94739  0.81015  Biso   1.000  N
  N56      1.0000 0.24233  0.55261  0.31015  Biso   1.000  N
  C561     1.0000 0.25622  0.24610  0.23444  Biso   1.000  C
  C562     1.0000 0.75622  0.25390  0.73444  Biso   1.000  C
  C563     1.0000 0.74378  0.75390  0.76556  Biso   1.000  C
  C564     1.0000 0.24378  0.74610  0.26556  Biso   1.000  C
  H457     1.0000 0.24040  0.23730  0.20640  Biso   1.000  H
  H458     1.0000 0.74040  0.26270  0.70640  Biso   1.000  H
  H459     1.0000 0.75960  0.76270  0.79360  Biso   1.000  H
  H460     1.0000 0.25960  0.73730  0.29360  Biso   1.000  H
  H461     1.0000 0.26120  0.19980  0.24850  Biso   1.000  H
  H462     1.0000 0.76120  0.30020  0.74850  Biso   1.000  H
  H463     1.0000 0.73880  0.80020  0.75150  Biso   1.000  H
  H464     1.0000 0.23880  0.69980  0.25150  Biso   1.000  H
  H465     1.0000 0.29370  0.27030  0.23780  Biso   1.000  H
  H466     1.0000 0.79370  0.22970  0.73780  Biso   1.000  H
  H467     1.0000 0.70630  0.72970  0.76220  Biso   1.000  H
  H468     1.0000 0.20630  0.77030  0.26220  Biso   1.000  H
  C565     1.0000 0.21611  0.29260  0.25036  Biso   1.000  C
  C566     1.0000 0.71611  0.20740  0.75036  Biso   1.000  C
  C567     1.0000 0.78389  0.70740  0.74964  Biso   1.000  C
  C568     1.0000 0.28389  0.79260  0.24964  Biso   1.000  C
  N57      1.0000 0.18419  0.33090  0.26307  Biso   1.000  N
  N58      1.0000 0.68419  0.16910  0.76307  Biso   1.000  N
  N59      1.0000 0.81581  0.66910  0.73693  Biso   1.000  N
  N60      1.0000 0.31581  0.83090  0.23693  Biso   1.000  N
  C569     1.0000 0.17453  0.46020  0.19063  Biso   1.000  C
  C570     1.0000 0.67453  0.03980  0.69063  Biso   1.000  C
  C571     1.0000 0.82547  0.53980  0.80937  Biso   1.000  C
  C572     1.0000 0.32547  0.96020  0.30937  Biso   1.000  C
  H469     1.0000 0.15790  0.44230  0.16410  Biso   1.000  H
  H470     1.0000 0.65790  0.05770  0.66410  Biso   1.000  H
  H471     1.0000 0.84210  0.55770  0.83590  Biso   1.000  H
  H472     1.0000 0.34210  0.94230  0.33590  Biso   1.000  H
  H473     1.0000 0.16800  0.51260  0.19160  Biso   1.000  H
  H474     1.0000 0.66800  0.98740  0.69160  Biso   1.000  H
  H475     1.0000 0.83200  0.48740  0.80840  Biso   1.000  H
  H476     1.0000 0.33200  0.01260  0.30840  Biso   1.000  H
  H477     1.0000 0.15600  0.43570  0.20950  Biso   1.000  H
  H478     1.0000 0.65600  0.06430  0.70950  Biso   1.000  H
  H479     1.0000 0.84400  0.56430  0.79050  Biso   1.000  H
  H480     1.0000 0.34400  0.93570  0.29050  Biso   1.000  H
  C573     1.0000 0.23758  0.44520  0.20064  Biso   1.000  C
  C574     1.0000 0.73758  0.05480  0.70064  Biso   1.000  C
  C575     1.0000 0.76242  0.55480  0.79936  Biso   1.000  C
  C576     1.0000 0.26242  0.94520  0.29936  Biso   1.000  C
  N61      1.0000 0.28724  0.43060  0.20881  Biso   1.000  N
  N62      1.0000 0.78724  0.06940  0.70881  Biso   1.000  N
  N63      1.0000 0.71276  0.56940  0.79119  Biso   1.000  N
  N64      1.0000 0.21276  0.93060  0.29119  Biso   1.000  N
