data_image0
_cell_length_a       25.04
_cell_length_b       25.16
_cell_length_c       14.183
_cell_angle_alpha    90
_cell_angle_beta     114.61
_cell_angle_gamma    90

_symmetry_space_group_name_H-M    "P 1"
_symmetry_int_tables_number       1

loop_
  _symmetry_equiv_pos_as_xyz
  'x, y, z'

loop_
  _atom_site_label
  _atom_site_occupancy
  _atom_site_fract_x
  _atom_site_fract_y
  _atom_site_fract_z
  _atom_site_thermal_displace_type
  _atom_site_B_iso_or_equiv
  _atom_site_type_symbol
  Cu1      1.0000 0.82084  0.80648  0.89183  Biso   1.000  Cu
  Cu2      1.0000 0.17916  0.80648  0.60817  Biso   1.000  Cu
  Cu3      1.0000 0.32084  0.30648  0.89183  Biso   1.000  Cu
  Cu4      1.0000 0.67916  0.30648  0.60817  Biso   1.000  Cu
  Cu5      1.0000 0.17916  0.19352  0.10817  Biso   1.000  Cu
  Cu6      1.0000 0.82084  0.19352  0.39183  Biso   1.000  Cu
  Cu7      1.0000 0.67916  0.69352  0.10817  Biso   1.000  Cu
  Cu8      1.0000 0.32084  0.69352  0.39183  Biso   1.000  Cu
  Cu9      1.0000 0.95426  0.94704  0.88600  Biso   1.000  Cu
  Cu10     1.0000 0.04574  0.94704  0.61400  Biso   1.000  Cu
  Cu11     1.0000 0.45426  0.44704  0.88600  Biso   1.000  Cu
  Cu12     1.0000 0.54574  0.44704  0.61400  Biso   1.000  Cu
  Cu13     1.0000 0.04574  0.05296  0.11400  Biso   1.000  Cu
  Cu14     1.0000 0.95426  0.05296  0.38600  Biso   1.000  Cu
  Cu15     1.0000 0.54574  0.55296  0.11400  Biso   1.000  Cu
  Cu16     1.0000 0.45426  0.55296  0.38600  Biso   1.000  Cu
  Cu17     1.0000 0.74230  0.07275  0.88599  Biso   1.000  Cu
  Cu18     1.0000 0.25770  0.07275  0.61401  Biso   1.000  Cu
  Cu19     1.0000 0.24230  0.57275  0.88599  Biso   1.000  Cu
  Cu20     1.0000 0.75770  0.57275  0.61401  Biso   1.000  Cu
  Cu21     1.0000 0.25770  0.92725  0.11401  Biso   1.000  Cu
  Cu22     1.0000 0.74230  0.92725  0.38599  Biso   1.000  Cu
  Cu23     1.0000 0.75770  0.42725  0.11401  Biso   1.000  Cu
  Cu24     1.0000 0.24230  0.42725  0.38599  Biso   1.000  Cu
  Cu25     1.0000 0.89388  0.43103  0.62211  Biso   1.000  Cu
  Cu26     1.0000 0.10612  0.43103  0.87789  Biso   1.000  Cu
  Cu27     1.0000 0.39388  0.93103  0.62211  Biso   1.000  Cu
  Cu28     1.0000 0.60612  0.93103  0.87789  Biso   1.000  Cu
  Cu29     1.0000 0.10612  0.56897  0.37789  Biso   1.000  Cu
  Cu30     1.0000 0.89388  0.56897  0.12211  Biso   1.000  Cu
  Cu31     1.0000 0.60612  0.06897  0.37789  Biso   1.000  Cu
  Cu32     1.0000 0.39388  0.06897  0.12211  Biso   1.000  Cu
  Cu33     1.0000 0.08574  0.40204  0.61125  Biso   1.000  Cu
  Cu34     1.0000 0.91426  0.40204  0.88875  Biso   1.000  Cu
  Cu35     1.0000 0.58574  0.90204  0.61125  Biso   1.000  Cu
  Cu36     1.0000 0.41426  0.90204  0.88875  Biso   1.000  Cu
  Cu37     1.0000 0.91426  0.59796  0.38875  Biso   1.000  Cu
  Cu38     1.0000 0.08574  0.59796  0.11125  Biso   1.000  Cu
  Cu39     1.0000 0.41426  0.09796  0.38875  Biso   1.000  Cu
  Cu40     1.0000 0.58574  0.09796  0.11125  Biso   1.000  Cu
  Cu41     1.0000 0.22587  0.26642  0.61375  Biso   1.000  Cu
  Cu42     1.0000 0.77413  0.26642  0.88625  Biso   1.000  Cu
  Cu43     1.0000 0.72587  0.76642  0.61375  Biso   1.000  Cu
  Cu44     1.0000 0.27413  0.76642  0.88625  Biso   1.000  Cu
  Cu45     1.0000 0.77413  0.73358  0.38625  Biso   1.000  Cu
  Cu46     1.0000 0.22587  0.73358  0.11375  Biso   1.000  Cu
  Cu47     1.0000 0.27413  0.23358  0.38625  Biso   1.000  Cu
  Cu48     1.0000 0.72587  0.23358  0.11375  Biso   1.000  Cu
  Cu49     1.0000 0.35244  0.47815  0.61782  Biso   1.000  Cu
  Cu50     1.0000 0.64756  0.47815  0.88218  Biso   1.000  Cu
  Cu51     1.0000 0.85244  0.97815  0.61782  Biso   1.000  Cu
  Cu52     1.0000 0.14756  0.97815  0.88218  Biso   1.000  Cu
  Cu53     1.0000 0.64756  0.52185  0.38218  Biso   1.000  Cu
  Cu54     1.0000 0.35244  0.52185  0.11782  Biso   1.000  Cu
  Cu55     1.0000 0.14756  0.02185  0.38218  Biso   1.000  Cu
  Cu56     1.0000 0.85244  0.02185  0.11782  Biso   1.000  Cu
  Cu57     1.0000 0.21093  0.61327  0.61543  Biso   1.000  Cu
  Cu58     1.0000 0.78907  0.61327  0.88457  Biso   1.000  Cu
  Cu59     1.0000 0.71093  0.11327  0.61543  Biso   1.000  Cu
  Cu60     1.0000 0.28907  0.11327  0.88457  Biso   1.000  Cu
  Cu61     1.0000 0.78907  0.38673  0.38457  Biso   1.000  Cu
  Cu62     1.0000 0.21093  0.38673  0.11543  Biso   1.000  Cu
  Cu63     1.0000 0.28907  0.88673  0.38457  Biso   1.000  Cu
  Cu64     1.0000 0.71093  0.88673  0.11543  Biso   1.000  Cu
  C1       1.0000 0.47610  0.26310  0.82190  Biso   1.000  C
  C2       1.0000 0.52390  0.26310  0.67810  Biso   1.000  C
  C3       1.0000 0.97610  0.76310  0.82190  Biso   1.000  C
  C4       1.0000 0.02390  0.76310  0.67810  Biso   1.000  C
  C5       1.0000 0.52390  0.73690  0.17810  Biso   1.000  C
  C6       1.0000 0.47610  0.73690  0.32190  Biso   1.000  C
  C7       1.0000 0.02390  0.23690  0.17810  Biso   1.000  C
  C8       1.0000 0.97610  0.23690  0.32190  Biso   1.000  C
  H1       1.0000 0.46010  0.26490  0.87040  Biso   1.000  H
  H2       1.0000 0.53990  0.26490  0.62960  Biso   1.000  H
  H3       1.0000 0.96010  0.76490  0.87040  Biso   1.000  H
  H4       1.0000 0.03990  0.76490  0.62960  Biso   1.000  H
  H5       1.0000 0.53990  0.73510  0.12960  Biso   1.000  H
  H6       1.0000 0.46010  0.73510  0.37040  Biso   1.000  H
  H7       1.0000 0.03990  0.23510  0.12960  Biso   1.000  H
  H8       1.0000 0.96010  0.23510  0.37040  Biso   1.000  H
  C9       1.0000 0.84350  0.00440  0.87520  Biso   1.000  C
  C10      1.0000 0.15650  0.00440  0.62480  Biso   1.000  C
  C11      1.0000 0.34350  0.50440  0.87520  Biso   1.000  C
  C12      1.0000 0.65650  0.50440  0.62480  Biso   1.000  C
  C13      1.0000 0.15650  0.99560  0.12480  Biso   1.000  C
  C14      1.0000 0.84350  0.99560  0.37520  Biso   1.000  C
  C15      1.0000 0.65650  0.49560  0.12480  Biso   1.000  C
  C16      1.0000 0.34350  0.49560  0.37520  Biso   1.000  C
  H9       1.0000 0.82760  0.97230  0.88370  Biso   1.000  H
  H10      1.0000 0.17240  0.97230  0.61630  Biso   1.000  H
  H11      1.0000 0.32760  0.47230  0.88370  Biso   1.000  H
  H12      1.0000 0.67240  0.47230  0.61630  Biso   1.000  H
  H13      1.0000 0.17240  0.02770  0.11630  Biso   1.000  H
  H14      1.0000 0.82760  0.02770  0.38370  Biso   1.000  H
  H15      1.0000 0.67240  0.52770  0.11630  Biso   1.000  H
  H16      1.0000 0.32760  0.52770  0.38370  Biso   1.000  H
  C17      1.0000 0.91160  0.88960  0.90860  Biso   1.000  C
  C18      1.0000 0.08840  0.88960  0.59140  Biso   1.000  C
  C19      1.0000 0.41160  0.38960  0.90860  Biso   1.000  C
  C20      1.0000 0.58840  0.38960  0.59140  Biso   1.000  C
  C21      1.0000 0.08840  0.11040  0.09140  Biso   1.000  C
  C22      1.0000 0.91160  0.11040  0.40860  Biso   1.000  C
  C23      1.0000 0.58840  0.61040  0.09140  Biso   1.000  C
  C24      1.0000 0.41160  0.61040  0.40860  Biso   1.000  C
  C25      1.0000 0.85390  0.08500  0.85870  Biso   1.000  C
  C26      1.0000 0.14610  0.08500  0.64130  Biso   1.000  C
  C27      1.0000 0.35390  0.58500  0.85870  Biso   1.000  C
  C28      1.0000 0.64610  0.58500  0.64130  Biso   1.000  C
  C29      1.0000 0.14610  0.91500  0.14130  Biso   1.000  C
  C30      1.0000 0.85390  0.91500  0.35870  Biso   1.000  C
  C31      1.0000 0.64610  0.41500  0.14130  Biso   1.000  C
  C32      1.0000 0.35390  0.41500  0.35870  Biso   1.000  C
  H17      1.0000 0.84830  0.12160  0.85240  Biso   1.000  H
  H18      1.0000 0.15170  0.12160  0.64760  Biso   1.000  H
  H19      1.0000 0.34830  0.62160  0.85240  Biso   1.000  H
  H20      1.0000 0.65170  0.62160  0.64760  Biso   1.000  H
  H21      1.0000 0.15170  0.87840  0.14760  Biso   1.000  H
  H22      1.0000 0.84830  0.87840  0.35240  Biso   1.000  H
  H23      1.0000 0.65170  0.37840  0.14760  Biso   1.000  H
  H24      1.0000 0.34830  0.37840  0.35240  Biso   1.000  H
  C33      1.0000 0.94910  0.07960  0.83530  Biso   1.000  C
  C34      1.0000 0.05090  0.07960  0.66470  Biso   1.000  C
  C35      1.0000 0.44910  0.57960  0.83530  Biso   1.000  C
  C36      1.0000 0.55090  0.57960  0.66470  Biso   1.000  C
  C37      1.0000 0.05090  0.92040  0.16470  Biso   1.000  C
  C38      1.0000 0.94910  0.92040  0.33530  Biso   1.000  C
  C39      1.0000 0.55090  0.42040  0.16470  Biso   1.000  C
  C40      1.0000 0.44910  0.42040  0.33530  Biso   1.000  C
  H25      1.0000 0.95470  0.05780  0.78380  Biso   1.000  H
  H26      1.0000 0.04530  0.05780  0.71620  Biso   1.000  H
  H27      1.0000 0.45470  0.55780  0.78380  Biso   1.000  H
  H28      1.0000 0.54530  0.55780  0.71620  Biso   1.000  H
  H29      1.0000 0.04530  0.94220  0.21620  Biso   1.000  H
  H30      1.0000 0.95470  0.94220  0.28380  Biso   1.000  H
  H31      1.0000 0.54530  0.44220  0.21620  Biso   1.000  H
  H32      1.0000 0.45470  0.44220  0.28380  Biso   1.000  H
  H33      1.0000 0.98430  0.07740  0.89950  Biso   1.000  H
  H34      1.0000 0.01570  0.07740  0.60050  Biso   1.000  H
  H35      1.0000 0.48430  0.57740  0.89950  Biso   1.000  H
  H36      1.0000 0.51570  0.57740  0.60050  Biso   1.000  H
  H37      1.0000 0.01570  0.92260  0.10050  Biso   1.000  H
  H38      1.0000 0.98430  0.92260  0.39950  Biso   1.000  H
  H39      1.0000 0.51570  0.42260  0.10050  Biso   1.000  H
  H40      1.0000 0.48430  0.42260  0.39950  Biso   1.000  H
  C41      1.0000 0.93870  0.13710  0.79830  Biso   1.000  C
  C42      1.0000 0.06130  0.13710  0.70170  Biso   1.000  C
  C43      1.0000 0.43870  0.63710  0.79830  Biso   1.000  C
  C44      1.0000 0.56130  0.63710  0.70170  Biso   1.000  C
  C45      1.0000 0.06130  0.86290  0.20170  Biso   1.000  C
  C46      1.0000 0.93870  0.86290  0.29830  Biso   1.000  C
  C47      1.0000 0.56130  0.36290  0.20170  Biso   1.000  C
  C48      1.0000 0.43870  0.36290  0.29830  Biso   1.000  C
  C49      1.0000 0.91350  0.14800  0.69330  Biso   1.000  C
  C50      1.0000 0.08650  0.14800  0.80670  Biso   1.000  C
  C51      1.0000 0.41350  0.64800  0.69330  Biso   1.000  C
  C52      1.0000 0.58650  0.64800  0.80670  Biso   1.000  C
  C53      1.0000 0.08650  0.85200  0.30670  Biso   1.000  C
  C54      1.0000 0.91350  0.85200  0.19330  Biso   1.000  C
  C55      1.0000 0.58650  0.35200  0.30670  Biso   1.000  C
  C56      1.0000 0.41350  0.35200  0.19330  Biso   1.000  C
  H41      1.0000 0.90030  0.12070  0.64480  Biso   1.000  H
  H42      1.0000 0.09970  0.12070  0.85520  Biso   1.000  H
  H43      1.0000 0.40030  0.62070  0.64480  Biso   1.000  H
  H44      1.0000 0.59970  0.62070  0.85520  Biso   1.000  H
  H45      1.0000 0.09970  0.87930  0.35520  Biso   1.000  H
  H46      1.0000 0.90030  0.87930  0.14480  Biso   1.000  H
  H47      1.0000 0.59970  0.37930  0.35520  Biso   1.000  H
  H48      1.0000 0.40030  0.37930  0.14480  Biso   1.000  H
  C57      1.0000 0.90840  0.19930  0.66250  Biso   1.000  C
  C58      1.0000 0.09160  0.19930  0.83750  Biso   1.000  C
  C59      1.0000 0.40840  0.69930  0.66250  Biso   1.000  C
  C60      1.0000 0.59160  0.69930  0.83750  Biso   1.000  C
  C61      1.0000 0.09160  0.80070  0.33750  Biso   1.000  C
  C62      1.0000 0.90840  0.80070  0.16250  Biso   1.000  C
  C63      1.0000 0.59160  0.30070  0.33750  Biso   1.000  C
  C64      1.0000 0.40840  0.30070  0.16250  Biso   1.000  C
  H49      1.0000 0.89520  0.20620  0.59200  Biso   1.000  H
  H50      1.0000 0.10480  0.20620  0.90800  Biso   1.000  H
  H51      1.0000 0.39520  0.70620  0.59200  Biso   1.000  H
  H52      1.0000 0.60480  0.70620  0.90800  Biso   1.000  H
  H53      1.0000 0.10480  0.79380  0.40800  Biso   1.000  H
  H54      1.0000 0.89520  0.79380  0.09200  Biso   1.000  H
  H55      1.0000 0.60480  0.29380  0.40800  Biso   1.000  H
  H56      1.0000 0.39520  0.29380  0.09200  Biso   1.000  H
  C65      1.0000 0.92180  0.24170  0.72930  Biso   1.000  C
  C66      1.0000 0.07820  0.24170  0.77070  Biso   1.000  C
  C67      1.0000 0.42180  0.74170  0.72930  Biso   1.000  C
  C68      1.0000 0.57820  0.74170  0.77070  Biso   1.000  C
  C69      1.0000 0.07820  0.75830  0.27070  Biso   1.000  C
  C70      1.0000 0.92180  0.75830  0.22930  Biso   1.000  C
  C71      1.0000 0.57820  0.25830  0.27070  Biso   1.000  C
  C72      1.0000 0.42180  0.25830  0.22930  Biso   1.000  C
  C73      1.0000 0.94660  0.23090  0.83710  Biso   1.000  C
  C74      1.0000 0.05340  0.23090  0.66290  Biso   1.000  C
  C75      1.0000 0.44660  0.73090  0.83710  Biso   1.000  C
  C76      1.0000 0.55340  0.73090  0.66290  Biso   1.000  C
  C77      1.0000 0.05340  0.76910  0.16290  Biso   1.000  C
  C78      1.0000 0.94660  0.76910  0.33710  Biso   1.000  C
  C79      1.0000 0.55340  0.26910  0.16290  Biso   1.000  C
  C80      1.0000 0.44660  0.26910  0.33710  Biso   1.000  C
  H57      1.0000 0.95720  0.25850  0.88520  Biso   1.000  H
  H58      1.0000 0.04280  0.25850  0.61480  Biso   1.000  H
  H59      1.0000 0.45720  0.75850  0.88520  Biso   1.000  H
  H60      1.0000 0.54280  0.75850  0.61480  Biso   1.000  H
  H61      1.0000 0.04280  0.74150  0.11480  Biso   1.000  H
  H62      1.0000 0.95720  0.74150  0.38520  Biso   1.000  H
  H63      1.0000 0.54280  0.24150  0.11480  Biso   1.000  H
  H64      1.0000 0.45720  0.24150  0.38520  Biso   1.000  H
  C81      1.0000 0.95490  0.17860  0.86920  Biso   1.000  C
  C82      1.0000 0.04510  0.17860  0.63080  Biso   1.000  C
  C83      1.0000 0.45490  0.67860  0.86920  Biso   1.000  C
  C84      1.0000 0.54510  0.67860  0.63080  Biso   1.000  C
  C85      1.0000 0.04510  0.82140  0.13080  Biso   1.000  C
  C86      1.0000 0.95490  0.82140  0.36920  Biso   1.000  C
  C87      1.0000 0.54510  0.32140  0.13080  Biso   1.000  C
  C88      1.0000 0.45490  0.32140  0.36920  Biso   1.000  C
  H65      1.0000 0.97170  0.17100  0.93980  Biso   1.000  H
  H66      1.0000 0.02830  0.17100  0.56020  Biso   1.000  H
  H67      1.0000 0.47170  0.67100  0.93980  Biso   1.000  H
  H68      1.0000 0.52830  0.67100  0.56020  Biso   1.000  H
  H69      1.0000 0.02830  0.82900  0.06020  Biso   1.000  H
  H70      1.0000 0.97170  0.82900  0.43980  Biso   1.000  H
  H71      1.0000 0.52830  0.32900  0.06020  Biso   1.000  H
  H72      1.0000 0.47170  0.32900  0.43980  Biso   1.000  H
  C89      1.0000 0.91440  0.29810  0.69170  Biso   1.000  C
  C90      1.0000 0.08560  0.29810  0.80830  Biso   1.000  C
  C91      1.0000 0.41440  0.79810  0.69170  Biso   1.000  C
  C92      1.0000 0.58560  0.79810  0.80830  Biso   1.000  C
  C93      1.0000 0.08560  0.70190  0.30830  Biso   1.000  C
  C94      1.0000 0.91440  0.70190  0.19170  Biso   1.000  C
  C95      1.0000 0.58560  0.20190  0.30830  Biso   1.000  C
  C96      1.0000 0.41440  0.20190  0.19170  Biso   1.000  C
  H73      1.0000 0.94210  0.32060  0.74550  Biso   1.000  H
  H74      1.0000 0.05790  0.32060  0.75450  Biso   1.000  H
  H75      1.0000 0.44210  0.82060  0.74550  Biso   1.000  H
  H76      1.0000 0.55790  0.82060  0.75450  Biso   1.000  H
  H77      1.0000 0.05790  0.67940  0.25450  Biso   1.000  H
  H78      1.0000 0.94210  0.67940  0.24550  Biso   1.000  H
  H79      1.0000 0.55790  0.17940  0.25450  Biso   1.000  H
  H80      1.0000 0.44210  0.17940  0.24550  Biso   1.000  H
  H81      1.0000 0.92330  0.30040  0.63150  Biso   1.000  H
  H82      1.0000 0.07670  0.30040  0.86850  Biso   1.000  H
  H83      1.0000 0.42330  0.80040  0.63150  Biso   1.000  H
  H84      1.0000 0.57670  0.80040  0.86850  Biso   1.000  H
  H85      1.0000 0.07670  0.69960  0.36850  Biso   1.000  H
  H86      1.0000 0.92330  0.69960  0.13150  Biso   1.000  H
  H87      1.0000 0.57670  0.19960  0.36850  Biso   1.000  H
  H88      1.0000 0.42330  0.19960  0.13150  Biso   1.000  H
  C97      1.0000 0.80610  0.29200  0.65280  Biso   1.000  C
  C98      1.0000 0.19390  0.29200  0.84720  Biso   1.000  C
  C99      1.0000 0.30610  0.79200  0.65280  Biso   1.000  C
  C100     1.0000 0.69390  0.79200  0.84720  Biso   1.000  C
  C101     1.0000 0.19390  0.70800  0.34720  Biso   1.000  C
  C102     1.0000 0.80610  0.70800  0.15280  Biso   1.000  C
  C103     1.0000 0.69390  0.20800  0.34720  Biso   1.000  C
  C104     1.0000 0.30610  0.20800  0.15280  Biso   1.000  C
  H89      1.0000 0.80340  0.25560  0.66110  Biso   1.000  H
  H90      1.0000 0.19660  0.25560  0.83890  Biso   1.000  H
  H91      1.0000 0.30340  0.75560  0.66110  Biso   1.000  H
  H92      1.0000 0.69660  0.75560  0.83890  Biso   1.000  H
  H93      1.0000 0.19660  0.74440  0.33890  Biso   1.000  H
  H94      1.0000 0.80340  0.74440  0.16110  Biso   1.000  H
  H95      1.0000 0.69660  0.24440  0.33890  Biso   1.000  H
  H96      1.0000 0.30340  0.24440  0.16110  Biso   1.000  H
  C105     1.0000 0.75000  0.14830  0.88560  Biso   1.000  C
  C106     1.0000 0.25000  0.14830  0.61440  Biso   1.000  C
  C107     1.0000 0.25000  0.64830  0.88560  Biso   1.000  C
  C108     1.0000 0.75000  0.64830  0.61440  Biso   1.000  C
  C109     1.0000 0.25000  0.85170  0.11440  Biso   1.000  C
  C110     1.0000 0.75000  0.85170  0.38560  Biso   1.000  C
  C111     1.0000 0.75000  0.35170  0.11440  Biso   1.000  C
  C112     1.0000 0.25000  0.35170  0.38560  Biso   1.000  C
  C113     1.0000 0.84410  0.48880  0.61430  Biso   1.000  C
  C114     1.0000 0.15590  0.48880  0.88570  Biso   1.000  C
  C115     1.0000 0.34410  0.98880  0.61430  Biso   1.000  C
  C116     1.0000 0.65590  0.98880  0.88570  Biso   1.000  C
  C117     1.0000 0.15590  0.51120  0.38570  Biso   1.000  C
  C118     1.0000 0.84410  0.51120  0.11430  Biso   1.000  C
  C119     1.0000 0.65590  0.01120  0.38570  Biso   1.000  C
  C120     1.0000 0.34410  0.01120  0.11430  Biso   1.000  C
  C121     1.0000 0.01020  0.40510  0.61080  Biso   1.000  C
  C122     1.0000 0.98980  0.40510  0.88920  Biso   1.000  C
  C123     1.0000 0.51020  0.90510  0.61080  Biso   1.000  C
  C124     1.0000 0.48980  0.90510  0.88920  Biso   1.000  C
  C125     1.0000 0.98980  0.59490  0.38920  Biso   1.000  C
  C126     1.0000 0.01020  0.59490  0.11080  Biso   1.000  C
  C127     1.0000 0.48980  0.09490  0.38920  Biso   1.000  C
  C128     1.0000 0.51020  0.09490  0.11080  Biso   1.000  C
  C129     1.0000 0.16490  0.31440  0.59550  Biso   1.000  C
  C130     1.0000 0.83510  0.31440  0.90450  Biso   1.000  C
  C131     1.0000 0.66490  0.81440  0.59550  Biso   1.000  C
  C132     1.0000 0.33510  0.81440  0.90450  Biso   1.000  C
  C133     1.0000 0.83510  0.68560  0.40450  Biso   1.000  C
  C134     1.0000 0.16490  0.68560  0.09550  Biso   1.000  C
  C135     1.0000 0.33510  0.18560  0.40450  Biso   1.000  C
  C136     1.0000 0.66490  0.18560  0.09550  Biso   1.000  C
  C137     1.0000 0.37390  0.26200  0.67900  Biso   1.000  C
  C138     1.0000 0.62610  0.26200  0.82100  Biso   1.000  C
  C139     1.0000 0.87390  0.76200  0.67900  Biso   1.000  C
  C140     1.0000 0.12610  0.76200  0.82100  Biso   1.000  C
  C141     1.0000 0.62610  0.73800  0.32100  Biso   1.000  C
  C142     1.0000 0.37390  0.73800  0.17900  Biso   1.000  C
  C143     1.0000 0.12610  0.23800  0.32100  Biso   1.000  C
  C144     1.0000 0.87390  0.23800  0.17900  Biso   1.000  C
  H97      1.0000 0.35610  0.24190  0.61500  Biso   1.000  H
  H98      1.0000 0.64390  0.24190  0.88500  Biso   1.000  H
  H99      1.0000 0.85610  0.74190  0.61500  Biso   1.000  H
  H100     1.0000 0.14390  0.74190  0.88500  Biso   1.000  H
  H101     1.0000 0.64390  0.75810  0.38500  Biso   1.000  H
  H102     1.0000 0.35610  0.75810  0.11500  Biso   1.000  H
  H103     1.0000 0.14390  0.25810  0.38500  Biso   1.000  H
  H104     1.0000 0.85610  0.25810  0.11500  Biso   1.000  H
  H105     1.0000 0.36420  0.24440  0.73060  Biso   1.000  H
  H106     1.0000 0.63580  0.24440  0.76940  Biso   1.000  H
  H107     1.0000 0.86420  0.74440  0.73060  Biso   1.000  H
  H108     1.0000 0.13580  0.74440  0.76940  Biso   1.000  H
  H109     1.0000 0.63580  0.75560  0.26940  Biso   1.000  H
  H110     1.0000 0.36420  0.75560  0.23060  Biso   1.000  H
  H111     1.0000 0.13580  0.25560  0.26940  Biso   1.000  H
  H112     1.0000 0.86420  0.25560  0.23060  Biso   1.000  H
  C145     1.0000 0.44010  0.26180  0.71500  Biso   1.000  C
  C146     1.0000 0.55990  0.26180  0.78500  Biso   1.000  C
  C147     1.0000 0.94010  0.76180  0.71500  Biso   1.000  C
  C148     1.0000 0.05990  0.76180  0.78500  Biso   1.000  C
  C149     1.0000 0.55990  0.73820  0.28500  Biso   1.000  C
  C150     1.0000 0.44010  0.73820  0.21500  Biso   1.000  C
  C151     1.0000 0.05990  0.23820  0.28500  Biso   1.000  C
  C152     1.0000 0.94010  0.23820  0.21500  Biso   1.000  C
  C153     1.0000 0.46390  0.26170  0.64770  Biso   1.000  C
  C154     1.0000 0.53610  0.26170  0.85230  Biso   1.000  C
  C155     1.0000 0.96390  0.76170  0.64770  Biso   1.000  C
  C156     1.0000 0.03610  0.76170  0.85230  Biso   1.000  C
  C157     1.0000 0.53610  0.73830  0.35230  Biso   1.000  C
  C158     1.0000 0.46390  0.73830  0.14770  Biso   1.000  C
  C159     1.0000 0.03610  0.23830  0.35230  Biso   1.000  C
  C160     1.0000 0.96390  0.23830  0.14770  Biso   1.000  C
  H113     1.0000 0.43930  0.26050  0.57730  Biso   1.000  H
  H114     1.0000 0.56070  0.26050  0.92270  Biso   1.000  H
  H115     1.0000 0.93930  0.76050  0.57730  Biso   1.000  H
  H116     1.0000 0.06070  0.76050  0.92270  Biso   1.000  H
  H117     1.0000 0.56070  0.73950  0.42270  Biso   1.000  H
  H118     1.0000 0.43930  0.73950  0.07730  Biso   1.000  H
  H119     1.0000 0.06070  0.23950  0.42270  Biso   1.000  H
  H120     1.0000 0.93930  0.23950  0.07730  Biso   1.000  H
  C161     1.0000 0.37310  0.36100  0.65450  Biso   1.000  C
  C162     1.0000 0.62690  0.36100  0.84550  Biso   1.000  C
  C163     1.0000 0.87310  0.86100  0.65450  Biso   1.000  C
  C164     1.0000 0.12690  0.86100  0.84550  Biso   1.000  C
  C165     1.0000 0.62690  0.63900  0.34550  Biso   1.000  C
  C166     1.0000 0.37310  0.63900  0.15450  Biso   1.000  C
  C167     1.0000 0.12690  0.13900  0.34550  Biso   1.000  C
  C168     1.0000 0.87310  0.13900  0.15450  Biso   1.000  C
  H121     1.0000 0.41140  0.36480  0.66110  Biso   1.000  H
  H122     1.0000 0.58860  0.36480  0.83890  Biso   1.000  H
  H123     1.0000 0.91140  0.86480  0.66110  Biso   1.000  H
  H124     1.0000 0.08860  0.86480  0.83890  Biso   1.000  H
  H125     1.0000 0.58860  0.63520  0.33890  Biso   1.000  H
  H126     1.0000 0.41140  0.63520  0.16110  Biso   1.000  H
  H127     1.0000 0.08860  0.13520  0.33890  Biso   1.000  H
  H128     1.0000 0.91140  0.13520  0.16110  Biso   1.000  H
  C169     1.0000 0.28670  0.37600  0.63480  Biso   1.000  C
  C170     1.0000 0.71330  0.37600  0.86520  Biso   1.000  C
  C171     1.0000 0.78670  0.87600  0.63480  Biso   1.000  C
  C172     1.0000 0.21330  0.87600  0.86520  Biso   1.000  C
  C173     1.0000 0.71330  0.62400  0.36520  Biso   1.000  C
  C174     1.0000 0.28670  0.62400  0.13480  Biso   1.000  C
  C175     1.0000 0.21330  0.12400  0.36520  Biso   1.000  C
  C176     1.0000 0.78670  0.12400  0.13480  Biso   1.000  C
  H129     1.0000 0.25220  0.39380  0.62500  Biso   1.000  H
  H130     1.0000 0.74780  0.39380  0.87500  Biso   1.000  H
  H131     1.0000 0.75220  0.89380  0.62500  Biso   1.000  H
  H132     1.0000 0.24780  0.89380  0.87500  Biso   1.000  H
  H133     1.0000 0.74780  0.60620  0.37500  Biso   1.000  H
  H134     1.0000 0.25220  0.60620  0.12500  Biso   1.000  H
  H135     1.0000 0.24780  0.10620  0.37500  Biso   1.000  H
  H136     1.0000 0.75220  0.10620  0.12500  Biso   1.000  H
  C177     1.0000 0.42640  0.47050  0.61700  Biso   1.000  C
  C178     1.0000 0.57360  0.47050  0.88300  Biso   1.000  C
  C179     1.0000 0.92640  0.97050  0.61700  Biso   1.000  C
  C180     1.0000 0.07360  0.97050  0.88300  Biso   1.000  C
  C181     1.0000 0.57360  0.52950  0.38300  Biso   1.000  C
  C182     1.0000 0.42640  0.52950  0.11700  Biso   1.000  C
  C183     1.0000 0.07360  0.02950  0.38300  Biso   1.000  C
  C184     1.0000 0.92640  0.02950  0.11700  Biso   1.000  C
  C185     1.0000 0.26850  0.56710  0.61360  Biso   1.000  C
  C186     1.0000 0.73150  0.56710  0.88640  Biso   1.000  C
  C187     1.0000 0.76850  0.06710  0.61360  Biso   1.000  C
  C188     1.0000 0.23150  0.06710  0.88640  Biso   1.000  C
  C189     1.0000 0.73150  0.43290  0.38640  Biso   1.000  C
  C190     1.0000 0.26850  0.43290  0.11360  Biso   1.000  C
  C191     1.0000 0.23150  0.93290  0.38640  Biso   1.000  C
  C192     1.0000 0.76850  0.93290  0.11360  Biso   1.000  C
  C193     1.0000 0.09180  0.61740  0.67700  Biso   1.000  C
  C194     1.0000 0.90820  0.61740  0.82300  Biso   1.000  C
  C195     1.0000 0.59180  0.11740  0.67700  Biso   1.000  C
  C196     1.0000 0.40820  0.11740  0.82300  Biso   1.000  C
  C197     1.0000 0.90820  0.38260  0.32300  Biso   1.000  C
  C198     1.0000 0.09180  0.38260  0.17700  Biso   1.000  C
  C199     1.0000 0.40820  0.88260  0.32300  Biso   1.000  C
  C200     1.0000 0.59180  0.88260  0.17700  Biso   1.000  C
  H137     1.0000 0.08000  0.63980  0.61600  Biso   1.000  H
  H138     1.0000 0.92000  0.63980  0.88400  Biso   1.000  H
  H139     1.0000 0.58000  0.13980  0.61600  Biso   1.000  H
  H140     1.0000 0.42000  0.13980  0.88400  Biso   1.000  H
  H141     1.0000 0.92000  0.36020  0.38400  Biso   1.000  H
  H142     1.0000 0.08000  0.36020  0.11600  Biso   1.000  H
  H143     1.0000 0.42000  0.86020  0.38400  Biso   1.000  H
  H144     1.0000 0.58000  0.86020  0.11600  Biso   1.000  H
  H145     1.0000 0.12670  0.63280  0.73070  Biso   1.000  H
  H146     1.0000 0.87330  0.63280  0.76930  Biso   1.000  H
  H147     1.0000 0.62670  0.13280  0.73070  Biso   1.000  H
  H148     1.0000 0.37330  0.13280  0.76930  Biso   1.000  H
  H149     1.0000 0.87330  0.36720  0.26930  Biso   1.000  H
  H150     1.0000 0.12670  0.36720  0.23070  Biso   1.000  H
  H151     1.0000 0.37330  0.86720  0.26930  Biso   1.000  H
  H152     1.0000 0.62670  0.86720  0.23070  Biso   1.000  H
  C201     1.0000 0.04340  0.61650  0.71360  Biso   1.000  C
  C202     1.0000 0.95660  0.61650  0.78640  Biso   1.000  C
  C203     1.0000 0.54340  0.11650  0.71360  Biso   1.000  C
  C204     1.0000 0.45660  0.11650  0.78640  Biso   1.000  C
  C205     1.0000 0.95660  0.38350  0.28640  Biso   1.000  C
  C206     1.0000 0.04340  0.38350  0.21360  Biso   1.000  C
  C207     1.0000 0.45660  0.88350  0.28640  Biso   1.000  C
  C208     1.0000 0.54340  0.88350  0.21360  Biso   1.000  C
  C209     1.0000 0.05860  0.61690  0.81750  Biso   1.000  C
  C210     1.0000 0.94140  0.61690  0.68250  Biso   1.000  C
  C211     1.0000 0.55860  0.11690  0.81750  Biso   1.000  C
  C212     1.0000 0.44140  0.11690  0.68250  Biso   1.000  C
  C213     1.0000 0.94140  0.38310  0.18250  Biso   1.000  C
  C214     1.0000 0.05860  0.38310  0.31750  Biso   1.000  C
  C215     1.0000 0.44140  0.88310  0.18250  Biso   1.000  C
  C216     1.0000 0.55860  0.88310  0.31750  Biso   1.000  C
  H153     1.0000 0.09780  0.61730  0.86470  Biso   1.000  H
  H154     1.0000 0.90220  0.61730  0.63530  Biso   1.000  H
  H155     1.0000 0.59780  0.11730  0.86470  Biso   1.000  H
  H156     1.0000 0.40220  0.11730  0.63530  Biso   1.000  H
  H157     1.0000 0.90220  0.38270  0.13530  Biso   1.000  H
  H158     1.0000 0.09780  0.38270  0.36470  Biso   1.000  H
  H159     1.0000 0.40220  0.88270  0.13530  Biso   1.000  H
  H160     1.0000 0.59780  0.88270  0.36470  Biso   1.000  H
  C217     1.0000 0.98650  0.61670  0.64930  Biso   1.000  C
  C218     1.0000 0.01350  0.61670  0.85070  Biso   1.000  C
  C219     1.0000 0.48650  0.11670  0.64930  Biso   1.000  C
  C220     1.0000 0.51350  0.11670  0.85070  Biso   1.000  C
  C221     1.0000 0.01350  0.38330  0.35070  Biso   1.000  C
  C222     1.0000 0.98650  0.38330  0.14930  Biso   1.000  C
  C223     1.0000 0.51350  0.88330  0.35070  Biso   1.000  C
  C224     1.0000 0.48650  0.88330  0.14930  Biso   1.000  C
  H161     1.0000 0.97630  0.61680  0.57840  Biso   1.000  H
  H162     1.0000 0.02370  0.61680  0.92160  Biso   1.000  H
  H163     1.0000 0.47630  0.11680  0.57840  Biso   1.000  H
  H164     1.0000 0.52370  0.11680  0.92160  Biso   1.000  H
  H165     1.0000 0.02370  0.38320  0.42160  Biso   1.000  H
  H166     1.0000 0.97630  0.38320  0.07840  Biso   1.000  H
  H167     1.0000 0.52370  0.88320  0.42160  Biso   1.000  H
  H168     1.0000 0.47630  0.88320  0.07840  Biso   1.000  H
  C225     1.0000 0.07880  0.51880  0.64210  Biso   1.000  C
  C226     1.0000 0.92120  0.51880  0.85790  Biso   1.000  C
  C227     1.0000 0.57880  0.01880  0.64210  Biso   1.000  C
  C228     1.0000 0.42120  0.01880  0.85790  Biso   1.000  C
  C229     1.0000 0.92120  0.48120  0.35790  Biso   1.000  C
  C230     1.0000 0.07880  0.48120  0.14210  Biso   1.000  C
  C231     1.0000 0.42120  0.98120  0.35790  Biso   1.000  C
  C232     1.0000 0.57880  0.98120  0.14210  Biso   1.000  C
  H169     1.0000 0.04380  0.51460  0.64940  Biso   1.000  H
  H170     1.0000 0.95620  0.51460  0.85060  Biso   1.000  H
  H171     1.0000 0.54380  0.01460  0.64940  Biso   1.000  H
  H172     1.0000 0.45620  0.01460  0.85060  Biso   1.000  H
  H173     1.0000 0.95620  0.48540  0.35060  Biso   1.000  H
  H174     1.0000 0.04380  0.48540  0.14940  Biso   1.000  H
  H175     1.0000 0.45620  0.98540  0.35060  Biso   1.000  H
  H176     1.0000 0.54380  0.98540  0.14940  Biso   1.000  H
  C233     1.0000 0.15340  0.50660  0.61970  Biso   1.000  C
  C234     1.0000 0.84660  0.50660  0.88030  Biso   1.000  C
  C235     1.0000 0.65340  0.00660  0.61970  Biso   1.000  C
  C236     1.0000 0.34660  0.00660  0.88030  Biso   1.000  C
  C237     1.0000 0.84660  0.49340  0.38030  Biso   1.000  C
  C238     1.0000 0.15340  0.49340  0.11970  Biso   1.000  C
  C239     1.0000 0.34660  0.99340  0.38030  Biso   1.000  C
  C240     1.0000 0.65340  0.99340  0.11970  Biso   1.000  C
  H177     1.0000 0.18260  0.48960  0.60660  Biso   1.000  H
  H178     1.0000 0.81740  0.48960  0.89340  Biso   1.000  H
  H179     1.0000 0.68260  0.98960  0.60660  Biso   1.000  H
  H180     1.0000 0.31740  0.98960  0.89340  Biso   1.000  H
  H181     1.0000 0.81740  0.51040  0.39340  Biso   1.000  H
  H182     1.0000 0.18260  0.51040  0.10660  Biso   1.000  H
  H183     1.0000 0.31740  0.01040  0.39340  Biso   1.000  H
  H184     1.0000 0.68260  0.01040  0.10660  Biso   1.000  H
  C241     1.0000 0.78710  0.37280  0.62490  Biso   1.000  C
  C242     1.0000 0.21290  0.37280  0.87510  Biso   1.000  C
  C243     1.0000 0.28710  0.87280  0.62490  Biso   1.000  C
  C244     1.0000 0.71290  0.87280  0.87510  Biso   1.000  C
  C245     1.0000 0.21290  0.62720  0.37510  Biso   1.000  C
  C246     1.0000 0.78710  0.62720  0.12490  Biso   1.000  C
  C247     1.0000 0.71290  0.12720  0.37510  Biso   1.000  C
  C248     1.0000 0.28710  0.12720  0.12490  Biso   1.000  C
  H185     1.0000 0.76610  0.40450  0.60790  Biso   1.000  H
  H186     1.0000 0.23390  0.40450  0.89210  Biso   1.000  H
  H187     1.0000 0.26610  0.90450  0.60790  Biso   1.000  H
  H188     1.0000 0.73390  0.90450  0.89210  Biso   1.000  H
  H189     1.0000 0.23390  0.59550  0.39210  Biso   1.000  H
  H190     1.0000 0.76610  0.59550  0.10790  Biso   1.000  H
  H191     1.0000 0.73390  0.09550  0.39210  Biso   1.000  H
  H192     1.0000 0.26610  0.09550  0.10790  Biso   1.000  H
  C249     1.0000 0.19210  0.68610  0.60640  Biso   1.000  C
  C250     1.0000 0.80790  0.68610  0.89360  Biso   1.000  C
  C251     1.0000 0.69210  0.18610  0.60640  Biso   1.000  C
  C252     1.0000 0.30790  0.18610  0.89360  Biso   1.000  C
  C253     1.0000 0.80790  0.31390  0.39360  Biso   1.000  C
  C254     1.0000 0.19210  0.31390  0.10640  Biso   1.000  C
  C255     1.0000 0.30790  0.81390  0.39360  Biso   1.000  C
  C256     1.0000 0.69210  0.81390  0.10640  Biso   1.000  C
  N1       1.0000 0.87840  0.85870  0.90460  Biso   1.000  N
  N2       1.0000 0.12160  0.85870  0.59540  Biso   1.000  N
  N3       1.0000 0.37840  0.35870  0.90460  Biso   1.000  N
  N4       1.0000 0.62160  0.35870  0.59540  Biso   1.000  N
  N5       1.0000 0.12160  0.14130  0.09540  Biso   1.000  N
  N6       1.0000 0.87840  0.14130  0.40460  Biso   1.000  N
  N7       1.0000 0.62160  0.64130  0.09540  Biso   1.000  N
  N8       1.0000 0.37840  0.64130  0.40460  Biso   1.000  N
  N9       1.0000 0.89270  0.00730  0.86190  Biso   1.000  N
  N10      1.0000 0.10730  0.00730  0.63810  Biso   1.000  N
  N11      1.0000 0.39270  0.50730  0.86190  Biso   1.000  N
  N12      1.0000 0.60730  0.50730  0.63810  Biso   1.000  N
  N13      1.0000 0.10730  0.99270  0.13810  Biso   1.000  N
  N14      1.0000 0.89270  0.99270  0.36190  Biso   1.000  N
  N15      1.0000 0.60730  0.49270  0.13810  Biso   1.000  N
  N16      1.0000 0.39270  0.49270  0.36190  Biso   1.000  N
  N17      1.0000 0.89830  0.06020  0.85200  Biso   1.000  N
  N18      1.0000 0.10170  0.06020  0.64800  Biso   1.000  N
  N19      1.0000 0.39830  0.56020  0.85200  Biso   1.000  N
  N20      1.0000 0.60170  0.56020  0.64800  Biso   1.000  N
  N21      1.0000 0.10170  0.93980  0.14800  Biso   1.000  N
  N22      1.0000 0.89830  0.93980  0.35200  Biso   1.000  N
  N23      1.0000 0.60170  0.43980  0.14800  Biso   1.000  N
  N24      1.0000 0.39830  0.43980  0.35200  Biso   1.000  N
  N25      1.0000 0.81820  0.05140  0.87560  Biso   1.000  N
  N26      1.0000 0.18180  0.05140  0.62440  Biso   1.000  N
  N27      1.0000 0.31820  0.55140  0.87560  Biso   1.000  N
  N28      1.0000 0.68180  0.55140  0.62440  Biso   1.000  N
  N29      1.0000 0.18180  0.94860  0.12440  Biso   1.000  N
  N30      1.0000 0.81820  0.94860  0.37560  Biso   1.000  N
  N31      1.0000 0.68180  0.44860  0.12440  Biso   1.000  N
  N32      1.0000 0.31820  0.44860  0.37560  Biso   1.000  N
  N33      1.0000 0.75890  0.19270  0.88920  Biso   1.000  N
  N34      1.0000 0.24110  0.19270  0.61080  Biso   1.000  N
  N35      1.0000 0.25890  0.69270  0.88920  Biso   1.000  N
  N36      1.0000 0.74110  0.69270  0.61080  Biso   1.000  N
  N37      1.0000 0.24110  0.80730  0.11080  Biso   1.000  N
  N38      1.0000 0.75890  0.80730  0.38920  Biso   1.000  N
  N39      1.0000 0.74110  0.30730  0.11080  Biso   1.000  N
  N40      1.0000 0.25890  0.30730  0.38920  Biso   1.000  N
  N41      1.0000 0.76190  0.32540  0.62810  Biso   1.000  N
  N42      1.0000 0.23810  0.32540  0.87190  Biso   1.000  N
  N43      1.0000 0.26190  0.82540  0.62810  Biso   1.000  N
  N44      1.0000 0.73810  0.82540  0.87190  Biso   1.000  N
  N45      1.0000 0.23810  0.67460  0.37190  Biso   1.000  N
  N46      1.0000 0.76190  0.67460  0.12810  Biso   1.000  N
  N47      1.0000 0.73810  0.17460  0.37190  Biso   1.000  N
  N48      1.0000 0.26190  0.17460  0.12810  Biso   1.000  N
  N49      1.0000 0.85560  0.31750  0.66450  Biso   1.000  N
  N50      1.0000 0.14440  0.31750  0.83550  Biso   1.000  N
  N51      1.0000 0.35560  0.81750  0.66450  Biso   1.000  N
  N52      1.0000 0.64440  0.81750  0.83550  Biso   1.000  N
  N53      1.0000 0.14440  0.68250  0.33550  Biso   1.000  N
  N54      1.0000 0.85560  0.68250  0.16450  Biso   1.000  N
  N55      1.0000 0.64440  0.18250  0.33550  Biso   1.000  N
  N56      1.0000 0.35560  0.18250  0.16450  Biso   1.000  N
  N57      1.0000 0.84300  0.37050  0.64740  Biso   1.000  N
  N58      1.0000 0.15700  0.37050  0.85260  Biso   1.000  N
  N59      1.0000 0.34300  0.87050  0.64740  Biso   1.000  N
  N60      1.0000 0.65700  0.87050  0.85260  Biso   1.000  N
  N61      1.0000 0.15700  0.62950  0.35260  Biso   1.000  N
  N62      1.0000 0.84300  0.62950  0.14740  Biso   1.000  N
  N63      1.0000 0.65700  0.12950  0.35260  Biso   1.000  N
  N64      1.0000 0.34300  0.12950  0.14740  Biso   1.000  N
  N65      1.0000 0.96690  0.41320  0.61250  Biso   1.000  N
  N66      1.0000 0.03310  0.41320  0.88750  Biso   1.000  N
  N67      1.0000 0.46690  0.91320  0.61250  Biso   1.000  N
  N68      1.0000 0.53310  0.91320  0.88750  Biso   1.000  N
  N69      1.0000 0.03310  0.58680  0.38750  Biso   1.000  N
  N70      1.0000 0.96690  0.58680  0.11250  Biso   1.000  N
  N71      1.0000 0.53310  0.08680  0.38750  Biso   1.000  N
  N72      1.0000 0.46690  0.08680  0.11250  Biso   1.000  N
  N73      1.0000 0.81360  0.52050  0.61240  Biso   1.000  N
  N74      1.0000 0.18640  0.52050  0.88760  Biso   1.000  N
  N75      1.0000 0.31360  0.02050  0.61240  Biso   1.000  N
  N76      1.0000 0.68640  0.02050  0.88760  Biso   1.000  N
  N77      1.0000 0.18640  0.47950  0.38760  Biso   1.000  N
  N78      1.0000 0.81360  0.47950  0.11240  Biso   1.000  N
  N79      1.0000 0.68640  0.97950  0.38760  Biso   1.000  N
  N80      1.0000 0.31360  0.97950  0.11240  Biso   1.000  N
  N81      1.0000 0.13490  0.34720  0.59790  Biso   1.000  N
  N82      1.0000 0.86510  0.34720  0.90210  Biso   1.000  N
  N83      1.0000 0.63490  0.84720  0.59790  Biso   1.000  N
  N84      1.0000 0.36510  0.84720  0.90210  Biso   1.000  N
  N85      1.0000 0.86510  0.65280  0.40210  Biso   1.000  N
  N86      1.0000 0.13490  0.65280  0.09790  Biso   1.000  N
  N87      1.0000 0.36510  0.15280  0.40210  Biso   1.000  N
  N88      1.0000 0.63490  0.15280  0.09790  Biso   1.000  N
  N89      1.0000 0.29300  0.32340  0.64870  Biso   1.000  N
  N90      1.0000 0.70700  0.32340  0.85130  Biso   1.000  N
  N91      1.0000 0.79300  0.82340  0.64870  Biso   1.000  N
  N92      1.0000 0.20700  0.82340  0.85130  Biso   1.000  N
  N93      1.0000 0.70700  0.67660  0.35130  Biso   1.000  N
  N94      1.0000 0.29300  0.67660  0.14870  Biso   1.000  N
  N95      1.0000 0.20700  0.17660  0.35130  Biso   1.000  N
  N96      1.0000 0.79300  0.17660  0.14870  Biso   1.000  N
  N97      1.0000 0.34970  0.31510  0.66210  Biso   1.000  N
  N98      1.0000 0.65030  0.31510  0.83790  Biso   1.000  N
  N99      1.0000 0.84970  0.81510  0.66210  Biso   1.000  N
  N100     1.0000 0.15030  0.81510  0.83790  Biso   1.000  N
  N101     1.0000 0.65030  0.68490  0.33790  Biso   1.000  N
  N102     1.0000 0.34970  0.68490  0.16210  Biso   1.000  N
  N103     1.0000 0.15030  0.18490  0.33790  Biso   1.000  N
  N104     1.0000 0.84970  0.18490  0.16210  Biso   1.000  N
  N105     1.0000 0.33570  0.40120  0.63650  Biso   1.000  N
  N106     1.0000 0.66430  0.40120  0.86350  Biso   1.000  N
  N107     1.0000 0.83570  0.90120  0.63650  Biso   1.000  N
  N108     1.0000 0.16430  0.90120  0.86350  Biso   1.000  N
  N109     1.0000 0.66430  0.59880  0.36350  Biso   1.000  N
  N110     1.0000 0.33570  0.59880  0.13650  Biso   1.000  N
  N111     1.0000 0.16430  0.09880  0.36350  Biso   1.000  N
  N112     1.0000 0.83570  0.09880  0.13650  Biso   1.000  N
  N113     1.0000 0.46960  0.46110  0.61240  Biso   1.000  N
  N114     1.0000 0.53040  0.46110  0.88760  Biso   1.000  N
  N115     1.0000 0.96960  0.96110  0.61240  Biso   1.000  N
  N116     1.0000 0.03040  0.96110  0.88760  Biso   1.000  N
  N117     1.0000 0.53040  0.53890  0.38760  Biso   1.000  N
  N118     1.0000 0.46960  0.53890  0.11240  Biso   1.000  N
  N119     1.0000 0.03040  0.03890  0.38760  Biso   1.000  N
  N120     1.0000 0.96960  0.03890  0.11240  Biso   1.000  N
  N121     1.0000 0.29930  0.53510  0.61090  Biso   1.000  N
  N122     1.0000 0.70070  0.53510  0.88910  Biso   1.000  N
  N123     1.0000 0.79930  0.03510  0.61090  Biso   1.000  N
  N124     1.0000 0.20070  0.03510  0.88910  Biso   1.000  N
  N125     1.0000 0.70070  0.46490  0.38910  Biso   1.000  N
  N126     1.0000 0.29930  0.46490  0.11090  Biso   1.000  N
  N127     1.0000 0.20070  0.96490  0.38910  Biso   1.000  N
  N128     1.0000 0.79930  0.96490  0.11090  Biso   1.000  N
  N129     1.0000 0.18320  0.73000  0.60360  Biso   1.000  N
  N130     1.0000 0.81680  0.73000  0.89640  Biso   1.000  N
  N131     1.0000 0.68320  0.23000  0.60360  Biso   1.000  N
  N132     1.0000 0.31680  0.23000  0.89640  Biso   1.000  N
  N133     1.0000 0.81680  0.27000  0.39640  Biso   1.000  N
  N134     1.0000 0.18320  0.27000  0.10360  Biso   1.000  N
  N135     1.0000 0.31680  0.77000  0.39640  Biso   1.000  N
  N136     1.0000 0.68320  0.77000  0.10360  Biso   1.000  N
  N137     1.0000 0.15500  0.55630  0.63760  Biso   1.000  N
  N138     1.0000 0.84500  0.55630  0.86240  Biso   1.000  N
  N139     1.0000 0.65500  0.05630  0.63760  Biso   1.000  N
  N140     1.0000 0.34500  0.05630  0.86240  Biso   1.000  N
  N141     1.0000 0.84500  0.44370  0.36240  Biso   1.000  N
  N142     1.0000 0.15500  0.44370  0.13760  Biso   1.000  N
  N143     1.0000 0.34500  0.94370  0.36240  Biso   1.000  N
  N144     1.0000 0.65500  0.94370  0.13760  Biso   1.000  N
  N145     1.0000 0.10570  0.56370  0.65180  Biso   1.000  N
  N146     1.0000 0.89430  0.56370  0.84820  Biso   1.000  N
  N147     1.0000 0.60570  0.06370  0.65180  Biso   1.000  N
  N148     1.0000 0.39430  0.06370  0.84820  Biso   1.000  N
  N149     1.0000 0.89430  0.43630  0.34820  Biso   1.000  N
  N150     1.0000 0.10570  0.43630  0.15180  Biso   1.000  N
  N151     1.0000 0.39430  0.93630  0.34820  Biso   1.000  N
  N152     1.0000 0.60570  0.93630  0.15180  Biso   1.000  N
  N153     1.0000 0.10700  0.48000  0.62090  Biso   1.000  N
  N154     1.0000 0.89300  0.48000  0.87910  Biso   1.000  N
  N155     1.0000 0.60700  0.98000  0.62090  Biso   1.000  N
  N156     1.0000 0.39300  0.98000  0.87910  Biso   1.000  N
  N157     1.0000 0.89300  0.52000  0.37910  Biso   1.000  N
  N158     1.0000 0.10700  0.52000  0.12090  Biso   1.000  N
  N159     1.0000 0.39300  0.02000  0.37910  Biso   1.000  N
  N160     1.0000 0.60700  0.02000  0.12090  Biso   1.000  N
