data_image0
_cell_length_a       13.5986
_cell_length_b       23.7671
_cell_length_c       23.616
_cell_angle_alpha    90
_cell_angle_beta     90.573
_cell_angle_gamma    90

_symmetry_space_group_name_H-M    "P 1"
_symmetry_int_tables_number       1

loop_
  _symmetry_equiv_pos_as_xyz
  'x, y, z'

loop_
  _atom_site_label
  _atom_site_occupancy
  _atom_site_fract_x
  _atom_site_fract_y
  _atom_site_fract_z
  _atom_site_thermal_displace_type
  _atom_site_B_iso_or_equiv
  _atom_site_type_symbol
  Cu1      1.0000 0.09694  0.04606  0.42332  Biso   1.000  Cu
  Cu2      1.0000 0.40306  0.54606  0.07668  Biso   1.000  Cu
  Cu3      1.0000 0.90306  0.95394  0.57668  Biso   1.000  Cu
  Cu4      1.0000 0.59694  0.45394  0.92332  Biso   1.000  Cu
  Cu5      1.0000 0.63343  0.03220  0.01436  Biso   1.000  Cu
  Cu6      1.0000 0.86657  0.53220  0.48564  Biso   1.000  Cu
  Cu7      1.0000 0.36657  0.96780  0.98564  Biso   1.000  Cu
  Cu8      1.0000 0.13343  0.46780  0.51436  Biso   1.000  Cu
  Cu9      1.0000 0.91147  0.31246  0.05673  Biso   1.000  Cu
  Cu10     1.0000 0.58853  0.81246  0.44327  Biso   1.000  Cu
  Cu11     1.0000 0.08853  0.68754  0.94327  Biso   1.000  Cu
  Cu12     1.0000 0.41147  0.18754  0.55673  Biso   1.000  Cu
  Cu13     1.0000 0.49206  0.30634  0.59536  Biso   1.000  Cu
  Cu14     1.0000 0.00794  0.80634  0.90464  Biso   1.000  Cu
  Cu15     1.0000 0.50794  0.69366  0.40464  Biso   1.000  Cu
  Cu16     1.0000 0.99206  0.19366  0.09536  Biso   1.000  Cu
  Mo1      1.0000 0.29153  0.18884  0.11900  Biso   1.000  Mo
  Mo2      1.0000 0.20847  0.68884  0.38100  Biso   1.000  Mo
  Mo3      1.0000 0.70847  0.81116  0.88100  Biso   1.000  Mo
  Mo4      1.0000 0.79153  0.31116  0.61900  Biso   1.000  Mo
  Mo5      1.0000 0.19273  0.31450  0.10990  Biso   1.000  Mo
  Mo6      1.0000 0.30727  0.81450  0.39010  Biso   1.000  Mo
  Mo7      1.0000 0.80727  0.68550  0.89010  Biso   1.000  Mo
  Mo8      1.0000 0.69273  0.18550  0.60990  Biso   1.000  Mo
  Mo9      1.0000 0.36174  0.27865  0.00490  Biso   1.000  Mo
  Mo10     1.0000 0.13826  0.77865  0.49510  Biso   1.000  Mo
  Mo11     1.0000 0.63826  0.72135  0.99510  Biso   1.000  Mo
  Mo12     1.0000 0.86174  0.22135  0.50490  Biso   1.000  Mo
  Mo13     1.0000 0.41313  0.36912  0.12168  Biso   1.000  Mo
  Mo14     1.0000 0.08687  0.86912  0.37832  Biso   1.000  Mo
  Mo15     1.0000 0.58687  0.63088  0.87832  Biso   1.000  Mo
  Mo16     1.0000 0.91313  0.13088  0.62168  Biso   1.000  Mo
  Mo17     1.0000 0.57700  0.33145  0.01804  Biso   1.000  Mo
  Mo18     1.0000 0.92300  0.83145  0.48196  Biso   1.000  Mo
  Mo19     1.0000 0.42300  0.66855  0.98196  Biso   1.000  Mo
  Mo20     1.0000 0.07700  0.16855  0.51804  Biso   1.000  Mo
  Mo21     1.0000 0.45741  0.15667  0.00944  Biso   1.000  Mo
  Mo22     1.0000 0.04259  0.65667  0.49056  Biso   1.000  Mo
  Mo23     1.0000 0.54259  0.84333  0.99056  Biso   1.000  Mo
  Mo24     1.0000 0.95741  0.34333  0.50944  Biso   1.000  Mo
  Mo25     1.0000 0.50366  0.24370  0.13046  Biso   1.000  Mo
  Mo26     1.0000 0.99634  0.74370  0.36954  Biso   1.000  Mo
  Mo27     1.0000 0.49634  0.75630  0.86954  Biso   1.000  Mo
  Mo28     1.0000 0.00366  0.25630  0.63046  Biso   1.000  Mo
  Mo29     1.0000 0.68290  0.20697  0.02976  Biso   1.000  Mo
  Mo30     1.0000 0.81710  0.70697  0.47024  Biso   1.000  Mo
  Mo31     1.0000 0.31710  0.79303  0.97024  Biso   1.000  Mo
  Mo32     1.0000 0.18290  0.29303  0.52976  Biso   1.000  Mo
  C1       1.0000 0.73840  0.12880  0.36970  Biso   1.000  C
  C2       1.0000 0.76160  0.62880  0.13030  Biso   1.000  C
  C3       1.0000 0.26160  0.87120  0.63030  Biso   1.000  C
  C4       1.0000 0.23840  0.37120  0.86970  Biso   1.000  C
  C5       1.0000 0.65310  0.09220  0.34860  Biso   1.000  C
  C6       1.0000 0.84690  0.59220  0.15140  Biso   1.000  C
  C7       1.0000 0.34690  0.90780  0.65140  Biso   1.000  C
  C8       1.0000 0.15310  0.40780  0.84860  Biso   1.000  C
  C9       1.0000 0.60650  0.05630  0.38690  Biso   1.000  C
  C10      1.0000 0.89350  0.55630  0.11310  Biso   1.000  C
  C11      1.0000 0.39350  0.94370  0.61310  Biso   1.000  C
  C12      1.0000 0.10650  0.44370  0.88690  Biso   1.000  C
  C13      1.0000 0.52800  0.02310  0.36770  Biso   1.000  C
  C14      1.0000 0.97200  0.52310  0.13230  Biso   1.000  C
  C15      1.0000 0.47200  0.97690  0.63230  Biso   1.000  C
  C16      1.0000 0.02800  0.47690  0.86770  Biso   1.000  C
  C17      1.0000 0.49300  0.02650  0.31220  Biso   1.000  C
  C18      1.0000 0.00700  0.52650  0.18780  Biso   1.000  C
  C19      1.0000 0.50700  0.97350  0.68780  Biso   1.000  C
  C20      1.0000 0.99300  0.47350  0.81220  Biso   1.000  C
  C21      1.0000 0.53500  0.06540  0.27520  Biso   1.000  C
  C22      1.0000 0.96500  0.56540  0.22480  Biso   1.000  C
  C23      1.0000 0.46500  0.93460  0.72480  Biso   1.000  C
  C24      1.0000 0.03500  0.43460  0.77520  Biso   1.000  C
  C25      1.0000 0.61690  0.09690  0.29240  Biso   1.000  C
  C26      1.0000 0.88310  0.59690  0.20760  Biso   1.000  C
  C27      1.0000 0.38310  0.90310  0.70760  Biso   1.000  C
  C28      1.0000 0.11690  0.40310  0.79240  Biso   1.000  C
  C29      1.0000 0.66560  0.13720  0.25090  Biso   1.000  C
  C30      1.0000 0.83440  0.63720  0.24910  Biso   1.000  C
  C31      1.0000 0.33440  0.86280  0.74910  Biso   1.000  C
  C32      1.0000 0.16560  0.36280  0.75090  Biso   1.000  C
  H1       1.0000 0.68070  0.11740  0.21660  Biso   1.000  H
  H2       1.0000 0.81930  0.61740  0.28340  Biso   1.000  H
  H3       1.0000 0.31930  0.88260  0.78340  Biso   1.000  H
  H4       1.0000 0.18070  0.38260  0.71660  Biso   1.000  H
  H5       1.0000 0.72520  0.15160  0.26750  Biso   1.000  H
  H6       1.0000 0.77480  0.65160  0.23250  Biso   1.000  H
  H7       1.0000 0.27480  0.84840  0.73250  Biso   1.000  H
  H8       1.0000 0.22520  0.34840  0.76750  Biso   1.000  H
  H9       1.0000 0.62170  0.16770  0.24250  Biso   1.000  H
  H10      1.0000 0.87830  0.66770  0.25750  Biso   1.000  H
  H11      1.0000 0.37830  0.83230  0.75750  Biso   1.000  H
  H12      1.0000 0.12170  0.33230  0.74250  Biso   1.000  H
  C33      1.0000 0.63500  0.05720  0.44870  Biso   1.000  C
  C34      1.0000 0.86500  0.55720  0.05130  Biso   1.000  C
  C35      1.0000 0.36500  0.94280  0.55130  Biso   1.000  C
  C36      1.0000 0.13500  0.44280  0.94870  Biso   1.000  C
  H13      1.0000 0.57780  0.06420  0.47110  Biso   1.000  H
  H14      1.0000 0.92220  0.56420  0.02890  Biso   1.000  H
  H15      1.0000 0.42220  0.93580  0.52890  Biso   1.000  H
  H16      1.0000 0.07780  0.43580  0.97110  Biso   1.000  H
  H17      1.0000 0.68250  0.08650  0.45520  Biso   1.000  H
  H18      1.0000 0.81750  0.58650  0.04480  Biso   1.000  H
  H19      1.0000 0.31750  0.91350  0.54480  Biso   1.000  H
  H20      1.0000 0.18250  0.41350  0.95520  Biso   1.000  H
  H21      1.0000 0.66310  0.02160  0.45910  Biso   1.000  H
  H22      1.0000 0.83690  0.52160  0.04090  Biso   1.000  H
  H23      1.0000 0.33690  0.97840  0.54090  Biso   1.000  H
  H24      1.0000 0.16310  0.47840  0.95910  Biso   1.000  H
  C37      1.0000 0.40850  0.98960  0.29160  Biso   1.000  C
  C38      1.0000 0.09150  0.48960  0.20840  Biso   1.000  C
  C39      1.0000 0.59150  0.01040  0.70840  Biso   1.000  C
  C40      1.0000 0.90850  0.51040  0.79160  Biso   1.000  C
  H25      1.0000 0.40080  0.95830  0.31690  Biso   1.000  H
  H26      1.0000 0.09920  0.45830  0.18310  Biso   1.000  H
  H27      1.0000 0.59920  0.04170  0.68310  Biso   1.000  H
  H28      1.0000 0.90080  0.54170  0.81690  Biso   1.000  H
  H29      1.0000 0.42250  0.97590  0.25430  Biso   1.000  H
  H30      1.0000 0.07750  0.47590  0.24570  Biso   1.000  H
  H31      1.0000 0.57750  0.02410  0.74570  Biso   1.000  H
  H32      1.0000 0.92250  0.52410  0.75430  Biso   1.000  H
  H33      1.0000 0.34890  0.01120  0.29060  Biso   1.000  H
  H34      1.0000 0.15110  0.51120  0.20940  Biso   1.000  H
  H35      1.0000 0.65110  0.98880  0.70940  Biso   1.000  H
  H36      1.0000 0.84890  0.48880  0.79060  Biso   1.000  H
  C41      1.0000 0.49080  0.07460  0.21790  Biso   1.000  C
  C42      1.0000 0.00920  0.57460  0.28210  Biso   1.000  C
  C43      1.0000 0.50920  0.92540  0.78210  Biso   1.000  C
  C44      1.0000 0.99080  0.42540  0.71790  Biso   1.000  C
  H37      1.0000 0.42160  0.06480  0.21930  Biso   1.000  H
  H38      1.0000 0.07840  0.56480  0.28070  Biso   1.000  H
  H39      1.0000 0.57840  0.93520  0.78070  Biso   1.000  H
  H40      1.0000 0.92160  0.43520  0.71930  Biso   1.000  H
  H41      1.0000 0.49500  0.11440  0.20890  Biso   1.000  H
  H42      1.0000 0.00500  0.61440  0.29110  Biso   1.000  H
  H43      1.0000 0.50500  0.88560  0.79110  Biso   1.000  H
  H44      1.0000 0.99500  0.38560  0.70890  Biso   1.000  H
  C45      1.0000 0.57260  0.06390  0.12470  Biso   1.000  C
  C46      1.0000 0.92740  0.56390  0.37530  Biso   1.000  C
  C47      1.0000 0.42740  0.93610  0.87530  Biso   1.000  C
  C48      1.0000 0.07260  0.43610  0.62470  Biso   1.000  C
  H45      1.0000 0.58030  0.10200  0.11690  Biso   1.000  H
  H46      1.0000 0.91970  0.60200  0.38310  Biso   1.000  H
  H47      1.0000 0.41970  0.89800  0.88310  Biso   1.000  H
  H48      1.0000 0.08030  0.39800  0.61690  Biso   1.000  H
  C49      1.0000 0.57300  0.97480  0.11910  Biso   1.000  C
  C50      1.0000 0.92700  0.47480  0.38090  Biso   1.000  C
  C51      1.0000 0.42700  0.02520  0.88090  Biso   1.000  C
  C52      1.0000 0.07300  0.52520  0.61910  Biso   1.000  C
  H49      1.0000 0.58120  0.93870  0.10470  Biso   1.000  H
  H50      1.0000 0.91880  0.43870  0.39530  Biso   1.000  H
  H51      1.0000 0.41880  0.06130  0.89530  Biso   1.000  H
  H52      1.0000 0.08120  0.56130  0.60470  Biso   1.000  H
  C53      1.0000 0.47470  0.98530  0.40970  Biso   1.000  C
  C54      1.0000 0.02530  0.48530  0.09030  Biso   1.000  C
  C55      1.0000 0.52530  0.01470  0.59030  Biso   1.000  C
  C56      1.0000 0.97470  0.51470  0.90970  Biso   1.000  C
  H53      1.0000 0.46040  0.94930  0.39220  Biso   1.000  H
  H54      1.0000 0.03960  0.44930  0.10780  Biso   1.000  H
  H55      1.0000 0.53960  0.05070  0.60780  Biso   1.000  H
  H56      1.0000 0.96040  0.55070  0.89220  Biso   1.000  H
  H57      1.0000 0.51660  0.97870  0.44260  Biso   1.000  H
  H58      1.0000 0.98340  0.47870  0.05740  Biso   1.000  H
  H59      1.0000 0.48340  0.02130  0.55740  Biso   1.000  H
  H60      1.0000 0.01660  0.52130  0.94260  Biso   1.000  H
  C57      1.0000 0.29290  0.99820  0.41640  Biso   1.000  C
  C58      1.0000 0.20710  0.49820  0.08360  Biso   1.000  C
  C59      1.0000 0.70710  0.00180  0.58360  Biso   1.000  C
  C60      1.0000 0.79290  0.50180  0.91640  Biso   1.000  C
  H61      1.0000 0.27330  0.96610  0.39670  Biso   1.000  H
  H62      1.0000 0.22670  0.46610  0.10330  Biso   1.000  H
  H63      1.0000 0.72670  0.03390  0.60330  Biso   1.000  H
  H64      1.0000 0.77330  0.53390  0.89670  Biso   1.000  H
  C61      1.0000 0.29490  0.07340  0.46200  Biso   1.000  C
  C62      1.0000 0.20510  0.57340  0.03800  Biso   1.000  C
  C63      1.0000 0.70510  0.92660  0.53800  Biso   1.000  C
  C64      1.0000 0.79490  0.42660  0.96200  Biso   1.000  C
  H65      1.0000 0.27340  0.10570  0.48020  Biso   1.000  H
  H66      1.0000 0.22660  0.60570  0.01980  Biso   1.000  H
  H67      1.0000 0.72660  0.89430  0.51980  Biso   1.000  H
  H68      1.0000 0.77340  0.39430  0.98020  Biso   1.000  H
  C65      1.0000 0.69190  0.99650  0.90330  Biso   1.000  C
  C66      1.0000 0.80810  0.49650  0.59670  Biso   1.000  C
  C67      1.0000 0.30810  0.00350  0.09670  Biso   1.000  C
  C68      1.0000 0.19190  0.50350  0.40330  Biso   1.000  C
  H69      1.0000 0.68500  0.95890  0.91360  Biso   1.000  H
  H70      1.0000 0.81500  0.45890  0.58640  Biso   1.000  H
  H71      1.0000 0.31500  0.04110  0.08640  Biso   1.000  H
  H72      1.0000 0.18500  0.54110  0.41360  Biso   1.000  H
  C69      1.0000 0.69250  0.08360  0.90740  Biso   1.000  C
  C70      1.0000 0.80750  0.58360  0.59260  Biso   1.000  C
  C71      1.0000 0.30750  0.91640  0.09260  Biso   1.000  C
  C72      1.0000 0.19250  0.41640  0.40740  Biso   1.000  C
  H73      1.0000 0.68460  0.12070  0.91900  Biso   1.000  H
  H74      1.0000 0.81540  0.62070  0.58100  Biso   1.000  H
  H75      1.0000 0.31540  0.87930  0.08100  Biso   1.000  H
  H76      1.0000 0.18460  0.37930  0.41900  Biso   1.000  H
  C73      1.0000 0.74720  0.10020  0.80610  Biso   1.000  C
  C74      1.0000 0.75280  0.60020  0.69390  Biso   1.000  C
  C75      1.0000 0.25280  0.89980  0.19390  Biso   1.000  C
  C76      1.0000 0.24720  0.39980  0.30610  Biso   1.000  C
  H77      1.0000 0.70410  0.08910  0.77510  Biso   1.000  H
  H78      1.0000 0.79590  0.58910  0.72490  Biso   1.000  H
  H79      1.0000 0.29590  0.91090  0.22490  Biso   1.000  H
  H80      1.0000 0.20410  0.41090  0.27510  Biso   1.000  H
  H81      1.0000 0.81420  0.09120  0.79560  Biso   1.000  H
  H82      1.0000 0.68580  0.59120  0.70440  Biso   1.000  H
  H83      1.0000 0.18580  0.90880  0.20440  Biso   1.000  H
  H84      1.0000 0.31420  0.40880  0.29560  Biso   1.000  H
  C77      1.0000 0.73830  0.16340  0.81570  Biso   1.000  C
  C78      1.0000 0.76170  0.66340  0.68430  Biso   1.000  C
  C79      1.0000 0.26170  0.83660  0.18430  Biso   1.000  C
  C80      1.0000 0.23830  0.33660  0.31570  Biso   1.000  C
  C81      1.0000 0.64660  0.18910  0.81370  Biso   1.000  C
  C82      1.0000 0.85340  0.68910  0.68630  Biso   1.000  C
  C83      1.0000 0.35340  0.81090  0.18630  Biso   1.000  C
  C84      1.0000 0.14660  0.31090  0.31370  Biso   1.000  C
  C85      1.0000 0.63960  0.24690  0.81860  Biso   1.000  C
  C86      1.0000 0.86040  0.74690  0.68140  Biso   1.000  C
  C87      1.0000 0.36040  0.75310  0.18140  Biso   1.000  C
  C88      1.0000 0.13960  0.25310  0.31860  Biso   1.000  C
  C89      1.0000 0.72550  0.28030  0.82290  Biso   1.000  C
  C90      1.0000 0.77450  0.78030  0.67710  Biso   1.000  C
  C91      1.0000 0.27450  0.71970  0.17710  Biso   1.000  C
  C92      1.0000 0.22550  0.21970  0.32290  Biso   1.000  C
  C93      1.0000 0.81560  0.25380  0.82450  Biso   1.000  C
  C94      1.0000 0.68440  0.75380  0.67550  Biso   1.000  C
  C95      1.0000 0.18440  0.74620  0.17550  Biso   1.000  C
  C96      1.0000 0.31560  0.24620  0.32450  Biso   1.000  C
  C97      1.0000 0.82290  0.19510  0.82310  Biso   1.000  C
  C98      1.0000 0.67710  0.69510  0.67690  Biso   1.000  C
  C99      1.0000 0.17710  0.80490  0.17690  Biso   1.000  C
  C100     1.0000 0.32290  0.30490  0.32310  Biso   1.000  C
  C101     1.0000 0.92280  0.16660  0.82920  Biso   1.000  C
  C102     1.0000 0.57720  0.66660  0.67080  Biso   1.000  C
  C103     1.0000 0.07720  0.83340  0.17080  Biso   1.000  C
  C104     1.0000 0.42280  0.33340  0.32920  Biso   1.000  C
  H85      1.0000 0.91400  0.12870  0.84230  Biso   1.000  H
  H86      1.0000 0.58600  0.62870  0.65770  Biso   1.000  H
  H87      1.0000 0.08600  0.87130  0.15770  Biso   1.000  H
  H88      1.0000 0.41400  0.37130  0.34230  Biso   1.000  H
  H89      1.0000 0.96250  0.18700  0.85610  Biso   1.000  H
  H90      1.0000 0.53750  0.68700  0.64390  Biso   1.000  H
  H91      1.0000 0.03750  0.81300  0.14390  Biso   1.000  H
  H92      1.0000 0.46250  0.31300  0.35610  Biso   1.000  H
  H93      1.0000 0.95500  0.16620  0.79320  Biso   1.000  H
  H94      1.0000 0.54500  0.66620  0.70680  Biso   1.000  H
  H95      1.0000 0.04500  0.83380  0.20680  Biso   1.000  H
  H96      1.0000 0.45500  0.33380  0.29320  Biso   1.000  H
  C105     1.0000 0.55410  0.15390  0.80810  Biso   1.000  C
  C106     1.0000 0.94590  0.65390  0.69190  Biso   1.000  C
  C107     1.0000 0.44590  0.84610  0.19190  Biso   1.000  C
  C108     1.0000 0.05410  0.34610  0.30810  Biso   1.000  C
  H97      1.0000 0.52600  0.14840  0.84480  Biso   1.000  H
  H98      1.0000 0.97400  0.64840  0.65520  Biso   1.000  H
  H99      1.0000 0.47400  0.85160  0.15520  Biso   1.000  H
  H100     1.0000 0.02600  0.35160  0.34480  Biso   1.000  H
  H101     1.0000 0.57020  0.11800  0.79200  Biso   1.000  H
  H102     1.0000 0.92980  0.61800  0.70800  Biso   1.000  H
  H103     1.0000 0.42980  0.88200  0.20800  Biso   1.000  H
  H104     1.0000 0.07020  0.38200  0.29200  Biso   1.000  H
  H105     1.0000 0.50770  0.17290  0.78400  Biso   1.000  H
  H106     1.0000 0.99230  0.67290  0.71600  Biso   1.000  H
  H107     1.0000 0.49230  0.82710  0.21600  Biso   1.000  H
  H108     1.0000 0.00770  0.32710  0.28400  Biso   1.000  H
  C109     1.0000 0.71750  0.34360  0.82540  Biso   1.000  C
  C110     1.0000 0.78250  0.84360  0.67460  Biso   1.000  C
  C111     1.0000 0.28250  0.65640  0.17460  Biso   1.000  C
  C112     1.0000 0.21750  0.15640  0.32540  Biso   1.000  C
  H109     1.0000 0.74720  0.35700  0.85990  Biso   1.000  H
  H110     1.0000 0.75280  0.85700  0.64010  Biso   1.000  H
  H111     1.0000 0.25280  0.64300  0.14010  Biso   1.000  H
  H112     1.0000 0.24720  0.14300  0.35990  Biso   1.000  H
  H113     1.0000 0.64940  0.35440  0.82430  Biso   1.000  H
  H114     1.0000 0.85060  0.85440  0.67570  Biso   1.000  H
  H115     1.0000 0.35060  0.64560  0.17570  Biso   1.000  H
  H116     1.0000 0.14940  0.14560  0.32430  Biso   1.000  H
  H117     1.0000 0.75080  0.35980  0.79370  Biso   1.000  H
  H118     1.0000 0.74920  0.85980  0.70630  Biso   1.000  H
  H119     1.0000 0.24920  0.64020  0.20630  Biso   1.000  H
  H120     1.0000 0.25080  0.14020  0.29370  Biso   1.000  H
  C113     1.0000 0.90780  0.28770  0.82990  Biso   1.000  C
  C114     1.0000 0.59220  0.78770  0.67010  Biso   1.000  C
  C115     1.0000 0.09220  0.71230  0.17010  Biso   1.000  C
  C116     1.0000 0.40780  0.21230  0.32990  Biso   1.000  C
  H121     1.0000 0.95920  0.27020  0.80780  Biso   1.000  H
  H122     1.0000 0.54080  0.77020  0.69220  Biso   1.000  H
  H123     1.0000 0.04080  0.72980  0.19220  Biso   1.000  H
  H124     1.0000 0.45920  0.22980  0.30780  Biso   1.000  H
  H125     1.0000 0.89630  0.32510  0.81470  Biso   1.000  H
  H126     1.0000 0.60370  0.82510  0.68530  Biso   1.000  H
  H127     1.0000 0.10370  0.67490  0.18530  Biso   1.000  H
  H128     1.0000 0.39630  0.17490  0.31470  Biso   1.000  H
  C117     1.0000 0.88640  0.29230  0.93520  Biso   1.000  C
  C118     1.0000 0.61360  0.79230  0.56480  Biso   1.000  C
  C119     1.0000 0.11360  0.70770  0.06480  Biso   1.000  C
  C120     1.0000 0.38640  0.20770  0.43520  Biso   1.000  C
  H129     1.0000 0.81850  0.28780  0.93570  Biso   1.000  H
  H130     1.0000 0.68150  0.78780  0.56430  Biso   1.000  H
  H131     1.0000 0.18150  0.71220  0.06430  Biso   1.000  H
  H132     1.0000 0.31850  0.21220  0.43570  Biso   1.000  H
  C121     1.0000 0.03360  0.30290  0.95880  Biso   1.000  C
  C122     1.0000 0.46640  0.80290  0.54120  Biso   1.000  C
  C123     1.0000 0.96640  0.69710  0.04120  Biso   1.000  C
  C124     1.0000 0.53360  0.19710  0.45880  Biso   1.000  C
  H133     1.0000 0.08970  0.30750  0.98110  Biso   1.000  H
  H134     1.0000 0.41030  0.80750  0.51890  Biso   1.000  H
  H135     1.0000 0.91030  0.69250  0.01890  Biso   1.000  H
  H136     1.0000 0.58970  0.19250  0.48110  Biso   1.000  H
  C125     1.0000 0.53790  0.27370  0.82020  Biso   1.000  C
  C126     1.0000 0.96210  0.77370  0.67980  Biso   1.000  C
  C127     1.0000 0.46210  0.72630  0.17980  Biso   1.000  C
  C128     1.0000 0.03790  0.22630  0.32020  Biso   1.000  C
  H137     1.0000 0.49420  0.24980  0.84180  Biso   1.000  H
  H138     1.0000 0.00580  0.74980  0.65820  Biso   1.000  H
  H139     1.0000 0.50580  0.75020  0.15820  Biso   1.000  H
  H140     1.0000 0.99420  0.25020  0.34180  Biso   1.000  H
  H141     1.0000 0.54230  0.30970  0.83940  Biso   1.000  H
  H142     1.0000 0.95770  0.80970  0.66060  Biso   1.000  H
  H143     1.0000 0.45770  0.69030  0.16060  Biso   1.000  H
  H144     1.0000 0.04230  0.19030  0.33940  Biso   1.000  H
  C129     1.0000 0.54090  0.28360  0.71320  Biso   1.000  C
  C130     1.0000 0.95910  0.78360  0.78680  Biso   1.000  C
  C131     1.0000 0.45910  0.71640  0.28680  Biso   1.000  C
  C132     1.0000 0.04090  0.21640  0.21320  Biso   1.000  C
  H145     1.0000 0.60800  0.27910  0.70750  Biso   1.000  H
  H146     1.0000 0.89200  0.77910  0.79250  Biso   1.000  H
  H147     1.0000 0.39200  0.72090  0.29250  Biso   1.000  H
  H148     1.0000 0.10800  0.22090  0.20750  Biso   1.000  H
  C133     1.0000 0.38610  0.29670  0.70120  Biso   1.000  C
  C134     1.0000 0.11390  0.79670  0.79880  Biso   1.000  C
  C135     1.0000 0.61390  0.70330  0.29880  Biso   1.000  C
  C136     1.0000 0.88610  0.20330  0.20120  Biso   1.000  C
  H149     1.0000 0.32570  0.30310  0.68360  Biso   1.000  H
  H150     1.0000 0.17430  0.80310  0.81640  Biso   1.000  H
  H151     1.0000 0.67430  0.69690  0.31640  Biso   1.000  H
  H152     1.0000 0.82570  0.19690  0.18360  Biso   1.000  H
  C137     1.0000 0.91890  0.34640  0.17540  Biso   1.000  C
  C138     1.0000 0.58110  0.84640  0.32460  Biso   1.000  C
  C139     1.0000 0.08110  0.65360  0.82460  Biso   1.000  C
  C140     1.0000 0.41890  0.15360  0.67540  Biso   1.000  C
  H153     1.0000 0.98590  0.35430  0.17420  Biso   1.000  H
  H154     1.0000 0.51410  0.85430  0.32580  Biso   1.000  H
  H155     1.0000 0.01410  0.64570  0.82580  Biso   1.000  H
  H156     1.0000 0.48590  0.14570  0.67420  Biso   1.000  H
  C141     1.0000 0.77610  0.32350  0.15030  Biso   1.000  C
  C142     1.0000 0.72390  0.82350  0.34970  Biso   1.000  C
  C143     1.0000 0.22390  0.67650  0.84970  Biso   1.000  C
  C144     1.0000 0.27610  0.17650  0.65030  Biso   1.000  C
  H157     1.0000 0.72110  0.31240  0.12940  Biso   1.000  H
  H158     1.0000 0.77890  0.81240  0.37060  Biso   1.000  H
  H159     1.0000 0.27890  0.68760  0.87060  Biso   1.000  H
  H160     1.0000 0.22110  0.18760  0.62940  Biso   1.000  H
  C145     1.0000 0.69430  0.33230  0.24370  Biso   1.000  C
  C146     1.0000 0.80570  0.83230  0.25630  Biso   1.000  C
  C147     1.0000 0.30570  0.66770  0.75630  Biso   1.000  C
  C148     1.0000 0.19430  0.16770  0.74370  Biso   1.000  C
  H161     1.0000 0.70190  0.29860  0.26640  Biso   1.000  H
  H162     1.0000 0.79810  0.79860  0.23360  Biso   1.000  H
  H163     1.0000 0.29810  0.70140  0.73360  Biso   1.000  H
  H164     1.0000 0.20190  0.20140  0.76640  Biso   1.000  H
  H165     1.0000 0.63390  0.32850  0.22190  Biso   1.000  H
  H166     1.0000 0.86610  0.82850  0.27810  Biso   1.000  H
  H167     1.0000 0.36610  0.67150  0.77810  Biso   1.000  H
  H168     1.0000 0.13390  0.17150  0.72190  Biso   1.000  H
  C149     1.0000 0.68460  0.38160  0.28230  Biso   1.000  C
  C150     1.0000 0.81540  0.88160  0.21770  Biso   1.000  C
  C151     1.0000 0.31540  0.61840  0.71770  Biso   1.000  C
  C152     1.0000 0.18460  0.11840  0.78230  Biso   1.000  C
  C153     1.0000 0.66350  0.43400  0.25850  Biso   1.000  C
  C154     1.0000 0.83650  0.93400  0.24150  Biso   1.000  C
  C155     1.0000 0.33650  0.56600  0.74150  Biso   1.000  C
  C156     1.0000 0.16350  0.06600  0.75850  Biso   1.000  C
  C157     1.0000 0.64460  0.47790  0.29410  Biso   1.000  C
  C158     1.0000 0.85540  0.97790  0.20590  Biso   1.000  C
  C159     1.0000 0.35540  0.52210  0.70590  Biso   1.000  C
  C160     1.0000 0.14460  0.02210  0.79410  Biso   1.000  C
  C161     1.0000 0.64930  0.47340  0.35240  Biso   1.000  C
  C162     1.0000 0.85070  0.97340  0.14760  Biso   1.000  C
  C163     1.0000 0.35070  0.52660  0.64760  Biso   1.000  C
  C164     1.0000 0.14930  0.02660  0.85240  Biso   1.000  C
  C165     1.0000 0.67730  0.42110  0.37630  Biso   1.000  C
  C166     1.0000 0.82270  0.92110  0.12370  Biso   1.000  C
  C167     1.0000 0.32270  0.57890  0.62370  Biso   1.000  C
  C168     1.0000 0.17730  0.07890  0.87630  Biso   1.000  C
  C169     1.0000 0.69530  0.37470  0.34090  Biso   1.000  C
  C170     1.0000 0.80470  0.87470  0.15910  Biso   1.000  C
  C171     1.0000 0.30470  0.62530  0.65910  Biso   1.000  C
  C172     1.0000 0.19530  0.12530  0.84090  Biso   1.000  C
  C173     1.0000 0.72710  0.31900  0.36620  Biso   1.000  C
  C174     1.0000 0.77290  0.81900  0.13380  Biso   1.000  C
  C175     1.0000 0.27290  0.68100  0.63380  Biso   1.000  C
  C176     1.0000 0.22710  0.18100  0.86620  Biso   1.000  C
  H169     1.0000 0.67280  0.29320  0.36530  Biso   1.000  H
  H170     1.0000 0.82720  0.79320  0.13470  Biso   1.000  H
  H171     1.0000 0.32720  0.70680  0.63470  Biso   1.000  H
  H172     1.0000 0.17280  0.20680  0.86530  Biso   1.000  H
  H173     1.0000 0.74820  0.32470  0.40470  Biso   1.000  H
  H174     1.0000 0.75180  0.82470  0.09530  Biso   1.000  H
  H175     1.0000 0.25180  0.67530  0.59530  Biso   1.000  H
  H176     1.0000 0.24820  0.17530  0.90470  Biso   1.000  H
  H177     1.0000 0.78040  0.30380  0.34470  Biso   1.000  H
  H178     1.0000 0.71960  0.80380  0.15530  Biso   1.000  H
  H179     1.0000 0.21960  0.69620  0.65530  Biso   1.000  H
  H180     1.0000 0.28040  0.19620  0.84470  Biso   1.000  H
  C177     1.0000 0.65760  0.44190  0.19520  Biso   1.000  C
  C178     1.0000 0.84240  0.94190  0.30480  Biso   1.000  C
  C179     1.0000 0.34240  0.55810  0.80480  Biso   1.000  C
  C180     1.0000 0.15760  0.05810  0.69520  Biso   1.000  C
  H181     1.0000 0.61230  0.47160  0.18640  Biso   1.000  H
  H182     1.0000 0.88770  0.97160  0.31360  Biso   1.000  H
  H183     1.0000 0.38770  0.52840  0.81360  Biso   1.000  H
  H184     1.0000 0.11230  0.02840  0.68640  Biso   1.000  H
  H185     1.0000 0.63540  0.40760  0.17770  Biso   1.000  H
  H186     1.0000 0.86460  0.90760  0.32230  Biso   1.000  H
  H187     1.0000 0.36460  0.59240  0.82230  Biso   1.000  H
  H188     1.0000 0.13540  0.09240  0.67770  Biso   1.000  H
  H189     1.0000 0.72150  0.45140  0.18110  Biso   1.000  H
  H190     1.0000 0.77850  0.95140  0.31890  Biso   1.000  H
  H191     1.0000 0.27850  0.54860  0.81890  Biso   1.000  H
  H192     1.0000 0.22150  0.04860  0.68110  Biso   1.000  H
  C181     1.0000 0.62390  0.52370  0.38940  Biso   1.000  C
  C182     1.0000 0.87610  0.02370  0.11060  Biso   1.000  C
  C183     1.0000 0.37610  0.47630  0.61060  Biso   1.000  C
  C184     1.0000 0.12390  0.97630  0.88940  Biso   1.000  C
  H193     1.0000 0.67990  0.54810  0.39230  Biso   1.000  H
  H194     1.0000 0.82010  0.04810  0.10770  Biso   1.000  H
  H195     1.0000 0.32010  0.45190  0.60770  Biso   1.000  H
  H196     1.0000 0.17990  0.95190  0.89230  Biso   1.000  H
  H197     1.0000 0.60620  0.51080  0.42640  Biso   1.000  H
  H198     1.0000 0.89380  0.01080  0.07360  Biso   1.000  H
  H199     1.0000 0.39380  0.48920  0.57360  Biso   1.000  H
  H200     1.0000 0.10620  0.98920  0.92640  Biso   1.000  H
  H201     1.0000 0.56970  0.54380  0.37270  Biso   1.000  H
  H202     1.0000 0.93030  0.04380  0.12730  Biso   1.000  H
  H203     1.0000 0.43030  0.45620  0.62730  Biso   1.000  H
  H204     1.0000 0.06970  0.95620  0.87270  Biso   1.000  H
  C185     1.0000 0.68740  0.41530  0.43930  Biso   1.000  C
  C186     1.0000 0.81260  0.91530  0.06070  Biso   1.000  C
  C187     1.0000 0.31260  0.58470  0.56070  Biso   1.000  C
  C188     1.0000 0.18740  0.08470  0.93930  Biso   1.000  C
  H205     1.0000 0.74650  0.39400  0.44790  Biso   1.000  H
  H206     1.0000 0.75350  0.89400  0.05210  Biso   1.000  H
  H207     1.0000 0.25350  0.60600  0.55210  Biso   1.000  H
  H208     1.0000 0.24650  0.10600  0.94790  Biso   1.000  H
  H209     1.0000 0.69520  0.45250  0.45580  Biso   1.000  H
  H210     1.0000 0.80480  0.95250  0.04420  Biso   1.000  H
  H211     1.0000 0.30480  0.54750  0.54420  Biso   1.000  H
  H212     1.0000 0.19520  0.04750  0.95580  Biso   1.000  H
  C189     1.0000 0.60390  0.34700  0.50280  Biso   1.000  C
  C190     1.0000 0.89610  0.84700  0.99720  Biso   1.000  C
  C191     1.0000 0.39610  0.65300  0.49720  Biso   1.000  C
  C192     1.0000 0.10390  0.15300  0.00280  Biso   1.000  C
  H213     1.0000 0.65930  0.32620  0.51300  Biso   1.000  H
  H214     1.0000 0.84070  0.82620  0.98700  Biso   1.000  H
  H215     1.0000 0.34070  0.67380  0.48700  Biso   1.000  H
  H216     1.0000 0.15930  0.17380  0.01300  Biso   1.000  H
  C193     1.0000 0.45990  0.37760  0.49580  Biso   1.000  C
  C194     1.0000 0.04010  0.87760  0.00420  Biso   1.000  C
  C195     1.0000 0.54010  0.62240  0.50420  Biso   1.000  C
  C196     1.0000 0.95990  0.12240  0.99580  Biso   1.000  C
  H217     1.0000 0.39270  0.38170  0.50170  Biso   1.000  H
  H218     1.0000 0.10730  0.88170  0.99830  Biso   1.000  H
  H219     1.0000 0.60730  0.61830  0.49830  Biso   1.000  H
  H220     1.0000 0.89270  0.11830  0.00170  Biso   1.000  H
  C197     1.0000 0.61530  0.53070  0.26980  Biso   1.000  C
  C198     1.0000 0.88470  0.03070  0.23020  Biso   1.000  C
  C199     1.0000 0.38470  0.46930  0.73020  Biso   1.000  C
  C200     1.0000 0.11530  0.96930  0.76980  Biso   1.000  C
  H221     1.0000 0.64330  0.53360  0.23230  Biso   1.000  H
  H222     1.0000 0.85670  0.03360  0.26770  Biso   1.000  H
  H223     1.0000 0.35670  0.46640  0.76770  Biso   1.000  H
  H224     1.0000 0.14330  0.96640  0.73230  Biso   1.000  H
  H225     1.0000 0.64280  0.56080  0.29260  Biso   1.000  H
  H226     1.0000 0.85720  0.06080  0.20740  Biso   1.000  H
  H227     1.0000 0.35720  0.43920  0.70740  Biso   1.000  H
  H228     1.0000 0.14280  0.93920  0.79260  Biso   1.000  H
  C201     1.0000 0.43100  0.50560  0.22840  Biso   1.000  C
  C202     1.0000 0.06900  0.00560  0.27160  Biso   1.000  C
  C203     1.0000 0.56900  0.49440  0.77160  Biso   1.000  C
  C204     1.0000 0.93100  0.99440  0.72840  Biso   1.000  C
  H229     1.0000 0.44670  0.47640  0.20390  Biso   1.000  H
  H230     1.0000 0.05330  0.97640  0.29610  Biso   1.000  H
  H231     1.0000 0.55330  0.52360  0.79610  Biso   1.000  H
  H232     1.0000 0.94670  0.02360  0.70390  Biso   1.000  H
  C205     1.0000 0.34900  0.56690  0.28600  Biso   1.000  C
  C206     1.0000 0.15100  0.06690  0.21400  Biso   1.000  C
  C207     1.0000 0.65100  0.43310  0.71400  Biso   1.000  C
  C208     1.0000 0.84900  0.93310  0.78600  Biso   1.000  C
  H233     1.0000 0.29790  0.58530  0.30390  Biso   1.000  H
  H234     1.0000 0.20210  0.08530  0.19610  Biso   1.000  H
  H235     1.0000 0.70210  0.41470  0.69610  Biso   1.000  H
  H236     1.0000 0.79790  0.91470  0.80390  Biso   1.000  H
  N1       1.0000 0.53630  0.04260  0.17190  Biso   1.000  N
  N2       1.0000 0.96370  0.54260  0.32810  Biso   1.000  N
  N3       1.0000 0.46370  0.95740  0.82810  Biso   1.000  N
  N4       1.0000 0.03630  0.45740  0.67190  Biso   1.000  N
  N5       1.0000 0.53690  0.98600  0.17040  Biso   1.000  N
  N6       1.0000 0.96310  0.48600  0.32960  Biso   1.000  N
  N7       1.0000 0.46310  0.01400  0.82960  Biso   1.000  N
  N8       1.0000 0.03690  0.51400  0.67040  Biso   1.000  N
  N9       1.0000 0.59600  0.02220  0.09070  Biso   1.000  N
  N10      1.0000 0.90400  0.52220  0.40930  Biso   1.000  N
  N11      1.0000 0.40400  0.97780  0.90930  Biso   1.000  N
  N12      1.0000 0.09600  0.47780  0.59070  Biso   1.000  N
  N13      1.0000 0.38290  0.01210  0.42750  Biso   1.000  N
  N14      1.0000 0.11710  0.51210  0.07250  Biso   1.000  N
  N15      1.0000 0.61710  0.98790  0.57250  Biso   1.000  N
  N16      1.0000 0.88290  0.48790  0.92750  Biso   1.000  N
  N17      1.0000 0.38630  0.06080  0.45850  Biso   1.000  N
  N18      1.0000 0.11370  0.56080  0.04150  Biso   1.000  N
  N19      1.0000 0.61370  0.93920  0.54150  Biso   1.000  N
  N20      1.0000 0.88630  0.43920  0.95850  Biso   1.000  N
  N21      1.0000 0.23210  0.03690  0.43770  Biso   1.000  N
  N22      1.0000 0.26790  0.53690  0.06230  Biso   1.000  N
  N23      1.0000 0.76790  0.96310  0.56230  Biso   1.000  N
  N24      1.0000 0.73210  0.46310  0.93770  Biso   1.000  N
  N25      1.0000 0.72150  0.06830  0.85650  Biso   1.000  N
  N26      1.0000 0.77850  0.56830  0.64350  Biso   1.000  N
  N27      1.0000 0.27850  0.93170  0.14350  Biso   1.000  N
  N28      1.0000 0.22150  0.43170  0.35650  Biso   1.000  N
  N29      1.0000 0.71780  0.01240  0.85210  Biso   1.000  N
  N30      1.0000 0.78220  0.51240  0.64790  Biso   1.000  N
  N31      1.0000 0.28220  0.98760  0.14790  Biso   1.000  N
  N32      1.0000 0.21780  0.48760  0.35210  Biso   1.000  N
  N33      1.0000 0.67640  0.03940  0.93960  Biso   1.000  N
  N34      1.0000 0.82360  0.53940  0.56040  Biso   1.000  N
  N35      1.0000 0.32360  0.96060  0.06040  Biso   1.000  N
  N36      1.0000 0.17640  0.46060  0.43960  Biso   1.000  N
  N37      1.0000 0.94060  0.29220  0.88940  Biso   1.000  N
  N38      1.0000 0.55940  0.79220  0.61060  Biso   1.000  N
  N39      1.0000 0.05940  0.70780  0.11060  Biso   1.000  N
  N40      1.0000 0.44060  0.20780  0.38940  Biso   1.000  N
  N41      1.0000 0.03640  0.29870  0.90320  Biso   1.000  N
  N42      1.0000 0.46360  0.79870  0.59680  Biso   1.000  N
  N43      1.0000 0.96360  0.70130  0.09680  Biso   1.000  N
  N44      1.0000 0.53640  0.20130  0.40320  Biso   1.000  N
  N45      1.0000 0.94300  0.29980  0.98030  Biso   1.000  N
  N46      1.0000 0.55700  0.79980  0.51970  Biso   1.000  N
  N47      1.0000 0.05700  0.70020  0.01970  Biso   1.000  N
  N48      1.0000 0.44300  0.20020  0.48030  Biso   1.000  N
  N49      1.0000 0.49670  0.28210  0.76350  Biso   1.000  N
  N50      1.0000 0.00330  0.78210  0.73650  Biso   1.000  N
  N51      1.0000 0.50330  0.71790  0.23650  Biso   1.000  N
  N52      1.0000 0.99670  0.21790  0.26350  Biso   1.000  N
  N53      1.0000 0.39810  0.29050  0.75710  Biso   1.000  N
  N54      1.0000 0.10190  0.79050  0.74290  Biso   1.000  N
  N55      1.0000 0.60190  0.70950  0.24290  Biso   1.000  N
  N56      1.0000 0.89810  0.20950  0.25710  Biso   1.000  N
  N57      1.0000 0.47390  0.29260  0.67260  Biso   1.000  N
  N58      1.0000 0.02610  0.79260  0.82740  Biso   1.000  N
  N59      1.0000 0.52610  0.70740  0.32740  Biso   1.000  N
  N60      1.0000 0.97390  0.20740  0.17260  Biso   1.000  N
  N61      1.0000 0.77650  0.33560  0.20450  Biso   1.000  N
  N62      1.0000 0.72350  0.83560  0.29550  Biso   1.000  N
  N63      1.0000 0.22350  0.66440  0.79550  Biso   1.000  N
  N64      1.0000 0.27650  0.16440  0.70450  Biso   1.000  N
  N65      1.0000 0.86670  0.35080  0.22180  Biso   1.000  N
  N66      1.0000 0.63330  0.85080  0.27820  Biso   1.000  N
  N67      1.0000 0.13330  0.64920  0.77820  Biso   1.000  N
  N68      1.0000 0.36670  0.14920  0.72180  Biso   1.000  N
  N69      1.0000 0.86640  0.32950  0.12970  Biso   1.000  N
  N70      1.0000 0.63360  0.82950  0.37030  Biso   1.000  N
  N71      1.0000 0.13360  0.67050  0.87030  Biso   1.000  N
  N72      1.0000 0.36640  0.17050  0.62970  Biso   1.000  N
  N73      1.0000 0.60330  0.38750  0.46570  Biso   1.000  N
  N74      1.0000 0.89670  0.88750  0.03430  Biso   1.000  N
  N75      1.0000 0.39670  0.61250  0.53430  Biso   1.000  N
  N76      1.0000 0.10330  0.11250  0.96570  Biso   1.000  N
  N77      1.0000 0.50970  0.40790  0.45970  Biso   1.000  N
  N78      1.0000 0.99030  0.90790  0.04030  Biso   1.000  N
  N79      1.0000 0.49030  0.59210  0.54030  Biso   1.000  N
  N80      1.0000 0.00970  0.09210  0.95970  Biso   1.000  N
  N81      1.0000 0.51670  0.33950  0.52370  Biso   1.000  N
  N82      1.0000 0.98330  0.83950  0.97630  Biso   1.000  N
  N83      1.0000 0.48330  0.66050  0.47630  Biso   1.000  N
  N84      1.0000 0.01670  0.16050  0.02370  Biso   1.000  N
  N85      1.0000 0.34100  0.52550  0.23790  Biso   1.000  N
  N86      1.0000 0.15900  0.02550  0.26210  Biso   1.000  N
  N87      1.0000 0.65900  0.47450  0.76210  Biso   1.000  N
  N88      1.0000 0.84100  0.97450  0.73790  Biso   1.000  N
  N89      1.0000 0.44380  0.57170  0.29790  Biso   1.000  N
  N90      1.0000 0.05620  0.07170  0.20210  Biso   1.000  N
  N91      1.0000 0.55620  0.42830  0.70210  Biso   1.000  N
  N92      1.0000 0.94380  0.92830  0.79790  Biso   1.000  N
  N93      1.0000 0.50230  0.53930  0.26490  Biso   1.000  N
  N94      1.0000 0.99770  0.03930  0.23510  Biso   1.000  N
  N95      1.0000 0.49770  0.46070  0.73510  Biso   1.000  N
  N96      1.0000 0.00230  0.96070  0.76490  Biso   1.000  N
  O1       1.0000 0.08450  0.34000  0.08510  Biso   1.000  O
  O2       1.0000 0.41550  0.84000  0.41490  Biso   1.000  O
  O3       1.0000 0.91550  0.66000  0.91490  Biso   1.000  O
  O4       1.0000 0.58450  0.16000  0.58510  Biso   1.000  O
  O5       1.0000 0.18180  0.31650  0.18070  Biso   1.000  O
  O6       1.0000 0.31820  0.81650  0.31930  Biso   1.000  O
  O7       1.0000 0.81820  0.68350  0.81930  Biso   1.000  O
  O8       1.0000 0.68180  0.18350  0.68070  Biso   1.000  O
  O9       1.0000 0.18130  0.23540  0.09930  Biso   1.000  O
  O10      1.0000 0.31870  0.73540  0.40070  Biso   1.000  O
  O11      1.0000 0.81870  0.76460  0.90070  Biso   1.000  O
  O12      1.0000 0.68130  0.26460  0.59930  Biso   1.000  O
  O13      1.0000 0.27910  0.37710  0.10050  Biso   1.000  O
  O14      1.0000 0.22090  0.87710  0.39950  Biso   1.000  O
  O15      1.0000 0.72090  0.62290  0.89950  Biso   1.000  O
  O16      1.0000 0.77910  0.12290  0.60050  Biso   1.000  O
  O17      1.0000 0.24450  0.30440  0.01740  Biso   1.000  O
  O18      1.0000 0.25550  0.80440  0.48260  Biso   1.000  O
  O19      1.0000 0.75550  0.69560  0.98260  Biso   1.000  O
  O20      1.0000 0.74450  0.19560  0.51740  Biso   1.000  O
  O21      1.0000 0.24600  0.12560  0.09910  Biso   1.000  O
  O22      1.0000 0.25400  0.62560  0.40090  Biso   1.000  O
  O23      1.0000 0.75400  0.87440  0.90090  Biso   1.000  O
  O24      1.0000 0.74600  0.37440  0.59910  Biso   1.000  O
  O25      1.0000 0.40700  0.36810  0.19280  Biso   1.000  O
  O26      1.0000 0.09300  0.86810  0.30720  Biso   1.000  O
  O27      1.0000 0.59300  0.63190  0.80720  Biso   1.000  O
  O28      1.0000 0.90700  0.13190  0.69280  Biso   1.000  O
  O29      1.0000 0.45430  0.43470  0.10620  Biso   1.000  O
  O30      1.0000 0.04570  0.93470  0.39380  Biso   1.000  O
  O31      1.0000 0.54570  0.56530  0.89380  Biso   1.000  O
  O32      1.0000 0.95430  0.06530  0.60620  Biso   1.000  O
  O33      1.0000 0.53450  0.32210  0.11480  Biso   1.000  O
  O34      1.0000 0.96550  0.82210  0.38520  Biso   1.000  O
  O35      1.0000 0.46550  0.67790  0.88520  Biso   1.000  O
  O36      1.0000 0.03450  0.17790  0.61480  Biso   1.000  O
  O37      1.0000 0.43440  0.34660  0.02490  Biso   1.000  O
  O38      1.0000 0.06560  0.84660  0.47510  Biso   1.000  O
  O39      1.0000 0.56560  0.65340  0.97510  Biso   1.000  O
  O40      1.0000 0.93440  0.15340  0.52490  Biso   1.000  O
  O41      1.0000 0.36060  0.27560  0.10730  Biso   1.000  O
  O42      1.0000 0.13940  0.77560  0.39270  Biso   1.000  O
  O43      1.0000 0.63940  0.72440  0.89270  Biso   1.000  O
  O44      1.0000 0.86060  0.22440  0.60730  Biso   1.000  O
  O45      1.0000 0.49260  0.24410  0.20120  Biso   1.000  O
  O46      1.0000 0.00740  0.74410  0.29880  Biso   1.000  O
  O47      1.0000 0.50740  0.75590  0.79880  Biso   1.000  O
  O48      1.0000 0.99260  0.25590  0.70120  Biso   1.000  O
  O49      1.0000 0.28580  0.18820  0.19020  Biso   1.000  O
  O50      1.0000 0.21420  0.68820  0.30980  Biso   1.000  O
  O51      1.0000 0.71420  0.81180  0.80980  Biso   1.000  O
  O52      1.0000 0.78580  0.31180  0.69020  Biso   1.000  O
  O53      1.0000 0.43390  0.17490  0.11000  Biso   1.000  O
  O54      1.0000 0.06610  0.67490  0.39000  Biso   1.000  O
  O55      1.0000 0.56610  0.82510  0.89000  Biso   1.000  O
  O56      1.0000 0.93390  0.32510  0.61000  Biso   1.000  O
  O57      1.0000 0.62060  0.21720  0.11970  Biso   1.000  O
  O58      1.0000 0.87940  0.71720  0.38030  Biso   1.000  O
  O59      1.0000 0.37940  0.78280  0.88030  Biso   1.000  O
  O60      1.0000 0.12060  0.28280  0.61970  Biso   1.000  O
  O61      1.0000 0.59230  0.14630  0.03220  Biso   1.000  O
  O62      1.0000 0.90770  0.64630  0.46780  Biso   1.000  O
  O63      1.0000 0.40770  0.85370  0.96780  Biso   1.000  O
  O64      1.0000 0.09230  0.35370  0.53220  Biso   1.000  O
  O65      1.0000 0.61920  0.39610  0.03640  Biso   1.000  O
  O66      1.0000 0.88080  0.89610  0.46360  Biso   1.000  O
  O67      1.0000 0.38080  0.60390  0.96360  Biso   1.000  O
  O68      1.0000 0.11920  0.10390  0.53640  Biso   1.000  O
  O69      1.0000 0.58420  0.32980  0.94640  Biso   1.000  O
  O70      1.0000 0.91580  0.82980  0.55360  Biso   1.000  O
  O71      1.0000 0.41580  0.67020  0.05360  Biso   1.000  O
  O72      1.0000 0.08420  0.17020  0.44640  Biso   1.000  O
  O73      1.0000 0.37210  0.27920  0.93410  Biso   1.000  O
  O74      1.0000 0.12790  0.77920  0.56590  Biso   1.000  O
  O75      1.0000 0.62790  0.72080  0.06590  Biso   1.000  O
  O76      1.0000 0.87210  0.22080  0.43410  Biso   1.000  O
  O77      1.0000 0.50430  0.24590  0.02880  Biso   1.000  O
  O78      1.0000 0.99570  0.74590  0.47120  Biso   1.000  O
  O79      1.0000 0.49570  0.75410  0.97120  Biso   1.000  O
  O80      1.0000 0.00430  0.25410  0.52880  Biso   1.000  O
  O81      1.0000 0.33400  0.20000  0.01910  Biso   1.000  O
  O82      1.0000 0.16600  0.70000  0.48090  Biso   1.000  O
  O83      1.0000 0.66600  0.80000  0.98090  Biso   1.000  O
  O84      1.0000 0.83400  0.30000  0.51910  Biso   1.000  O
  O85      1.0000 0.41510  0.09060  0.02010  Biso   1.000  O
  O86      1.0000 0.08490  0.59060  0.47990  Biso   1.000  O
  O87      1.0000 0.58490  0.90940  0.97990  Biso   1.000  O
  O88      1.0000 0.91510  0.40940  0.52010  Biso   1.000  O
  O89      1.0000 0.46700  0.16120  0.93870  Biso   1.000  O
  O90      1.0000 0.03300  0.66120  0.56130  Biso   1.000  O
  O91      1.0000 0.53300  0.83880  0.06130  Biso   1.000  O
  O92      1.0000 0.96700  0.33880  0.43870  Biso   1.000  O
  O93      1.0000 0.70530  0.20590  0.95990  Biso   1.000  O
  O94      1.0000 0.79470  0.70590  0.54010  Biso   1.000  O
  O95      1.0000 0.29470  0.79410  0.04010  Biso   1.000  O
  O96      1.0000 0.20530  0.29410  0.45990  Biso   1.000  O
  O97      1.0000 0.78730  0.18180  0.06060  Biso   1.000  O
  O98      1.0000 0.71270  0.68180  0.43940  Biso   1.000  O
  O99      1.0000 0.21270  0.81820  0.93940  Biso   1.000  O
  O100     1.0000 0.28730  0.31820  0.56060  Biso   1.000  O
  O101     1.0000 0.68720  0.28620  0.03900  Biso   1.000  O
  O102     1.0000 0.81280  0.78620  0.46100  Biso   1.000  O
  O103     1.0000 0.31280  0.71380  0.96100  Biso   1.000  O
  O104     1.0000 0.18720  0.21380  0.53900  Biso   1.000  O
  C209     1.0000 0.90700  0.09900  0.39650  Biso   1.000  C
  C210     1.0000 0.59300  0.59900  0.10350  Biso   1.000  C
  C211     1.0000 0.09300  0.90100  0.60350  Biso   1.000  C
  C212     1.0000 0.40700  0.40100  0.89650  Biso   1.000  C
  C213     1.0000 0.89230  0.01630  0.41950  Biso   1.000  C
  C214     1.0000 0.60770  0.51630  0.08050  Biso   1.000  C
  C215     1.0000 0.10770  0.98370  0.58050  Biso   1.000  C
  C216     1.0000 0.39230  0.48370  0.91950  Biso   1.000  C
  N97      1.0000 0.81630  0.08980  0.38890  Biso   1.000  N
  N98      1.0000 0.68370  0.58980  0.11110  Biso   1.000  N
  N99      1.0000 0.18370  0.91020  0.61110  Biso   1.000  N
  N100     1.0000 0.31630  0.41020  0.88890  Biso   1.000  N
  N101     1.0000 0.80670  0.03620  0.40270  Biso   1.000  N
  N102     1.0000 0.69330  0.53620  0.09730  Biso   1.000  N
  N103     1.0000 0.19330  0.96380  0.59730  Biso   1.000  N
  N104     1.0000 0.30670  0.46380  0.90270  Biso   1.000  N
  N105     1.0000 0.95770  0.05810  0.41540  Biso   1.000  N
  N106     1.0000 0.54230  0.55810  0.08460  Biso   1.000  N
  N107     1.0000 0.04230  0.94190  0.58460  Biso   1.000  N
  N108     1.0000 0.45770  0.44190  0.91540  Biso   1.000  N
  C217     1.0000 0.96700  0.06930  0.32030  Biso   1.000  C
  C218     1.0000 0.53300  0.56930  0.17970  Biso   1.000  C
  C219     1.0000 0.03300  0.93070  0.67970  Biso   1.000  C
  C220     1.0000 0.46700  0.43070  0.82030  Biso   1.000  C
  N109     1.0000 0.83970  0.10450  0.36120  Biso   1.000  N
  N110     1.0000 0.66030  0.60450  0.13880  Biso   1.000  N
  N111     1.0000 0.16030  0.89550  0.63880  Biso   1.000  N
  N112     1.0000 0.33970  0.39550  0.86120  Biso   1.000  N
  N113     1.0000 0.88400  0.09380  0.30860  Biso   1.000  N
  N114     1.0000 0.61600  0.59380  0.19140  Biso   1.000  N
  N115     1.0000 0.11600  0.90620  0.69140  Biso   1.000  N
  N116     1.0000 0.38400  0.40620  0.80860  Biso   1.000  N
  N117     1.0000 0.98500  0.06830  0.38000  Biso   1.000  N
  N118     1.0000 0.51500  0.56830  0.12000  Biso   1.000  N
  N119     1.0000 0.01500  0.93170  0.62000  Biso   1.000  N
  N120     1.0000 0.48500  0.43170  0.88000  Biso   1.000  N
