data_image0
_cell_length_a       23.5225
_cell_length_b       23.5225
_cell_length_c       40.0703
_cell_angle_alpha    90
_cell_angle_beta     90
_cell_angle_gamma    120

_symmetry_space_group_name_H-M    "P 1"
_symmetry_int_tables_number       1

loop_
  _symmetry_equiv_pos_as_xyz
  'x, y, z'

loop_
  _atom_site_label
  _atom_site_occupancy
  _atom_site_fract_x
  _atom_site_fract_y
  _atom_site_fract_z
  _atom_site_thermal_displace_type
  _atom_site_B_iso_or_equiv
  _atom_site_type_symbol
  Ho1      1.0000 0.58162  0.36400  0.48593  Biso   1.000  Ho
  Ho2      1.0000 0.63600  0.21762  0.48593  Biso   1.000  Ho
  Ho3      1.0000 0.36400  0.58162  0.51407  Biso   1.000  Ho
  Ho4      1.0000 0.78238  0.41838  0.48593  Biso   1.000  Ho
  Ho5      1.0000 0.21762  0.63600  0.51407  Biso   1.000  Ho
  Ho6      1.0000 0.41838  0.78238  0.51407  Biso   1.000  Ho
  Ho7      1.0000 0.24829  0.69733  0.81926  Biso   1.000  Ho
  Ho8      1.0000 0.30267  0.55095  0.81926  Biso   1.000  Ho
  Ho9      1.0000 0.03067  0.91495  0.84740  Biso   1.000  Ho
  Ho10     1.0000 0.44905  0.75171  0.81926  Biso   1.000  Ho
  Ho11     1.0000 0.88429  0.96933  0.84740  Biso   1.000  Ho
  Ho12     1.0000 0.08505  0.11571  0.84740  Biso   1.000  Ho
  Ho13     1.0000 0.91495  0.03067  0.15260  Biso   1.000  Ho
  Ho14     1.0000 0.96933  0.88429  0.15260  Biso   1.000  Ho
  Ho15     1.0000 0.69733  0.24829  0.18074  Biso   1.000  Ho
  Ho16     1.0000 0.11571  0.08505  0.15260  Biso   1.000  Ho
  Ho17     1.0000 0.55095  0.30267  0.18074  Biso   1.000  Ho
  Ho18     1.0000 0.75171  0.44905  0.18074  Biso   1.000  Ho
  Ho19     1.0000 0.66670  0.33330  0.42171  Biso   1.000  Ho
  Ho20     1.0000 0.33330  0.66670  0.57829  Biso   1.000  Ho
  Ho21     1.0000 0.33337  0.66663  0.75504  Biso   1.000  Ho
  Ho22     1.0000 0.99997  0.00003  0.91162  Biso   1.000  Ho
  Ho23     1.0000 0.00003  0.99997  0.08838  Biso   1.000  Ho
  Ho24     1.0000 0.66663  0.33337  0.24496  Biso   1.000  Ho
  I1       1.0000 0.00000  0.00000  0.63562  Biso   1.000  I
  I2       1.0000 0.00000  0.00000  0.36438  Biso   1.000  I
  I3       1.0000 0.66667  0.33333  0.96895  Biso   1.000  I
  I4       1.0000 0.66667  0.33333  0.69771  Biso   1.000  I
  I5       1.0000 0.33333  0.66667  0.30229  Biso   1.000  I
  I6       1.0000 0.33333  0.66667  0.03105  Biso   1.000  I
  Cu1      1.0000 0.00000  0.00000  0.55799  Biso   1.000  Cu
  Cu2      1.0000 0.00000  0.00000  0.44201  Biso   1.000  Cu
  Cu3      1.0000 0.66667  0.33333  0.89132  Biso   1.000  Cu
  Cu4      1.0000 0.66667  0.33333  0.77534  Biso   1.000  Cu
  Cu5      1.0000 0.33333  0.66667  0.22466  Biso   1.000  Cu
  Cu6      1.0000 0.33333  0.66667  0.10868  Biso   1.000  Cu
  Cu7      1.0000 0.14011  0.09681  0.66378  Biso   1.000  Cu
  Cu8      1.0000 0.90319  0.04330  0.66378  Biso   1.000  Cu
  Cu9      1.0000 0.09681  0.14011  0.33622  Biso   1.000  Cu
  Cu10     1.0000 0.95670  0.85989  0.66378  Biso   1.000  Cu
  Cu11     1.0000 0.04330  0.90319  0.33622  Biso   1.000  Cu
  Cu12     1.0000 0.85989  0.95670  0.33622  Biso   1.000  Cu
  Cu13     1.0000 0.80678  0.43014  0.99711  Biso   1.000  Cu
  Cu14     1.0000 0.56986  0.37663  0.99711  Biso   1.000  Cu
  Cu15     1.0000 0.76348  0.47344  0.66955  Biso   1.000  Cu
  Cu16     1.0000 0.62337  0.19322  0.99711  Biso   1.000  Cu
  Cu17     1.0000 0.70997  0.23652  0.66955  Biso   1.000  Cu
  Cu18     1.0000 0.52656  0.29003  0.66955  Biso   1.000  Cu
  Cu19     1.0000 0.47344  0.76348  0.33045  Biso   1.000  Cu
  Cu20     1.0000 0.23652  0.70997  0.33045  Biso   1.000  Cu
  Cu21     1.0000 0.43014  0.80678  0.00289  Biso   1.000  Cu
  Cu22     1.0000 0.29003  0.52656  0.33045  Biso   1.000  Cu
  Cu23     1.0000 0.37663  0.56986  0.00289  Biso   1.000  Cu
  Cu24     1.0000 0.19322  0.62337  0.00289  Biso   1.000  Cu
  Cu25     1.0000 0.00000  0.00000  0.71250  Biso   1.000  Cu
  Cu26     1.0000 0.00000  0.00000  0.28750  Biso   1.000  Cu
  Cu27     1.0000 0.66667  0.33333  0.04583  Biso   1.000  Cu
  Cu28     1.0000 0.66667  0.33333  0.62083  Biso   1.000  Cu
  Cu29     1.0000 0.33333  0.66667  0.37917  Biso   1.000  Cu
  Cu30     1.0000 0.33333  0.66667  0.95417  Biso   1.000  Cu
  Cu31     1.0000 0.03828  0.13178  0.61155  Biso   1.000  Cu
  Cu32     1.0000 0.86822  0.90650  0.61155  Biso   1.000  Cu
  Cu33     1.0000 0.13178  0.03828  0.38845  Biso   1.000  Cu
  Cu34     1.0000 0.09350  0.96172  0.61155  Biso   1.000  Cu
  Cu35     1.0000 0.90650  0.86822  0.38845  Biso   1.000  Cu
  Cu36     1.0000 0.96172  0.09350  0.38845  Biso   1.000  Cu
  Cu37     1.0000 0.70495  0.46511  0.94488  Biso   1.000  Cu
  Cu38     1.0000 0.53489  0.23983  0.94488  Biso   1.000  Cu
  Cu39     1.0000 0.79845  0.37161  0.72178  Biso   1.000  Cu
  Cu40     1.0000 0.76017  0.29505  0.94488  Biso   1.000  Cu
  Cu41     1.0000 0.57317  0.20155  0.72178  Biso   1.000  Cu
  Cu42     1.0000 0.62839  0.42683  0.72178  Biso   1.000  Cu
  Cu43     1.0000 0.37161  0.79845  0.27822  Biso   1.000  Cu
  Cu44     1.0000 0.20155  0.57317  0.27822  Biso   1.000  Cu
  Cu45     1.0000 0.46511  0.70495  0.05512  Biso   1.000  Cu
  Cu46     1.0000 0.42683  0.62839  0.27822  Biso   1.000  Cu
  Cu47     1.0000 0.23983  0.53489  0.05512  Biso   1.000  Cu
  Cu48     1.0000 0.29505  0.76017  0.05512  Biso   1.000  Cu
  O1       1.0000 0.64520  0.44290  0.52479  Biso   1.000  O
  O2       1.0000 0.55710  0.20230  0.52479  Biso   1.000  O
  O3       1.0000 0.44290  0.64520  0.47521  Biso   1.000  O
  O4       1.0000 0.79770  0.35480  0.52479  Biso   1.000  O
  O5       1.0000 0.20230  0.55710  0.47521  Biso   1.000  O
  O6       1.0000 0.35480  0.79770  0.47521  Biso   1.000  O
  O7       1.0000 0.31187  0.77623  0.85812  Biso   1.000  O
  O8       1.0000 0.22377  0.53563  0.85812  Biso   1.000  O
  O9       1.0000 0.10957  0.97853  0.80854  Biso   1.000  O
  O10      1.0000 0.46437  0.68813  0.85812  Biso   1.000  O
  O11      1.0000 0.86897  0.89043  0.80854  Biso   1.000  O
  O12      1.0000 0.02147  0.13103  0.80854  Biso   1.000  O
  O13      1.0000 0.97853  0.10957  0.19146  Biso   1.000  O
  O14      1.0000 0.89043  0.86897  0.19146  Biso   1.000  O
  O15      1.0000 0.77623  0.31187  0.14188  Biso   1.000  O
  O16      1.0000 0.13103  0.02147  0.19146  Biso   1.000  O
  O17      1.0000 0.53563  0.22377  0.14188  Biso   1.000  O
  O18      1.0000 0.68813  0.46437  0.14188  Biso   1.000  O
  O19      1.0000 0.73500  0.43410  0.53203  Biso   1.000  O
  O20      1.0000 0.56590  0.30090  0.53203  Biso   1.000  O
  O21      1.0000 0.43410  0.73500  0.46797  Biso   1.000  O
  O22      1.0000 0.69910  0.26500  0.53203  Biso   1.000  O
  O23      1.0000 0.30090  0.56590  0.46797  Biso   1.000  O
  O24      1.0000 0.26500  0.69910  0.46797  Biso   1.000  O
  O25      1.0000 0.40167  0.76743  0.86536  Biso   1.000  O
  O26      1.0000 0.23257  0.63423  0.86536  Biso   1.000  O
  O27      1.0000 0.10077  0.06833  0.80130  Biso   1.000  O
  O28      1.0000 0.36577  0.59833  0.86536  Biso   1.000  O
  O29      1.0000 0.96757  0.89923  0.80130  Biso   1.000  O
  O30      1.0000 0.93167  0.03243  0.80130  Biso   1.000  O
  O31      1.0000 0.06833  0.10077  0.19870  Biso   1.000  O
  O32      1.0000 0.89923  0.96757  0.19870  Biso   1.000  O
  O33      1.0000 0.76743  0.40167  0.13464  Biso   1.000  O
  O34      1.0000 0.03243  0.93167  0.19870  Biso   1.000  O
  O35      1.0000 0.63423  0.23257  0.13464  Biso   1.000  O
  O36      1.0000 0.59833  0.36577  0.13464  Biso   1.000  O
  O37      1.0000 0.57450  0.35360  0.42157  Biso   1.000  O
  O38      1.0000 0.64640  0.22090  0.42157  Biso   1.000  O
  O39      1.0000 0.35360  0.57450  0.57843  Biso   1.000  O
  O40      1.0000 0.77910  0.42550  0.42157  Biso   1.000  O
  O41      1.0000 0.22090  0.64640  0.57843  Biso   1.000  O
  O42      1.0000 0.42550  0.77910  0.57843  Biso   1.000  O
  O43      1.0000 0.24117  0.68693  0.75490  Biso   1.000  O
  O44      1.0000 0.31307  0.55423  0.75490  Biso   1.000  O
  O45      1.0000 0.02027  0.90783  0.91176  Biso   1.000  O
  O46      1.0000 0.44577  0.75883  0.75490  Biso   1.000  O
  O47      1.0000 0.88757  0.97973  0.91176  Biso   1.000  O
  O48      1.0000 0.09217  0.11243  0.91176  Biso   1.000  O
  O49      1.0000 0.90783  0.02027  0.08824  Biso   1.000  O
  O50      1.0000 0.97973  0.88757  0.08824  Biso   1.000  O
  O51      1.0000 0.68693  0.24117  0.24510  Biso   1.000  O
  O52      1.0000 0.11243  0.09217  0.08824  Biso   1.000  O
  O53      1.0000 0.55423  0.31307  0.24510  Biso   1.000  O
  O54      1.0000 0.75883  0.44577  0.24510  Biso   1.000  O
  O55      1.0000 0.48960  0.36280  0.51628  Biso   1.000  O
  O56      1.0000 0.63720  0.12680  0.51628  Biso   1.000  O
  O57      1.0000 0.36280  0.48960  0.48372  Biso   1.000  O
  O58      1.0000 0.87320  0.51040  0.51628  Biso   1.000  O
  O59      1.0000 0.12680  0.63720  0.48372  Biso   1.000  O
  O60      1.0000 0.51040  0.87320  0.48372  Biso   1.000  O
  O61      1.0000 0.15627  0.69613  0.84961  Biso   1.000  O
  O62      1.0000 0.30387  0.46013  0.84961  Biso   1.000  O
  O63      1.0000 0.02947  0.82293  0.81705  Biso   1.000  O
  O64      1.0000 0.53987  0.84373  0.84961  Biso   1.000  O
  O65      1.0000 0.79347  0.97053  0.81705  Biso   1.000  O
  O66      1.0000 0.17707  0.20653  0.81705  Biso   1.000  O
  O67      1.0000 0.82293  0.02947  0.18295  Biso   1.000  O
  O68      1.0000 0.97053  0.79347  0.18295  Biso   1.000  O
  O69      1.0000 0.69613  0.15627  0.15039  Biso   1.000  O
  O70      1.0000 0.20653  0.17707  0.18295  Biso   1.000  O
  O71      1.0000 0.46013  0.30387  0.15039  Biso   1.000  O
  O72      1.0000 0.84373  0.53987  0.15039  Biso   1.000  O
  O73      1.0000 0.64620  0.39450  0.38020  Biso   1.000  O
  O74      1.0000 0.60550  0.25170  0.38020  Biso   1.000  O
  O75      1.0000 0.39450  0.64620  0.61980  Biso   1.000  O
  O76      1.0000 0.74830  0.35380  0.38020  Biso   1.000  O
  O77      1.0000 0.25170  0.60550  0.61980  Biso   1.000  O
  O78      1.0000 0.35380  0.74830  0.61980  Biso   1.000  O
  O79      1.0000 0.31287  0.72783  0.71353  Biso   1.000  O
  O80      1.0000 0.27217  0.58503  0.71353  Biso   1.000  O
  O81      1.0000 0.06117  0.97953  0.95313  Biso   1.000  O
  O82      1.0000 0.41497  0.68713  0.71353  Biso   1.000  O
  O83      1.0000 0.91837  0.93883  0.95313  Biso   1.000  O
  O84      1.0000 0.02047  0.08163  0.95313  Biso   1.000  O
  O85      1.0000 0.97953  0.06117  0.04687  Biso   1.000  O
  O86      1.0000 0.93883  0.91837  0.04687  Biso   1.000  O
  O87      1.0000 0.72783  0.31287  0.28647  Biso   1.000  O
  O88      1.0000 0.08163  0.02047  0.04687  Biso   1.000  O
  O89      1.0000 0.58503  0.27217  0.28647  Biso   1.000  O
  O90      1.0000 0.68713  0.41497  0.28647  Biso   1.000  O
  N1       1.0000 0.37280  0.52450  0.33241  Biso   1.000  N
  N2       1.0000 0.47550  0.84830  0.33241  Biso   1.000  N
  N3       1.0000 0.52450  0.37280  0.66759  Biso   1.000  N
  N4       1.0000 0.15170  0.62720  0.33241  Biso   1.000  N
  N5       1.0000 0.84830  0.47550  0.66759  Biso   1.000  N
  N6       1.0000 0.62720  0.15170  0.66759  Biso   1.000  N
  N7       1.0000 0.03947  0.85783  0.66574  Biso   1.000  N
  N8       1.0000 0.14217  0.18163  0.66574  Biso   1.000  N
  N9       1.0000 0.19117  0.70613  0.00092  Biso   1.000  N
  N10      1.0000 0.81837  0.96053  0.66574  Biso   1.000  N
  N11      1.0000 0.51497  0.80883  0.00092  Biso   1.000  N
  N12      1.0000 0.29387  0.48503  0.00092  Biso   1.000  N
  N13      1.0000 0.70613  0.19117  0.99908  Biso   1.000  N
  N14      1.0000 0.80883  0.51497  0.99908  Biso   1.000  N
  N15      1.0000 0.85783  0.03947  0.33426  Biso   1.000  N
  N16      1.0000 0.48503  0.29387  0.99908  Biso   1.000  N
  N17      1.0000 0.18163  0.14217  0.33426  Biso   1.000  N
  N18      1.0000 0.96053  0.81837  0.33426  Biso   1.000  N
  O91      1.0000 0.66920  0.51280  0.43710  Biso   1.000  O
  O92      1.0000 0.48720  0.15640  0.43710  Biso   1.000  O
  O93      1.0000 0.51280  0.66920  0.56290  Biso   1.000  O
  O94      1.0000 0.84360  0.33080  0.43710  Biso   1.000  O
  O95      1.0000 0.15640  0.48720  0.56290  Biso   1.000  O
  O96      1.0000 0.33080  0.84360  0.56290  Biso   1.000  O
  O97      1.0000 0.33587  0.84613  0.77043  Biso   1.000  O
  O98      1.0000 0.15387  0.48973  0.77043  Biso   1.000  O
  O99      1.0000 0.17947  0.00253  0.89623  Biso   1.000  O
  O100     1.0000 0.51027  0.66413  0.77043  Biso   1.000  O
  O101     1.0000 0.82307  0.82053  0.89623  Biso   1.000  O
  O102     1.0000 0.99747  0.17693  0.89623  Biso   1.000  O
  O103     1.0000 0.00253  0.17947  0.10377  Biso   1.000  O
  O104     1.0000 0.82053  0.82307  0.10377  Biso   1.000  O
  O105     1.0000 0.84613  0.33587  0.22957  Biso   1.000  O
  O106     1.0000 0.17693  0.99747  0.10377  Biso   1.000  O
  O107     1.0000 0.48973  0.15387  0.22957  Biso   1.000  O
  O108     1.0000 0.66413  0.51027  0.22957  Biso   1.000  O
  N19      1.0000 0.41250  0.66040  0.38269  Biso   1.000  N
  N20      1.0000 0.33960  0.75210  0.38269  Biso   1.000  N
  N21      1.0000 0.66040  0.41250  0.61731  Biso   1.000  N
  N22      1.0000 0.24790  0.58750  0.38269  Biso   1.000  N
  N23      1.0000 0.75210  0.33960  0.61731  Biso   1.000  N
  N24      1.0000 0.58750  0.24790  0.61731  Biso   1.000  N
  N25      1.0000 0.07917  0.99373  0.71602  Biso   1.000  N
  N26      1.0000 0.00627  0.08543  0.71602  Biso   1.000  N
  N27      1.0000 0.32707  0.74583  0.95064  Biso   1.000  N
  N28      1.0000 0.91457  0.92083  0.71602  Biso   1.000  N
  N29      1.0000 0.41877  0.67293  0.95064  Biso   1.000  N
  N30      1.0000 0.25417  0.58123  0.95064  Biso   1.000  N
  N31      1.0000 0.74583  0.32707  0.04936  Biso   1.000  N
  N32      1.0000 0.67293  0.41877  0.04936  Biso   1.000  N
  N33      1.0000 0.99373  0.07917  0.28398  Biso   1.000  N
  N34      1.0000 0.58123  0.25417  0.04936  Biso   1.000  N
  N35      1.0000 0.08543  0.00627  0.28398  Biso   1.000  N
  N36      1.0000 0.92083  0.91457  0.28398  Biso   1.000  N
  C1       1.0000 0.45050  0.31270  0.50050  Biso   1.000  C
  C2       1.0000 0.68730  0.13780  0.50050  Biso   1.000  C
  C3       1.0000 0.31270  0.45050  0.49950  Biso   1.000  C
  C4       1.0000 0.86220  0.54950  0.50050  Biso   1.000  C
  C5       1.0000 0.13780  0.68730  0.49950  Biso   1.000  C
  C6       1.0000 0.54950  0.86220  0.49950  Biso   1.000  C
  C7       1.0000 0.11717  0.64603  0.83383  Biso   1.000  C
  C8       1.0000 0.35397  0.47113  0.83383  Biso   1.000  C
  C9       1.0000 0.97937  0.78383  0.83283  Biso   1.000  C
  C10      1.0000 0.52887  0.88283  0.83383  Biso   1.000  C
  C11      1.0000 0.80447  0.02063  0.83283  Biso   1.000  C
  C12      1.0000 0.21617  0.19553  0.83283  Biso   1.000  C
  C13      1.0000 0.78383  0.97937  0.16717  Biso   1.000  C
  C14      1.0000 0.02063  0.80447  0.16717  Biso   1.000  C
  C15      1.0000 0.64603  0.11717  0.16617  Biso   1.000  C
  C16      1.0000 0.19553  0.21617  0.16717  Biso   1.000  C
  C17      1.0000 0.47113  0.35397  0.16617  Biso   1.000  C
  C18      1.0000 0.88283  0.52887  0.16617  Biso   1.000  C
  O109     1.0000 0.46940  0.29070  0.47605  Biso   1.000  O
  O110     1.0000 0.70930  0.17870  0.47605  Biso   1.000  O
  O111     1.0000 0.29070  0.46940  0.52395  Biso   1.000  O
  O112     1.0000 0.82130  0.53060  0.47605  Biso   1.000  O
  O113     1.0000 0.17870  0.70930  0.52395  Biso   1.000  O
  O114     1.0000 0.53060  0.82130  0.52395  Biso   1.000  O
  O115     1.0000 0.13607  0.62403  0.80938  Biso   1.000  O
  O116     1.0000 0.37597  0.51203  0.80938  Biso   1.000  O
  O117     1.0000 0.95737  0.80273  0.85728  Biso   1.000  O
  O118     1.0000 0.48797  0.86393  0.80938  Biso   1.000  O
  O119     1.0000 0.84537  0.04263  0.85728  Biso   1.000  O
  O120     1.0000 0.19727  0.15463  0.85728  Biso   1.000  O
  O121     1.0000 0.80273  0.95737  0.14272  Biso   1.000  O
  O122     1.0000 0.04263  0.84537  0.14272  Biso   1.000  O
  O123     1.0000 0.62403  0.13607  0.19062  Biso   1.000  O
  O124     1.0000 0.15463  0.19727  0.14272  Biso   1.000  O
  O125     1.0000 0.51203  0.37597  0.19062  Biso   1.000  O
  O126     1.0000 0.86393  0.48797  0.19062  Biso   1.000  O
  C19      1.0000 0.71810  0.57660  0.54180  Biso   1.000  C
  C20      1.0000 0.42340  0.14150  0.54180  Biso   1.000  C
  C21      1.0000 0.57660  0.71810  0.45820  Biso   1.000  C
  C22      1.0000 0.85850  0.28190  0.54180  Biso   1.000  C
  C23      1.0000 0.14150  0.42340  0.45820  Biso   1.000  C
  C24      1.0000 0.28190  0.85850  0.45820  Biso   1.000  C
  C25      1.0000 0.38477  0.90993  0.87513  Biso   1.000  C
  C26      1.0000 0.09007  0.47483  0.87513  Biso   1.000  C
  C27      1.0000 0.24327  0.05143  0.79153  Biso   1.000  C
  C28      1.0000 0.52517  0.61523  0.87513  Biso   1.000  C
  C29      1.0000 0.80817  0.75673  0.79153  Biso   1.000  C
  C30      1.0000 0.94857  0.19183  0.79153  Biso   1.000  C
  C31      1.0000 0.05143  0.24327  0.20847  Biso   1.000  C
  C32      1.0000 0.75673  0.80817  0.20847  Biso   1.000  C
  C33      1.0000 0.90993  0.38477  0.12487  Biso   1.000  C
  C34      1.0000 0.19183  0.94857  0.20847  Biso   1.000  C
  C35      1.0000 0.47483  0.09007  0.12487  Biso   1.000  C
  C36      1.0000 0.61523  0.52517  0.12487  Biso   1.000  C
  H1       1.0000 0.68420  0.56530  0.52660  Biso   1.000  H
  H2       1.0000 0.43470  0.11890  0.52660  Biso   1.000  H
  H3       1.0000 0.56530  0.68420  0.47340  Biso   1.000  H
  H4       1.0000 0.88110  0.31580  0.52660  Biso   1.000  H
  H5       1.0000 0.11890  0.43470  0.47340  Biso   1.000  H
  H6       1.0000 0.31580  0.88110  0.47340  Biso   1.000  H
  H7       1.0000 0.35087  0.89863  0.85993  Biso   1.000  H
  H8       1.0000 0.10137  0.45223  0.85993  Biso   1.000  H
  H9       1.0000 0.23197  0.01753  0.80673  Biso   1.000  H
  H10      1.0000 0.54777  0.64913  0.85993  Biso   1.000  H
  H11      1.0000 0.78557  0.76803  0.80673  Biso   1.000  H
  H12      1.0000 0.98247  0.21443  0.80673  Biso   1.000  H
  H13      1.0000 0.01753  0.23197  0.19327  Biso   1.000  H
  H14      1.0000 0.76803  0.78557  0.19327  Biso   1.000  H
  H15      1.0000 0.89863  0.35087  0.14007  Biso   1.000  H
  H16      1.0000 0.21443  0.98247  0.19327  Biso   1.000  H
  H17      1.0000 0.45223  0.10137  0.14007  Biso   1.000  H
  H18      1.0000 0.64913  0.54777  0.14007  Biso   1.000  H
  C37      1.0000 0.42570  0.62080  0.40050  Biso   1.000  C
  C38      1.0000 0.37920  0.80490  0.40050  Biso   1.000  C
  C39      1.0000 0.62080  0.42570  0.59950  Biso   1.000  C
  C40      1.0000 0.19510  0.57430  0.40050  Biso   1.000  C
  C41      1.0000 0.80490  0.37920  0.59950  Biso   1.000  C
  C42      1.0000 0.57430  0.19510  0.59950  Biso   1.000  C
  C43      1.0000 0.09237  0.95413  0.73383  Biso   1.000  C
  C44      1.0000 0.04587  0.13823  0.73383  Biso   1.000  C
  C45      1.0000 0.28747  0.75903  0.93283  Biso   1.000  C
  C46      1.0000 0.86177  0.90763  0.73383  Biso   1.000  C
  C47      1.0000 0.47157  0.71253  0.93283  Biso   1.000  C
  C48      1.0000 0.24097  0.52843  0.93283  Biso   1.000  C
  C49      1.0000 0.75903  0.28747  0.06717  Biso   1.000  C
  C50      1.0000 0.71253  0.47157  0.06717  Biso   1.000  C
  C51      1.0000 0.95413  0.09237  0.26617  Biso   1.000  C
  C52      1.0000 0.52843  0.24097  0.06717  Biso   1.000  C
  C53      1.0000 0.13823  0.04587  0.26617  Biso   1.000  C
  C54      1.0000 0.90763  0.86177  0.26617  Biso   1.000  C
  H19      1.0000 0.39770  0.59080  0.41630  Biso   1.000  H
  H20      1.0000 0.40920  0.80690  0.41630  Biso   1.000  H
  H21      1.0000 0.59080  0.39770  0.58370  Biso   1.000  H
  H22      1.0000 0.19310  0.60230  0.41630  Biso   1.000  H
  H23      1.0000 0.80690  0.40920  0.58370  Biso   1.000  H
  H24      1.0000 0.60230  0.19310  0.58370  Biso   1.000  H
  H25      1.0000 0.06437  0.92413  0.74963  Biso   1.000  H
  H26      1.0000 0.07587  0.14023  0.74963  Biso   1.000  H
  H27      1.0000 0.25747  0.73103  0.91703  Biso   1.000  H
  H28      1.0000 0.85977  0.93563  0.74963  Biso   1.000  H
  H29      1.0000 0.47357  0.74253  0.91703  Biso   1.000  H
  H30      1.0000 0.26897  0.52643  0.91703  Biso   1.000  H
  H31      1.0000 0.73103  0.25747  0.08297  Biso   1.000  H
  H32      1.0000 0.74253  0.47357  0.08297  Biso   1.000  H
  H33      1.0000 0.92413  0.06437  0.25037  Biso   1.000  H
  H34      1.0000 0.52643  0.26897  0.08297  Biso   1.000  H
  H35      1.0000 0.14023  0.07587  0.25037  Biso   1.000  H
  H36      1.0000 0.93563  0.85977  0.25037  Biso   1.000  H
  N37      1.0000 0.08610  0.08360  0.55453  Biso   1.000  N
  N38      1.0000 0.91640  0.00250  0.55453  Biso   1.000  N
  N39      1.0000 0.08360  0.08610  0.44547  Biso   1.000  N
  N40      1.0000 0.99750  0.91390  0.55453  Biso   1.000  N
  N41      1.0000 0.00250  0.91640  0.44547  Biso   1.000  N
  N42      1.0000 0.91390  0.99750  0.44547  Biso   1.000  N
  N43      1.0000 0.75277  0.41693  0.88786  Biso   1.000  N
  N44      1.0000 0.58307  0.33583  0.88786  Biso   1.000  N
  N45      1.0000 0.75027  0.41943  0.77880  Biso   1.000  N
  N46      1.0000 0.66417  0.24723  0.88786  Biso   1.000  N
  N47      1.0000 0.66917  0.24973  0.77880  Biso   1.000  N
  N48      1.0000 0.58057  0.33083  0.77880  Biso   1.000  N
  N49      1.0000 0.41943  0.75027  0.22120  Biso   1.000  N
  N50      1.0000 0.24973  0.66917  0.22120  Biso   1.000  N
  N51      1.0000 0.41693  0.75277  0.11214  Biso   1.000  N
  N52      1.0000 0.33083  0.58057  0.22120  Biso   1.000  N
  N53      1.0000 0.33583  0.58307  0.11214  Biso   1.000  N
  N54      1.0000 0.24723  0.66417  0.11214  Biso   1.000  N
  N55      1.0000 0.86100  0.82010  0.60665  Biso   1.000  N
  N56      1.0000 0.17990  0.04090  0.60665  Biso   1.000  N
  N57      1.0000 0.82010  0.86100  0.39335  Biso   1.000  N
  N58      1.0000 0.95910  0.13900  0.60665  Biso   1.000  N
  N59      1.0000 0.04090  0.17990  0.39335  Biso   1.000  N
  N60      1.0000 0.13900  0.95910  0.39335  Biso   1.000  N
  N61      1.0000 0.52767  0.15343  0.93998  Biso   1.000  N
  N62      1.0000 0.84657  0.37423  0.93998  Biso   1.000  N
  N63      1.0000 0.48677  0.19433  0.72668  Biso   1.000  N
  N64      1.0000 0.62577  0.47233  0.93998  Biso   1.000  N
  N65      1.0000 0.70757  0.51323  0.72668  Biso   1.000  N
  N66      1.0000 0.80567  0.29243  0.72668  Biso   1.000  N
  N67      1.0000 0.19433  0.48677  0.27332  Biso   1.000  N
  N68      1.0000 0.51323  0.70757  0.27332  Biso   1.000  N
  N69      1.0000 0.15343  0.52767  0.06002  Biso   1.000  N
  N70      1.0000 0.29243  0.80567  0.27332  Biso   1.000  N
  N71      1.0000 0.37423  0.84657  0.06002  Biso   1.000  N
  N72      1.0000 0.47233  0.62577  0.06002  Biso   1.000  N
  N73      1.0000 0.44900  0.49870  0.34060  Biso   1.000  N
  N74      1.0000 0.50130  0.95030  0.34060  Biso   1.000  N
  N75      1.0000 0.49870  0.44900  0.65940  Biso   1.000  N
  N76      1.0000 0.04970  0.55100  0.34060  Biso   1.000  N
  N77      1.0000 0.95030  0.50130  0.65940  Biso   1.000  N
  N78      1.0000 0.55100  0.04970  0.65940  Biso   1.000  N
  N79      1.0000 0.11567  0.83203  0.67393  Biso   1.000  N
  N80      1.0000 0.16797  0.28363  0.67393  Biso   1.000  N
  N81      1.0000 0.16537  0.78233  0.99273  Biso   1.000  N
  N82      1.0000 0.71637  0.88433  0.67393  Biso   1.000  N
  N83      1.0000 0.61697  0.83463  0.99273  Biso   1.000  N
  N84      1.0000 0.21767  0.38303  0.99273  Biso   1.000  N
  N85      1.0000 0.78233  0.16537  0.00727  Biso   1.000  N
  N86      1.0000 0.83463  0.61697  0.00727  Biso   1.000  N
  N87      1.0000 0.83203  0.11567  0.32607  Biso   1.000  N
  N88      1.0000 0.38303  0.21767  0.00727  Biso   1.000  N
  N89      1.0000 0.28363  0.16797  0.32607  Biso   1.000  N
  N90      1.0000 0.88433  0.71637  0.32607  Biso   1.000  N
  N91      1.0000 0.89980  0.80270  0.62530  Biso   1.000  N
  N92      1.0000 0.19730  0.09710  0.62530  Biso   1.000  N
  N93      1.0000 0.80270  0.89980  0.37470  Biso   1.000  N
  N94      1.0000 0.90290  0.10020  0.62530  Biso   1.000  N
  N95      1.0000 0.09710  0.19730  0.37470  Biso   1.000  N
  N96      1.0000 0.10020  0.90290  0.37470  Biso   1.000  N
  N97      1.0000 0.56647  0.13603  0.95863  Biso   1.000  N
  N98      1.0000 0.86397  0.43043  0.95863  Biso   1.000  N
  N99      1.0000 0.46937  0.23313  0.70803  Biso   1.000  N
  N100     1.0000 0.56957  0.43353  0.95863  Biso   1.000  N
  N101     1.0000 0.76377  0.53063  0.70803  Biso   1.000  N
  N102     1.0000 0.76687  0.23623  0.70803  Biso   1.000  N
  N103     1.0000 0.23313  0.46937  0.29197  Biso   1.000  N
  N104     1.0000 0.53063  0.76377  0.29197  Biso   1.000  N
  N105     1.0000 0.13603  0.56647  0.04137  Biso   1.000  N
  N106     1.0000 0.23623  0.76687  0.29197  Biso   1.000  N
  N107     1.0000 0.43043  0.86397  0.04137  Biso   1.000  N
  N108     1.0000 0.43353  0.56957  0.04137  Biso   1.000  N
  N109     1.0000 0.83230  0.71970  0.59459  Biso   1.000  N
  N110     1.0000 0.28030  0.11260  0.59459  Biso   1.000  N
  N111     1.0000 0.71970  0.83230  0.40541  Biso   1.000  N
  N112     1.0000 0.88740  0.16770  0.59459  Biso   1.000  N
  N113     1.0000 0.11260  0.28030  0.40541  Biso   1.000  N
  N114     1.0000 0.16770  0.88740  0.40541  Biso   1.000  N
  N115     1.0000 0.49897  0.05303  0.92792  Biso   1.000  N
  N116     1.0000 0.94697  0.44593  0.92792  Biso   1.000  N
  N117     1.0000 0.38637  0.16563  0.73874  Biso   1.000  N
  N118     1.0000 0.55407  0.50103  0.92792  Biso   1.000  N
  N119     1.0000 0.77927  0.61363  0.73874  Biso   1.000  N
  N120     1.0000 0.83437  0.22073  0.73874  Biso   1.000  N
  N121     1.0000 0.16563  0.38637  0.26126  Biso   1.000  N
  N122     1.0000 0.61363  0.77927  0.26126  Biso   1.000  N
  N123     1.0000 0.05303  0.49897  0.07208  Biso   1.000  N
  N124     1.0000 0.22073  0.83437  0.26126  Biso   1.000  N
  N125     1.0000 0.44593  0.94697  0.07208  Biso   1.000  N
  N126     1.0000 0.50103  0.55407  0.07208  Biso   1.000  N
  C55      1.0000 0.74950  0.63910  0.55620  Biso   1.000  C
  C56      1.0000 0.36090  0.11040  0.55620  Biso   1.000  C
  C57      1.0000 0.63910  0.74950  0.44380  Biso   1.000  C
  C58      1.0000 0.88960  0.25050  0.55620  Biso   1.000  C
  C59      1.0000 0.11040  0.36090  0.44380  Biso   1.000  C
  C60      1.0000 0.25050  0.88960  0.44380  Biso   1.000  C
  C61      1.0000 0.41617  0.97243  0.88953  Biso   1.000  C
  C62      1.0000 0.02757  0.44373  0.88953  Biso   1.000  C
  C63      1.0000 0.30577  0.08283  0.77713  Biso   1.000  C
  C64      1.0000 0.55627  0.58383  0.88953  Biso   1.000  C
  C65      1.0000 0.77707  0.69423  0.77713  Biso   1.000  C
  C66      1.0000 0.91717  0.22293  0.77713  Biso   1.000  C
  C67      1.0000 0.08283  0.30577  0.22287  Biso   1.000  C
  C68      1.0000 0.69423  0.77707  0.22287  Biso   1.000  C
  C69      1.0000 0.97243  0.41617  0.11047  Biso   1.000  C
  C70      1.0000 0.22293  0.91717  0.22287  Biso   1.000  C
  C71      1.0000 0.44373  0.02757  0.11047  Biso   1.000  C
  C72      1.0000 0.58383  0.55627  0.11047  Biso   1.000  C
  H37      1.0000 0.73770  0.67010  0.55020  Biso   1.000  H
  H38      1.0000 0.32990  0.06760  0.55020  Biso   1.000  H
  H39      1.0000 0.67010  0.73770  0.44980  Biso   1.000  H
  H40      1.0000 0.93240  0.26230  0.55020  Biso   1.000  H
  H41      1.0000 0.06760  0.32990  0.44980  Biso   1.000  H
  H42      1.0000 0.26230  0.93240  0.44980  Biso   1.000  H
  H43      1.0000 0.40437  0.00343  0.88353  Biso   1.000  H
  H44      1.0000 0.99657  0.40093  0.88353  Biso   1.000  H
  H45      1.0000 0.33677  0.07103  0.78313  Biso   1.000  H
  H46      1.0000 0.59907  0.59563  0.88353  Biso   1.000  H
  H47      1.0000 0.73427  0.66323  0.78313  Biso   1.000  H
  H48      1.0000 0.92897  0.26573  0.78313  Biso   1.000  H
  H49      1.0000 0.07103  0.33677  0.21687  Biso   1.000  H
  H50      1.0000 0.66323  0.73427  0.21687  Biso   1.000  H
  H51      1.0000 0.00343  0.40437  0.11647  Biso   1.000  H
  H52      1.0000 0.26573  0.92897  0.21687  Biso   1.000  H
  H53      1.0000 0.40093  0.99657  0.11647  Biso   1.000  H
  H54      1.0000 0.59563  0.59907  0.11647  Biso   1.000  H
  C73      1.0000 0.29160  0.26630  0.54480  Biso   1.000  C
  C74      1.0000 0.73370  0.02530  0.54480  Biso   1.000  C
  C75      1.0000 0.26630  0.29160  0.45520  Biso   1.000  C
  C76      1.0000 0.97470  0.70840  0.54480  Biso   1.000  C
  C77      1.0000 0.02530  0.73370  0.45520  Biso   1.000  C
  C78      1.0000 0.70840  0.97470  0.45520  Biso   1.000  C
  C79      1.0000 0.95827  0.59963  0.87813  Biso   1.000  C
  C80      1.0000 0.40037  0.35863  0.87813  Biso   1.000  C
  C81      1.0000 0.93297  0.62493  0.78853  Biso   1.000  C
  C82      1.0000 0.64137  0.04173  0.87813  Biso   1.000  C
  C83      1.0000 0.69197  0.06703  0.78853  Biso   1.000  C
  C84      1.0000 0.37507  0.30803  0.78853  Biso   1.000  C
  C85      1.0000 0.62493  0.93297  0.21147  Biso   1.000  C
  C86      1.0000 0.06703  0.69197  0.21147  Biso   1.000  C
  C87      1.0000 0.59963  0.95827  0.12187  Biso   1.000  C
  C88      1.0000 0.30803  0.37507  0.21147  Biso   1.000  C
  C89      1.0000 0.35863  0.40037  0.12187  Biso   1.000  C
  C90      1.0000 0.04173  0.64137  0.12187  Biso   1.000  C
  H55      1.0000 0.27540  0.28520  0.55960  Biso   1.000  H
  H56      1.0000 0.71480  0.99020  0.55960  Biso   1.000  H
  H57      1.0000 0.28520  0.27540  0.44040  Biso   1.000  H
  H58      1.0000 0.00980  0.72460  0.55960  Biso   1.000  H
  H59      1.0000 0.99020  0.71480  0.44040  Biso   1.000  H
  H60      1.0000 0.72460  0.00980  0.44040  Biso   1.000  H
  H61      1.0000 0.94207  0.61853  0.89293  Biso   1.000  H
  H62      1.0000 0.38147  0.32353  0.89293  Biso   1.000  H
  H63      1.0000 0.95187  0.60873  0.77373  Biso   1.000  H
  H64      1.0000 0.67647  0.05793  0.89293  Biso   1.000  H
  H65      1.0000 0.65687  0.04813  0.77373  Biso   1.000  H
  H66      1.0000 0.39127  0.34313  0.77373  Biso   1.000  H
  H67      1.0000 0.60873  0.95187  0.22627  Biso   1.000  H
  H68      1.0000 0.04813  0.65687  0.22627  Biso   1.000  H
  H69      1.0000 0.61853  0.94207  0.10707  Biso   1.000  H
  H70      1.0000 0.34313  0.39127  0.22627  Biso   1.000  H
  H71      1.0000 0.32353  0.38147  0.10707  Biso   1.000  H
  H72      1.0000 0.05793  0.67647  0.10707  Biso   1.000  H
  N127     1.0000 0.42640  0.56610  0.31393  Biso   1.000  N
  N128     1.0000 0.43390  0.86030  0.31393  Biso   1.000  N
  N129     1.0000 0.56610  0.42640  0.68607  Biso   1.000  N
  N130     1.0000 0.13970  0.57360  0.31393  Biso   1.000  N
  N131     1.0000 0.86030  0.43390  0.68607  Biso   1.000  N
  N132     1.0000 0.57360  0.13970  0.68607  Biso   1.000  N
  N133     1.0000 0.09307  0.89943  0.64726  Biso   1.000  N
  N134     1.0000 0.10057  0.19363  0.64726  Biso   1.000  N
  N135     1.0000 0.23277  0.75973  0.01940  Biso   1.000  N
  N136     1.0000 0.80637  0.90693  0.64726  Biso   1.000  N
  N137     1.0000 0.52697  0.76723  0.01940  Biso   1.000  N
  N138     1.0000 0.24027  0.47303  0.01940  Biso   1.000  N
  N139     1.0000 0.75973  0.23277  0.98060  Biso   1.000  N
  N140     1.0000 0.76723  0.52697  0.98060  Biso   1.000  N
  N141     1.0000 0.89943  0.09307  0.35274  Biso   1.000  N
  N142     1.0000 0.47303  0.24027  0.98060  Biso   1.000  N
  N143     1.0000 0.19363  0.10057  0.35274  Biso   1.000  N
  N144     1.0000 0.90693  0.80637  0.35274  Biso   1.000  N
  C91      1.0000 0.73690  0.53160  0.55010  Biso   1.000  C
  C92      1.0000 0.46840  0.20530  0.55010  Biso   1.000  C
  C93      1.0000 0.53160  0.73690  0.44990  Biso   1.000  C
  C94      1.0000 0.79470  0.26310  0.55010  Biso   1.000  C
  C95      1.0000 0.20530  0.46840  0.44990  Biso   1.000  C
  C96      1.0000 0.26310  0.79470  0.44990  Biso   1.000  C
  C97      1.0000 0.40357  0.86493  0.88343  Biso   1.000  C
  C98      1.0000 0.13507  0.53863  0.88343  Biso   1.000  C
  C99      1.0000 0.19827  0.07023  0.78323  Biso   1.000  C
  C100     1.0000 0.46137  0.59643  0.88343  Biso   1.000  C
  C101     1.0000 0.87197  0.80173  0.78323  Biso   1.000  C
  C102     1.0000 0.92977  0.12803  0.78323  Biso   1.000  C
  C103     1.0000 0.07023  0.19827  0.21677  Biso   1.000  C
  C104     1.0000 0.80173  0.87197  0.21677  Biso   1.000  C
  C105     1.0000 0.86493  0.40357  0.11657  Biso   1.000  C
  C106     1.0000 0.12803  0.92977  0.21677  Biso   1.000  C
  C107     1.0000 0.53863  0.13507  0.11657  Biso   1.000  C
  C108     1.0000 0.59643  0.46137  0.11657  Biso   1.000  C
  N145     1.0000 0.18570  0.16430  0.54556  Biso   1.000  N
  N146     1.0000 0.83570  0.02140  0.54556  Biso   1.000  N
  N147     1.0000 0.16430  0.18570  0.45444  Biso   1.000  N
  N148     1.0000 0.97860  0.81430  0.54556  Biso   1.000  N
  N149     1.0000 0.02140  0.83570  0.45444  Biso   1.000  N
  N150     1.0000 0.81430  0.97860  0.45444  Biso   1.000  N
  N151     1.0000 0.85237  0.49763  0.87889  Biso   1.000  N
  N152     1.0000 0.50237  0.35473  0.87889  Biso   1.000  N
  N153     1.0000 0.83097  0.51903  0.78777  Biso   1.000  N
  N154     1.0000 0.64527  0.14763  0.87889  Biso   1.000  N
  N155     1.0000 0.68807  0.16903  0.78777  Biso   1.000  N
  N156     1.0000 0.48097  0.31193  0.78777  Biso   1.000  N
  N157     1.0000 0.51903  0.83097  0.21223  Biso   1.000  N
  N158     1.0000 0.16903  0.68807  0.21223  Biso   1.000  N
  N159     1.0000 0.49763  0.85237  0.12111  Biso   1.000  N
  N160     1.0000 0.31193  0.48097  0.21223  Biso   1.000  N
  N161     1.0000 0.35473  0.50237  0.12111  Biso   1.000  N
  N162     1.0000 0.14763  0.64527  0.12111  Biso   1.000  N
  C109     1.0000 0.78770  0.54830  0.57250  Biso   1.000  C
  C110     1.0000 0.45170  0.23940  0.57250  Biso   1.000  C
  C111     1.0000 0.54830  0.78770  0.42750  Biso   1.000  C
  C112     1.0000 0.76060  0.21230  0.57250  Biso   1.000  C
  C113     1.0000 0.23940  0.45170  0.42750  Biso   1.000  C
  C114     1.0000 0.21230  0.76060  0.42750  Biso   1.000  C
  C115     1.0000 0.45437  0.88163  0.90583  Biso   1.000  C
  C116     1.0000 0.11837  0.57273  0.90583  Biso   1.000  C
  C117     1.0000 0.21497  0.12103  0.76083  Biso   1.000  C
  C118     1.0000 0.42727  0.54563  0.90583  Biso   1.000  C
  C119     1.0000 0.90607  0.78503  0.76083  Biso   1.000  C
  C120     1.0000 0.87897  0.09393  0.76083  Biso   1.000  C
  C121     1.0000 0.12103  0.21497  0.23917  Biso   1.000  C
  C122     1.0000 0.78503  0.90607  0.23917  Biso   1.000  C
  C123     1.0000 0.88163  0.45437  0.09417  Biso   1.000  C
  C124     1.0000 0.09393  0.87897  0.23917  Biso   1.000  C
  C125     1.0000 0.57273  0.11837  0.09417  Biso   1.000  C
  C126     1.0000 0.54563  0.42727  0.09417  Biso   1.000  C
  H73      1.0000 0.80110  0.51820  0.57750  Biso   1.000  H
  H74      1.0000 0.48180  0.28290  0.57750  Biso   1.000  H
  H75      1.0000 0.51820  0.80110  0.42250  Biso   1.000  H
  H76      1.0000 0.71710  0.19890  0.57750  Biso   1.000  H
  H77      1.0000 0.28290  0.48180  0.42250  Biso   1.000  H
  H78      1.0000 0.19890  0.71710  0.42250  Biso   1.000  H
  H79      1.0000 0.46777  0.85153  0.91083  Biso   1.000  H
  H80      1.0000 0.14847  0.61623  0.91083  Biso   1.000  H
  H81      1.0000 0.18487  0.13443  0.75583  Biso   1.000  H
  H82      1.0000 0.38377  0.53223  0.91083  Biso   1.000  H
  H83      1.0000 0.94957  0.81513  0.75583  Biso   1.000  H
  H84      1.0000 0.86557  0.05043  0.75583  Biso   1.000  H
  H85      1.0000 0.13443  0.18487  0.24417  Biso   1.000  H
  H86      1.0000 0.81513  0.94957  0.24417  Biso   1.000  H
  H87      1.0000 0.85153  0.46777  0.08917  Biso   1.000  H
  H88      1.0000 0.05043  0.86557  0.24417  Biso   1.000  H
  H89      1.0000 0.61623  0.14847  0.08917  Biso   1.000  H
  H90      1.0000 0.53223  0.38377  0.08917  Biso   1.000  H
  N163     1.0000 0.09660  0.13460  0.57583  Biso   1.000  N
  N164     1.0000 0.86540  0.96200  0.57583  Biso   1.000  N
  N165     1.0000 0.13460  0.09660  0.42417  Biso   1.000  N
  N166     1.0000 0.03800  0.90340  0.57583  Biso   1.000  N
  N167     1.0000 0.96200  0.86540  0.42417  Biso   1.000  N
  N168     1.0000 0.90340  0.03800  0.42417  Biso   1.000  N
  N169     1.0000 0.76327  0.46793  0.90916  Biso   1.000  N
  N170     1.0000 0.53207  0.29533  0.90916  Biso   1.000  N
  N171     1.0000 0.80127  0.42993  0.75750  Biso   1.000  N
  N172     1.0000 0.70467  0.23673  0.90916  Biso   1.000  N
  N173     1.0000 0.62867  0.19873  0.75750  Biso   1.000  N
  N174     1.0000 0.57007  0.37133  0.75750  Biso   1.000  N
  N175     1.0000 0.42993  0.80127  0.24250  Biso   1.000  N
  N176     1.0000 0.19873  0.62867  0.24250  Biso   1.000  N
  N177     1.0000 0.46793  0.76327  0.09084  Biso   1.000  N
  N178     1.0000 0.37133  0.57007  0.24250  Biso   1.000  N
  N179     1.0000 0.29533  0.53207  0.09084  Biso   1.000  N
  N180     1.0000 0.23673  0.70467  0.09084  Biso   1.000  N
  N181     1.0000 0.46690  0.69720  0.36283  Biso   1.000  N
  N182     1.0000 0.30280  0.76970  0.36283  Biso   1.000  N
  N183     1.0000 0.69720  0.46690  0.63717  Biso   1.000  N
  N184     1.0000 0.23030  0.53310  0.36283  Biso   1.000  N
  N185     1.0000 0.76970  0.30280  0.63717  Biso   1.000  N
  N186     1.0000 0.53310  0.23030  0.63717  Biso   1.000  N
  N187     1.0000 0.13357  0.03053  0.69616  Biso   1.000  N
  N188     1.0000 0.96947  0.10303  0.69616  Biso   1.000  N
  N189     1.0000 0.36387  0.80023  0.97050  Biso   1.000  N
  N190     1.0000 0.89697  0.86643  0.69616  Biso   1.000  N
  N191     1.0000 0.43637  0.63613  0.97050  Biso   1.000  N
  N192     1.0000 0.19977  0.56363  0.97050  Biso   1.000  N
  N193     1.0000 0.80023  0.36387  0.02950  Biso   1.000  N
  N194     1.0000 0.63613  0.43637  0.02950  Biso   1.000  N
  N195     1.0000 0.03053  0.13357  0.30384  Biso   1.000  N
  N196     1.0000 0.56363  0.19977  0.02950  Biso   1.000  N
  N197     1.0000 0.10303  0.96947  0.30384  Biso   1.000  N
  N198     1.0000 0.86643  0.89697  0.30384  Biso   1.000  N
  C127     1.0000 0.48260  0.46460  0.35290  Biso   1.000  C
  C128     1.0000 0.53540  0.01800  0.35290  Biso   1.000  C
  C129     1.0000 0.46460  0.48260  0.64710  Biso   1.000  C
  C130     1.0000 0.98200  0.51740  0.35290  Biso   1.000  C
  C131     1.0000 0.01800  0.53540  0.64710  Biso   1.000  C
  C132     1.0000 0.51740  0.98200  0.64710  Biso   1.000  C
  C133     1.0000 0.14927  0.79793  0.68623  Biso   1.000  C
  C134     1.0000 0.20207  0.35133  0.68623  Biso   1.000  C
  C135     1.0000 0.13127  0.81593  0.98043  Biso   1.000  C
  C136     1.0000 0.64867  0.85073  0.68623  Biso   1.000  C
  C137     1.0000 0.68467  0.86873  0.98043  Biso   1.000  C
  C138     1.0000 0.18407  0.31533  0.98043  Biso   1.000  C
  C139     1.0000 0.81593  0.13127  0.01957  Biso   1.000  C
  C140     1.0000 0.86873  0.68467  0.01957  Biso   1.000  C
  C141     1.0000 0.79793  0.14927  0.31377  Biso   1.000  C
  C142     1.0000 0.31533  0.18407  0.01957  Biso   1.000  C
  C143     1.0000 0.35133  0.20207  0.31377  Biso   1.000  C
  C144     1.0000 0.85073  0.64867  0.31377  Biso   1.000  C
  C145     1.0000 0.82210  0.77000  0.58900  Biso   1.000  C
  C146     1.0000 0.23000  0.05210  0.58900  Biso   1.000  C
  C147     1.0000 0.77000  0.82210  0.41100  Biso   1.000  C
  C148     1.0000 0.94790  0.17790  0.58900  Biso   1.000  C
  C149     1.0000 0.05210  0.23000  0.41100  Biso   1.000  C
  C150     1.0000 0.17790  0.94790  0.41100  Biso   1.000  C
  C151     1.0000 0.48877  0.10333  0.92233  Biso   1.000  C
  C152     1.0000 0.89667  0.38543  0.92233  Biso   1.000  C
  C153     1.0000 0.43667  0.15543  0.74433  Biso   1.000  C
  C154     1.0000 0.61457  0.51123  0.92233  Biso   1.000  C
  C155     1.0000 0.71877  0.56333  0.74433  Biso   1.000  C
  C156     1.0000 0.84457  0.28123  0.74433  Biso   1.000  C
  C157     1.0000 0.15543  0.43667  0.25567  Biso   1.000  C
  C158     1.0000 0.56333  0.71877  0.25567  Biso   1.000  C
  C159     1.0000 0.10333  0.48877  0.07767  Biso   1.000  C
  C160     1.0000 0.28123  0.84457  0.25567  Biso   1.000  C
  C161     1.0000 0.38543  0.89667  0.07767  Biso   1.000  C
  C162     1.0000 0.51123  0.61457  0.07767  Biso   1.000  C
  H91      1.0000 0.79090  0.76870  0.57420  Biso   1.000  H
  H92      1.0000 0.23130  0.02220  0.57420  Biso   1.000  H
  H93      1.0000 0.76870  0.79090  0.42580  Biso   1.000  H
  H94      1.0000 0.97780  0.20910  0.57420  Biso   1.000  H
  H95      1.0000 0.02220  0.23130  0.42580  Biso   1.000  H
  H96      1.0000 0.20910  0.97780  0.42580  Biso   1.000  H
  H97      1.0000 0.45757  0.10203  0.90753  Biso   1.000  H
  H98      1.0000 0.89797  0.35553  0.90753  Biso   1.000  H
  H99      1.0000 0.43537  0.12423  0.75913  Biso   1.000  H
  H100     1.0000 0.64447  0.54243  0.90753  Biso   1.000  H
  H101     1.0000 0.68887  0.56463  0.75913  Biso   1.000  H
  H102     1.0000 0.87577  0.31113  0.75913  Biso   1.000  H
  H103     1.0000 0.12423  0.43537  0.24087  Biso   1.000  H
  H104     1.0000 0.56463  0.68887  0.24087  Biso   1.000  H
  H105     1.0000 0.10203  0.45757  0.09247  Biso   1.000  H
  H106     1.0000 0.31113  0.87577  0.24087  Biso   1.000  H
  H107     1.0000 0.35553  0.89797  0.09247  Biso   1.000  H
  H108     1.0000 0.54243  0.64447  0.09247  Biso   1.000  H
  C163     1.0000 0.49300  0.55900  0.43490  Biso   1.000  C
  C164     1.0000 0.44100  0.93400  0.43490  Biso   1.000  C
  C165     1.0000 0.55900  0.49300  0.56510  Biso   1.000  C
  C166     1.0000 0.06600  0.50700  0.43490  Biso   1.000  C
  C167     1.0000 0.93400  0.44100  0.56510  Biso   1.000  C
  C168     1.0000 0.50700  0.06600  0.56510  Biso   1.000  C
  C169     1.0000 0.15967  0.89233  0.76823  Biso   1.000  C
  C170     1.0000 0.10767  0.26733  0.76823  Biso   1.000  C
  C171     1.0000 0.22567  0.82633  0.89843  Biso   1.000  C
  C172     1.0000 0.73267  0.84033  0.76823  Biso   1.000  C
  C173     1.0000 0.60067  0.77433  0.89843  Biso   1.000  C
  C174     1.0000 0.17367  0.39933  0.89843  Biso   1.000  C
  C175     1.0000 0.82633  0.22567  0.10157  Biso   1.000  C
  C176     1.0000 0.77433  0.60067  0.10157  Biso   1.000  C
  C177     1.0000 0.89233  0.15967  0.23177  Biso   1.000  C
  C178     1.0000 0.39933  0.17367  0.10157  Biso   1.000  C
  C179     1.0000 0.26733  0.10767  0.23177  Biso   1.000  C
  C180     1.0000 0.84033  0.73267  0.23177  Biso   1.000  C
  H109     1.0000 0.45450  0.55330  0.44450  Biso   1.000  H
  H110     1.0000 0.44670  0.90120  0.44450  Biso   1.000  H
  H111     1.0000 0.55330  0.45450  0.55550  Biso   1.000  H
  H112     1.0000 0.09880  0.54550  0.44450  Biso   1.000  H
  H113     1.0000 0.90120  0.44670  0.55550  Biso   1.000  H
  H114     1.0000 0.54550  0.09880  0.55550  Biso   1.000  H
  H115     1.0000 0.12117  0.88663  0.77783  Biso   1.000  H
  H116     1.0000 0.11337  0.23453  0.77783  Biso   1.000  H
  H117     1.0000 0.21997  0.78783  0.88883  Biso   1.000  H
  H118     1.0000 0.76547  0.87883  0.77783  Biso   1.000  H
  H119     1.0000 0.56787  0.78003  0.88883  Biso   1.000  H
  H120     1.0000 0.21217  0.43213  0.88883  Biso   1.000  H
  H121     1.0000 0.78783  0.21997  0.11117  Biso   1.000  H
  H122     1.0000 0.78003  0.56787  0.11117  Biso   1.000  H
  H123     1.0000 0.88663  0.12117  0.22217  Biso   1.000  H
  H124     1.0000 0.43213  0.21217  0.11117  Biso   1.000  H
  H125     1.0000 0.23453  0.11337  0.22217  Biso   1.000  H
  H126     1.0000 0.87883  0.76547  0.22217  Biso   1.000  H
  C181     1.0000 0.61390  0.49880  0.44780  Biso   1.000  C
  C182     1.0000 0.50120  0.11510  0.44780  Biso   1.000  C
  C183     1.0000 0.49880  0.61390  0.55220  Biso   1.000  C
  C184     1.0000 0.88490  0.38610  0.44780  Biso   1.000  C
  C185     1.0000 0.11510  0.50120  0.55220  Biso   1.000  C
  C186     1.0000 0.38610  0.88490  0.55220  Biso   1.000  C
  C187     1.0000 0.28057  0.83213  0.78113  Biso   1.000  C
  C188     1.0000 0.16787  0.44843  0.78113  Biso   1.000  C
  C189     1.0000 0.16547  0.94723  0.88553  Biso   1.000  C
  C190     1.0000 0.55157  0.71943  0.78113  Biso   1.000  C
  C191     1.0000 0.78177  0.83453  0.88553  Biso   1.000  C
  C192     1.0000 0.05277  0.21823  0.88553  Biso   1.000  C
  C193     1.0000 0.94723  0.16547  0.11447  Biso   1.000  C
  C194     1.0000 0.83453  0.78177  0.11447  Biso   1.000  C
  C195     1.0000 0.83213  0.28057  0.21887  Biso   1.000  C
  C196     1.0000 0.21823  0.05277  0.11447  Biso   1.000  C
  C197     1.0000 0.44843  0.16787  0.21887  Biso   1.000  C
  C198     1.0000 0.71943  0.55157  0.21887  Biso   1.000  C
  O127     1.0000 0.57860  0.45240  0.46670  Biso   1.000  O
  O128     1.0000 0.54760  0.12620  0.46670  Biso   1.000  O
  O129     1.0000 0.45240  0.57860  0.53330  Biso   1.000  O
  O130     1.0000 0.87380  0.42140  0.46670  Biso   1.000  O
  O131     1.0000 0.12620  0.54760  0.53330  Biso   1.000  O
  O132     1.0000 0.42140  0.87380  0.53330  Biso   1.000  O
  O133     1.0000 0.24527  0.78573  0.80003  Biso   1.000  O
  O134     1.0000 0.21427  0.45953  0.80003  Biso   1.000  O
  O135     1.0000 0.11907  0.91193  0.86663  Biso   1.000  O
  O136     1.0000 0.54047  0.75473  0.80003  Biso   1.000  O
  O137     1.0000 0.79287  0.88093  0.86663  Biso   1.000  O
  O138     1.0000 0.08807  0.20713  0.86663  Biso   1.000  O
  O139     1.0000 0.91193  0.11907  0.13337  Biso   1.000  O
  O140     1.0000 0.88093  0.79287  0.13337  Biso   1.000  O
  O141     1.0000 0.78573  0.24527  0.19997  Biso   1.000  O
  O142     1.0000 0.20713  0.08807  0.13337  Biso   1.000  O
  O143     1.0000 0.45953  0.21427  0.19997  Biso   1.000  O
  O144     1.0000 0.75473  0.54047  0.19997  Biso   1.000  O
  C199     1.0000 0.33880  0.21240  0.49860  Biso   1.000  C
  C200     1.0000 0.78760  0.12640  0.49860  Biso   1.000  C
  C201     1.0000 0.21240  0.33880  0.50140  Biso   1.000  C
  C202     1.0000 0.87360  0.66120  0.49860  Biso   1.000  C
  C203     1.0000 0.12640  0.78760  0.50140  Biso   1.000  C
  C204     1.0000 0.66120  0.87360  0.50140  Biso   1.000  C
  C205     1.0000 0.00547  0.54573  0.83193  Biso   1.000  C
  C206     1.0000 0.45427  0.45973  0.83193  Biso   1.000  C
  C207     1.0000 0.87907  0.67213  0.83473  Biso   1.000  C
  C208     1.0000 0.54027  0.99453  0.83193  Biso   1.000  C
  C209     1.0000 0.79307  0.12093  0.83473  Biso   1.000  C
  C210     1.0000 0.32787  0.20693  0.83473  Biso   1.000  C
  C211     1.0000 0.67213  0.87907  0.16527  Biso   1.000  C
  C212     1.0000 0.12093  0.79307  0.16527  Biso   1.000  C
  C213     1.0000 0.54573  0.00547  0.16807  Biso   1.000  C
  C214     1.0000 0.20693  0.32787  0.16527  Biso   1.000  C
  C215     1.0000 0.45973  0.45427  0.16807  Biso   1.000  C
  C216     1.0000 0.99453  0.54027  0.16807  Biso   1.000  C
  H127     1.0000 0.35500  0.19490  0.48300  Biso   1.000  H
  H128     1.0000 0.80510  0.16010  0.48300  Biso   1.000  H
  H129     1.0000 0.19490  0.35500  0.51700  Biso   1.000  H
  H130     1.0000 0.83990  0.64500  0.48300  Biso   1.000  H
  H131     1.0000 0.16010  0.80510  0.51700  Biso   1.000  H
  H132     1.0000 0.64500  0.83990  0.51700  Biso   1.000  H
  H133     1.0000 0.02167  0.52823  0.81633  Biso   1.000  H
  H134     1.0000 0.47177  0.49343  0.81633  Biso   1.000  H
  H135     1.0000 0.86157  0.68833  0.85033  Biso   1.000  H
  H136     1.0000 0.50657  0.97833  0.81633  Biso   1.000  H
  H137     1.0000 0.82677  0.13843  0.85033  Biso   1.000  H
  H138     1.0000 0.31167  0.17323  0.85033  Biso   1.000  H
  H139     1.0000 0.68833  0.86157  0.14967  Biso   1.000  H
  H140     1.0000 0.13843  0.82677  0.14967  Biso   1.000  H
  H141     1.0000 0.52823  0.02167  0.18367  Biso   1.000  H
  H142     1.0000 0.17323  0.31167  0.14967  Biso   1.000  H
  H143     1.0000 0.49343  0.47177  0.18367  Biso   1.000  H
  H144     1.0000 0.97833  0.50657  0.18367  Biso   1.000  H
  C217     1.0000 0.52530  0.52870  0.44860  Biso   1.000  C
  C218     1.0000 0.47130  0.99660  0.44860  Biso   1.000  C
  C219     1.0000 0.52870  0.52530  0.55140  Biso   1.000  C
  C220     1.0000 0.00340  0.47470  0.44860  Biso   1.000  C
  C221     1.0000 0.99660  0.47130  0.55140  Biso   1.000  C
  C222     1.0000 0.47470  0.00340  0.55140  Biso   1.000  C
  C223     1.0000 0.19197  0.86203  0.78193  Biso   1.000  C
  C224     1.0000 0.13797  0.32993  0.78193  Biso   1.000  C
  C225     1.0000 0.19537  0.85863  0.88473  Biso   1.000  C
  C226     1.0000 0.67007  0.80803  0.78193  Biso   1.000  C
  C227     1.0000 0.66327  0.80463  0.88473  Biso   1.000  C
  C228     1.0000 0.14137  0.33673  0.88473  Biso   1.000  C
  C229     1.0000 0.85863  0.19537  0.11527  Biso   1.000  C
  C230     1.0000 0.80463  0.66327  0.11527  Biso   1.000  C
  C231     1.0000 0.86203  0.19197  0.21807  Biso   1.000  C
  C232     1.0000 0.33673  0.14137  0.11527  Biso   1.000  C
  C233     1.0000 0.32993  0.13797  0.21807  Biso   1.000  C
  C234     1.0000 0.80803  0.67007  0.21807  Biso   1.000  C
  H145     1.0000 0.50820  0.50210  0.46740  Biso   1.000  H
  H146     1.0000 0.49790  0.00610  0.46740  Biso   1.000  H
  H147     1.0000 0.50210  0.50820  0.53260  Biso   1.000  H
  H148     1.0000 0.99390  0.49180  0.46740  Biso   1.000  H
  H149     1.0000 0.00610  0.49790  0.53260  Biso   1.000  H
  H150     1.0000 0.49180  0.99390  0.53260  Biso   1.000  H
  H151     1.0000 0.17487  0.83543  0.80073  Biso   1.000  H
  H152     1.0000 0.16457  0.33943  0.80073  Biso   1.000  H
  H153     1.0000 0.16877  0.84153  0.86593  Biso   1.000  H
  H154     1.0000 0.66057  0.82513  0.80073  Biso   1.000  H
  H155     1.0000 0.67277  0.83123  0.86593  Biso   1.000  H
  H156     1.0000 0.15847  0.32723  0.86593  Biso   1.000  H
  H157     1.0000 0.84153  0.16877  0.13407  Biso   1.000  H
  H158     1.0000 0.83123  0.67277  0.13407  Biso   1.000  H
  H159     1.0000 0.83543  0.17487  0.19927  Biso   1.000  H
  H160     1.0000 0.32723  0.15847  0.13407  Biso   1.000  H
  H161     1.0000 0.33943  0.16457  0.19927  Biso   1.000  H
  H162     1.0000 0.82513  0.66057  0.19927  Biso   1.000  H
  C235     1.0000 0.38690  0.48430  0.34860  Biso   1.000  C
  C236     1.0000 0.51570  0.90260  0.34860  Biso   1.000  C
  C237     1.0000 0.48430  0.38690  0.65140  Biso   1.000  C
  C238     1.0000 0.09740  0.61310  0.34860  Biso   1.000  C
  C239     1.0000 0.90260  0.51570  0.65140  Biso   1.000  C
  C240     1.0000 0.61310  0.09740  0.65140  Biso   1.000  C
  C241     1.0000 0.05357  0.81763  0.68193  Biso   1.000  C
  C242     1.0000 0.18237  0.23593  0.68193  Biso   1.000  C
  C243     1.0000 0.15097  0.72023  0.98473  Biso   1.000  C
  C244     1.0000 0.76407  0.94643  0.68193  Biso   1.000  C
  C245     1.0000 0.56927  0.84903  0.98473  Biso   1.000  C
  C246     1.0000 0.27977  0.43073  0.98473  Biso   1.000  C
  C247     1.0000 0.72023  0.15097  0.01527  Biso   1.000  C
  C248     1.0000 0.84903  0.56927  0.01527  Biso   1.000  C
  C249     1.0000 0.81763  0.05357  0.31807  Biso   1.000  C
  C250     1.0000 0.43073  0.27977  0.01527  Biso   1.000  C
  C251     1.0000 0.23593  0.18237  0.31807  Biso   1.000  C
  C252     1.0000 0.94643  0.76407  0.31807  Biso   1.000  C
  H163     1.0000 0.35890  0.45130  0.36310  Biso   1.000  H
  H164     1.0000 0.54870  0.90760  0.36310  Biso   1.000  H
  H165     1.0000 0.45130  0.35890  0.63690  Biso   1.000  H
  H166     1.0000 0.09240  0.64110  0.36310  Biso   1.000  H
  H167     1.0000 0.90760  0.54870  0.63690  Biso   1.000  H
  H168     1.0000 0.64110  0.09240  0.63690  Biso   1.000  H
  H169     1.0000 0.02557  0.78463  0.69643  Biso   1.000  H
  H170     1.0000 0.21537  0.24093  0.69643  Biso   1.000  H
  H171     1.0000 0.11797  0.69223  0.97023  Biso   1.000  H
  H172     1.0000 0.75907  0.97443  0.69643  Biso   1.000  H
  H173     1.0000 0.57427  0.88203  0.97023  Biso   1.000  H
  H174     1.0000 0.30777  0.42573  0.97023  Biso   1.000  H
  H175     1.0000 0.69223  0.11797  0.02977  Biso   1.000  H
  H176     1.0000 0.88203  0.57427  0.02977  Biso   1.000  H
  H177     1.0000 0.78463  0.02557  0.30357  Biso   1.000  H
  H178     1.0000 0.42573  0.30777  0.02977  Biso   1.000  H
  H179     1.0000 0.24093  0.21537  0.30357  Biso   1.000  H
  H180     1.0000 0.97443  0.75907  0.30357  Biso   1.000  H
  C253     1.0000 0.47040  0.54940  0.31880  Biso   1.000  C
  C254     1.0000 0.45060  0.92100  0.31880  Biso   1.000  C
  C255     1.0000 0.54940  0.47040  0.68120  Biso   1.000  C
  C256     1.0000 0.07900  0.52960  0.31880  Biso   1.000  C
  C257     1.0000 0.92100  0.45060  0.68120  Biso   1.000  C
  C258     1.0000 0.52960  0.07900  0.68120  Biso   1.000  C
  C259     1.0000 0.13707  0.88273  0.65213  Biso   1.000  C
  C260     1.0000 0.11727  0.25433  0.65213  Biso   1.000  C
  C261     1.0000 0.21607  0.80373  0.01453  Biso   1.000  C
  C262     1.0000 0.74567  0.86293  0.65213  Biso   1.000  C
  C263     1.0000 0.58767  0.78393  0.01453  Biso   1.000  C
  C264     1.0000 0.19627  0.41233  0.01453  Biso   1.000  C
  C265     1.0000 0.80373  0.21607  0.98547  Biso   1.000  C
  C266     1.0000 0.78393  0.58767  0.98547  Biso   1.000  C
  C267     1.0000 0.88273  0.13707  0.34787  Biso   1.000  C
  C268     1.0000 0.41233  0.19627  0.98547  Biso   1.000  C
  C269     1.0000 0.25433  0.11727  0.34787  Biso   1.000  C
  C270     1.0000 0.86293  0.74567  0.34787  Biso   1.000  C
  H181     1.0000 0.51140  0.56950  0.30860  Biso   1.000  H
  H182     1.0000 0.43050  0.94190  0.30860  Biso   1.000  H
  H183     1.0000 0.56950  0.51140  0.69140  Biso   1.000  H
  H184     1.0000 0.05810  0.48860  0.30860  Biso   1.000  H
  H185     1.0000 0.94190  0.43050  0.69140  Biso   1.000  H
  H186     1.0000 0.48860  0.05810  0.69140  Biso   1.000  H
  H187     1.0000 0.17807  0.90283  0.64193  Biso   1.000  H
  H188     1.0000 0.09717  0.27523  0.64193  Biso   1.000  H
  H189     1.0000 0.23617  0.84473  0.02473  Biso   1.000  H
  H190     1.0000 0.72477  0.82193  0.64193  Biso   1.000  H
  H191     1.0000 0.60857  0.76383  0.02473  Biso   1.000  H
  H192     1.0000 0.15527  0.39143  0.02473  Biso   1.000  H
  H193     1.0000 0.84473  0.23617  0.97527  Biso   1.000  H
  H194     1.0000 0.76383  0.60857  0.97527  Biso   1.000  H
  H195     1.0000 0.90283  0.17807  0.35807  Biso   1.000  H
  H196     1.0000 0.39143  0.15527  0.97527  Biso   1.000  H
  H197     1.0000 0.27523  0.09717  0.35807  Biso   1.000  H
  H198     1.0000 0.82193  0.72477  0.35807  Biso   1.000  H
  C271     1.0000 0.35450  0.30090  0.53380  Biso   1.000  C
  C272     1.0000 0.69910  0.05360  0.53380  Biso   1.000  C
  C273     1.0000 0.30090  0.35450  0.46620  Biso   1.000  C
  C274     1.0000 0.94640  0.64550  0.53380  Biso   1.000  C
  C275     1.0000 0.05360  0.69910  0.46620  Biso   1.000  C
  C276     1.0000 0.64550  0.94640  0.46620  Biso   1.000  C
  C277     1.0000 0.02117  0.63423  0.86713  Biso   1.000  C
  C278     1.0000 0.36577  0.38693  0.86713  Biso   1.000  C
  C279     1.0000 0.96757  0.68783  0.79953  Biso   1.000  C
  C280     1.0000 0.61307  0.97883  0.86713  Biso   1.000  C
  C281     1.0000 0.72027  0.03243  0.79953  Biso   1.000  C
  C282     1.0000 0.31217  0.27973  0.79953  Biso   1.000  C
  C283     1.0000 0.68783  0.96757  0.20047  Biso   1.000  C
  C284     1.0000 0.03243  0.72027  0.20047  Biso   1.000  C
  C285     1.0000 0.63423  0.02117  0.13287  Biso   1.000  C
  C286     1.0000 0.27973  0.31217  0.20047  Biso   1.000  C
  C287     1.0000 0.38693  0.36577  0.13287  Biso   1.000  C
  C288     1.0000 0.97883  0.61307  0.13287  Biso   1.000  C
  H199     1.0000 0.38180  0.34300  0.54200  Biso   1.000  H
  H200     1.0000 0.65700  0.03880  0.54200  Biso   1.000  H
  H201     1.0000 0.34300  0.38180  0.45800  Biso   1.000  H
  H202     1.0000 0.96120  0.61820  0.54200  Biso   1.000  H
  H203     1.0000 0.03880  0.65700  0.45800  Biso   1.000  H
  H204     1.0000 0.61820  0.96120  0.45800  Biso   1.000  H
  H205     1.0000 0.04847  0.67633  0.87533  Biso   1.000  H
  H206     1.0000 0.32367  0.37213  0.87533  Biso   1.000  H
  H207     1.0000 0.00967  0.71513  0.79133  Biso   1.000  H
  H208     1.0000 0.62787  0.95153  0.87533  Biso   1.000  H
  H209     1.0000 0.70547  0.99033  0.79133  Biso   1.000  H
  H210     1.0000 0.28487  0.29453  0.79133  Biso   1.000  H
  H211     1.0000 0.71513  0.00967  0.20867  Biso   1.000  H
  H212     1.0000 0.99033  0.70547  0.20867  Biso   1.000  H
  H213     1.0000 0.67633  0.04847  0.12467  Biso   1.000  H
  H214     1.0000 0.29453  0.28487  0.20867  Biso   1.000  H
  H215     1.0000 0.37213  0.32367  0.12467  Biso   1.000  H
  H216     1.0000 0.95153  0.62787  0.12467  Biso   1.000  H
  C289     1.0000 0.53470  0.46950  0.33450  Biso   1.000  C
  C290     1.0000 0.53050  0.06520  0.33450  Biso   1.000  C
  C291     1.0000 0.46950  0.53470  0.66550  Biso   1.000  C
  C292     1.0000 0.93480  0.46530  0.33450  Biso   1.000  C
  C293     1.0000 0.06520  0.53050  0.66550  Biso   1.000  C
  C294     1.0000 0.46530  0.93480  0.66550  Biso   1.000  C
  C295     1.0000 0.20137  0.80283  0.66783  Biso   1.000  C
  C296     1.0000 0.19717  0.39853  0.66783  Biso   1.000  C
  C297     1.0000 0.13617  0.86803  0.99883  Biso   1.000  C
  C298     1.0000 0.60147  0.79863  0.66783  Biso   1.000  C
  C299     1.0000 0.73187  0.86383  0.99883  Biso   1.000  C
  C300     1.0000 0.13197  0.26813  0.99883  Biso   1.000  C
  C301     1.0000 0.86803  0.13617  0.00117  Biso   1.000  C
  C302     1.0000 0.86383  0.73187  0.00117  Biso   1.000  C
  C303     1.0000 0.80283  0.20137  0.33217  Biso   1.000  C
  C304     1.0000 0.26813  0.13197  0.00117  Biso   1.000  C
  C305     1.0000 0.39853  0.19717  0.33217  Biso   1.000  C
  C306     1.0000 0.79863  0.60147  0.33217  Biso   1.000  C
  H217     1.0000 0.54550  0.48990  0.31380  Biso   1.000  H
  H218     1.0000 0.51010  0.05560  0.31380  Biso   1.000  H
  H219     1.0000 0.48990  0.54550  0.68620  Biso   1.000  H
  H220     1.0000 0.94440  0.45450  0.31380  Biso   1.000  H
  H221     1.0000 0.05560  0.51010  0.68620  Biso   1.000  H
  H222     1.0000 0.45450  0.94440  0.68620  Biso   1.000  H
  H223     1.0000 0.21217  0.82323  0.64713  Biso   1.000  H
  H224     1.0000 0.17677  0.38893  0.64713  Biso   1.000  H
  H225     1.0000 0.15657  0.87883  0.01953  Biso   1.000  H
  H226     1.0000 0.61107  0.78783  0.64713  Biso   1.000  H
  H227     1.0000 0.72227  0.84343  0.01953  Biso   1.000  H
  H228     1.0000 0.12117  0.27773  0.01953  Biso   1.000  H
  H229     1.0000 0.87883  0.15657  0.98047  Biso   1.000  H
  H230     1.0000 0.84343  0.72227  0.98047  Biso   1.000  H
  H231     1.0000 0.82323  0.21217  0.35287  Biso   1.000  H
  H232     1.0000 0.27773  0.12117  0.98047  Biso   1.000  H
  H233     1.0000 0.38893  0.17677  0.35287  Biso   1.000  H
  H234     1.0000 0.78783  0.61107  0.35287  Biso   1.000  H
  C307     1.0000 0.27430  0.17540  0.50980  Biso   1.000  C
  C308     1.0000 0.82460  0.09890  0.50980  Biso   1.000  C
  C309     1.0000 0.17540  0.27430  0.49020  Biso   1.000  C
  C310     1.0000 0.90110  0.72570  0.50980  Biso   1.000  C
  C311     1.0000 0.09890  0.82460  0.49020  Biso   1.000  C
  C312     1.0000 0.72570  0.90110  0.49020  Biso   1.000  C
  C313     1.0000 0.94097  0.50873  0.84313  Biso   1.000  C
  C314     1.0000 0.49127  0.43223  0.84313  Biso   1.000  C
  C315     1.0000 0.84207  0.60763  0.82353  Biso   1.000  C
  C316     1.0000 0.56777  0.05903  0.84313  Biso   1.000  C
  C317     1.0000 0.76557  0.15793  0.82353  Biso   1.000  C
  C318     1.0000 0.39237  0.23443  0.82353  Biso   1.000  C
  C319     1.0000 0.60763  0.84207  0.17647  Biso   1.000  C
  C320     1.0000 0.15793  0.76557  0.17647  Biso   1.000  C
  C321     1.0000 0.50873  0.94097  0.15687  Biso   1.000  C
  C322     1.0000 0.23443  0.39237  0.17647  Biso   1.000  C
  C323     1.0000 0.43223  0.49127  0.15687  Biso   1.000  C
  C324     1.0000 0.05903  0.56777  0.15687  Biso   1.000  C
  H235     1.0000 0.24700  0.13350  0.50130  Biso   1.000  H
  H236     1.0000 0.86650  0.11350  0.50130  Biso   1.000  H
  H237     1.0000 0.13350  0.24700  0.49870  Biso   1.000  H
  H238     1.0000 0.88650  0.75300  0.50130  Biso   1.000  H
  H239     1.0000 0.11350  0.86650  0.49870  Biso   1.000  H
  H240     1.0000 0.75300  0.88650  0.49870  Biso   1.000  H
  H241     1.0000 0.91367  0.46683  0.83463  Biso   1.000  H
  H242     1.0000 0.53317  0.44683  0.83463  Biso   1.000  H
  H243     1.0000 0.80017  0.58033  0.83203  Biso   1.000  H
  H244     1.0000 0.55317  0.08633  0.83463  Biso   1.000  H
  H245     1.0000 0.78017  0.19983  0.83203  Biso   1.000  H
  H246     1.0000 0.41967  0.21983  0.83203  Biso   1.000  H
  H247     1.0000 0.58033  0.80017  0.16797  Biso   1.000  H
  H248     1.0000 0.19983  0.78017  0.16797  Biso   1.000  H
  H249     1.0000 0.46683  0.91367  0.16537  Biso   1.000  H
  H250     1.0000 0.21983  0.41967  0.16797  Biso   1.000  H
  H251     1.0000 0.44683  0.53317  0.16537  Biso   1.000  H
  H252     1.0000 0.08633  0.55317  0.16537  Biso   1.000  H
  C325     1.0000 0.51870  0.59760  0.40700  Biso   1.000  C
  C326     1.0000 0.40240  0.92110  0.40700  Biso   1.000  C
  C327     1.0000 0.59760  0.51870  0.59300  Biso   1.000  C
  C328     1.0000 0.07890  0.48130  0.40700  Biso   1.000  C
  C329     1.0000 0.92110  0.40240  0.59300  Biso   1.000  C
  C330     1.0000 0.48130  0.07890  0.59300  Biso   1.000  C
  C331     1.0000 0.18537  0.93093  0.74033  Biso   1.000  C
  C332     1.0000 0.06907  0.25443  0.74033  Biso   1.000  C
  C333     1.0000 0.26427  0.85203  0.92633  Biso   1.000  C
  C334     1.0000 0.74557  0.81463  0.74033  Biso   1.000  C
  C335     1.0000 0.58777  0.73573  0.92633  Biso   1.000  C
  C336     1.0000 0.14797  0.41223  0.92633  Biso   1.000  C
  C337     1.0000 0.85203  0.26427  0.07367  Biso   1.000  C
  C338     1.0000 0.73573  0.58777  0.07367  Biso   1.000  C
  C339     1.0000 0.93093  0.18537  0.25967  Biso   1.000  C
  C340     1.0000 0.41223  0.14797  0.07367  Biso   1.000  C
  C341     1.0000 0.25443  0.06907  0.25967  Biso   1.000  C
  C342     1.0000 0.81463  0.74557  0.25967  Biso   1.000  C
  N199     1.0000 0.48580  0.63010  0.39250  Biso   1.000  N
  N200     1.0000 0.36990  0.85570  0.39250  Biso   1.000  N
  N201     1.0000 0.63010  0.48580  0.60750  Biso   1.000  N
  N202     1.0000 0.14430  0.51420  0.39250  Biso   1.000  N
  N203     1.0000 0.85570  0.36990  0.60750  Biso   1.000  N
  N204     1.0000 0.51420  0.14430  0.60750  Biso   1.000  N
  N205     1.0000 0.15247  0.96343  0.72583  Biso   1.000  N
  N206     1.0000 0.03657  0.18903  0.72583  Biso   1.000  N
  N207     1.0000 0.29677  0.81913  0.94083  Biso   1.000  N
  N208     1.0000 0.81097  0.84753  0.72583  Biso   1.000  N
  N209     1.0000 0.52237  0.70323  0.94083  Biso   1.000  N
  N210     1.0000 0.18087  0.47763  0.94083  Biso   1.000  N
  N211     1.0000 0.81913  0.29677  0.05917  Biso   1.000  N
  N212     1.0000 0.70323  0.52237  0.05917  Biso   1.000  N
  N213     1.0000 0.96343  0.15247  0.27417  Biso   1.000  N
  N214     1.0000 0.47763  0.18087  0.05917  Biso   1.000  N
  N215     1.0000 0.18903  0.03657  0.27417  Biso   1.000  N
  N216     1.0000 0.84753  0.81097  0.27417  Biso   1.000  N
  C343     1.0000 0.79860  0.65390  0.57940  Biso   1.000  C
  C344     1.0000 0.34610  0.14470  0.57940  Biso   1.000  C
  C345     1.0000 0.65390  0.79860  0.42060  Biso   1.000  C
  C346     1.0000 0.85530  0.20140  0.57940  Biso   1.000  C
  C347     1.0000 0.14470  0.34610  0.42060  Biso   1.000  C
  C348     1.0000 0.20140  0.85530  0.42060  Biso   1.000  C
  C349     1.0000 0.46527  0.98723  0.91273  Biso   1.000  C
  C350     1.0000 0.01277  0.47803  0.91273  Biso   1.000  C
  C351     1.0000 0.32057  0.13193  0.75393  Biso   1.000  C
  C352     1.0000 0.52197  0.53473  0.91273  Biso   1.000  C
  C353     1.0000 0.81137  0.67943  0.75393  Biso   1.000  C
  C354     1.0000 0.86807  0.18863  0.75393  Biso   1.000  C
  C355     1.0000 0.13193  0.32057  0.24607  Biso   1.000  C
  C356     1.0000 0.67943  0.81137  0.24607  Biso   1.000  C
  C357     1.0000 0.98723  0.46527  0.08727  Biso   1.000  C
  C358     1.0000 0.18863  0.86807  0.24607  Biso   1.000  C
  C359     1.0000 0.47803  0.01277  0.08727  Biso   1.000  C
  C360     1.0000 0.53473  0.52197  0.08727  Biso   1.000  C
  C361     1.0000 0.50870  0.67720  0.36880  Biso   1.000  C
  C362     1.0000 0.32280  0.83150  0.36880  Biso   1.000  C
  C363     1.0000 0.67720  0.50870  0.63120  Biso   1.000  C
  C364     1.0000 0.16850  0.49130  0.36880  Biso   1.000  C
  C365     1.0000 0.83150  0.32280  0.63120  Biso   1.000  C
  C366     1.0000 0.49130  0.16850  0.63120  Biso   1.000  C
  C367     1.0000 0.17537  0.01053  0.70213  Biso   1.000  C
  C368     1.0000 0.98947  0.16483  0.70213  Biso   1.000  C
  C369     1.0000 0.34387  0.84203  0.96453  Biso   1.000  C
  C370     1.0000 0.83517  0.82463  0.70213  Biso   1.000  C
  C371     1.0000 0.49817  0.65613  0.96453  Biso   1.000  C
  C372     1.0000 0.15797  0.50183  0.96453  Biso   1.000  C
  C373     1.0000 0.84203  0.34387  0.03547  Biso   1.000  C
  C374     1.0000 0.65613  0.49817  0.03547  Biso   1.000  C
  C375     1.0000 0.01053  0.17537  0.29787  Biso   1.000  C
  C376     1.0000 0.50183  0.15797  0.03547  Biso   1.000  C
  C377     1.0000 0.16483  0.98947  0.29787  Biso   1.000  C
  C378     1.0000 0.82463  0.83517  0.29787  Biso   1.000  C
  H253     1.0000 0.54900  0.69330  0.35810  Biso   1.000  H
  H254     1.0000 0.30670  0.85570  0.35810  Biso   1.000  H
  H255     1.0000 0.69330  0.54900  0.64190  Biso   1.000  H
  H256     1.0000 0.14430  0.45100  0.35810  Biso   1.000  H
  H257     1.0000 0.85570  0.30670  0.64190  Biso   1.000  H
  H258     1.0000 0.45100  0.14430  0.64190  Biso   1.000  H
  H259     1.0000 0.21567  0.02663  0.69143  Biso   1.000  H
  H260     1.0000 0.97337  0.18903  0.69143  Biso   1.000  H
  H261     1.0000 0.35997  0.88233  0.97523  Biso   1.000  H
  H262     1.0000 0.81097  0.78433  0.69143  Biso   1.000  H
  H263     1.0000 0.52237  0.64003  0.97523  Biso   1.000  H
  H264     1.0000 0.11767  0.47763  0.97523  Biso   1.000  H
  H265     1.0000 0.88233  0.35997  0.02477  Biso   1.000  H
  H266     1.0000 0.64003  0.52237  0.02477  Biso   1.000  H
  H267     1.0000 0.02663  0.21567  0.30857  Biso   1.000  H
  H268     1.0000 0.47763  0.11767  0.02477  Biso   1.000  H
  H269     1.0000 0.18903  0.97337  0.30857  Biso   1.000  H
  H270     1.0000 0.78433  0.81097  0.30857  Biso   1.000  H
  C379     1.0000 0.15730  0.18250  0.56970  Biso   1.000  C
  C380     1.0000 0.81750  0.97480  0.56970  Biso   1.000  C
  C381     1.0000 0.18250  0.15730  0.43030  Biso   1.000  C
  C382     1.0000 0.02520  0.84270  0.56970  Biso   1.000  C
  C383     1.0000 0.97480  0.81750  0.43030  Biso   1.000  C
  C384     1.0000 0.84270  0.02520  0.43030  Biso   1.000  C
  C385     1.0000 0.82397  0.51583  0.90303  Biso   1.000  C
  C386     1.0000 0.48417  0.30813  0.90303  Biso   1.000  C
  C387     1.0000 0.84917  0.49063  0.76363  Biso   1.000  C
  C388     1.0000 0.69187  0.17603  0.90303  Biso   1.000  C
  C389     1.0000 0.64147  0.15083  0.76363  Biso   1.000  C
  C390     1.0000 0.50937  0.35853  0.76363  Biso   1.000  C
  C391     1.0000 0.49063  0.84917  0.23637  Biso   1.000  C
  C392     1.0000 0.15083  0.64147  0.23637  Biso   1.000  C
  C393     1.0000 0.51583  0.82397  0.09697  Biso   1.000  C
  C394     1.0000 0.35853  0.50937  0.23637  Biso   1.000  C
  C395     1.0000 0.30813  0.48417  0.09697  Biso   1.000  C
  C396     1.0000 0.17603  0.69187  0.09697  Biso   1.000  C
  H271     1.0000 0.17770  0.22290  0.58050  Biso   1.000  H
  H272     1.0000 0.77710  0.95480  0.58050  Biso   1.000  H
  H273     1.0000 0.22290  0.17770  0.41950  Biso   1.000  H
  H274     1.0000 0.04520  0.82230  0.58050  Biso   1.000  H
  H275     1.0000 0.95480  0.77710  0.41950  Biso   1.000  H
  H276     1.0000 0.82230  0.04520  0.41950  Biso   1.000  H
  H277     1.0000 0.84437  0.55623  0.91383  Biso   1.000  H
  H278     1.0000 0.44377  0.28813  0.91383  Biso   1.000  H
  H279     1.0000 0.88957  0.51103  0.75283  Biso   1.000  H
  H280     1.0000 0.71187  0.15563  0.91383  Biso   1.000  H
  H281     1.0000 0.62147  0.11043  0.75283  Biso   1.000  H
  H282     1.0000 0.48897  0.37853  0.75283  Biso   1.000  H
  H283     1.0000 0.51103  0.88957  0.24717  Biso   1.000  H
  H284     1.0000 0.11043  0.62147  0.24717  Biso   1.000  H
  H285     1.0000 0.55623  0.84437  0.08617  Biso   1.000  H
  H286     1.0000 0.37853  0.48897  0.24717  Biso   1.000  H
  H287     1.0000 0.28813  0.44377  0.08617  Biso   1.000  H
  H288     1.0000 0.15563  0.71187  0.08617  Biso   1.000  H
  C397     1.0000 0.60890  0.57770  0.40640  Biso   1.000  C
  C398     1.0000 0.42230  0.03120  0.40640  Biso   1.000  C
  C399     1.0000 0.57770  0.60890  0.59360  Biso   1.000  C
  C400     1.0000 0.96880  0.39110  0.40640  Biso   1.000  C
  C401     1.0000 0.03120  0.42230  0.59360  Biso   1.000  C
  C402     1.0000 0.39110  0.96880  0.59360  Biso   1.000  C
  C403     1.0000 0.27557  0.91103  0.73973  Biso   1.000  C
  C404     1.0000 0.08897  0.36453  0.73973  Biso   1.000  C
  C405     1.0000 0.24437  0.94223  0.92693  Biso   1.000  C
  C406     1.0000 0.63547  0.72443  0.73973  Biso   1.000  C
  C407     1.0000 0.69787  0.75563  0.92693  Biso   1.000  C
  C408     1.0000 0.05777  0.30213  0.92693  Biso   1.000  C
  C409     1.0000 0.94223  0.24437  0.07307  Biso   1.000  C
  C410     1.0000 0.75563  0.69787  0.07307  Biso   1.000  C
  C411     1.0000 0.91103  0.27557  0.26027  Biso   1.000  C
  C412     1.0000 0.30213  0.05777  0.07307  Biso   1.000  C
  C413     1.0000 0.36453  0.08897  0.26027  Biso   1.000  C
  C414     1.0000 0.72443  0.63547  0.26027  Biso   1.000  C
  H289     1.0000 0.64770  0.58400  0.39700  Biso   1.000  H
  H290     1.0000 0.41600  0.06370  0.39700  Biso   1.000  H
  H291     1.0000 0.58400  0.64770  0.60300  Biso   1.000  H
  H292     1.0000 0.93630  0.35230  0.39700  Biso   1.000  H
  H293     1.0000 0.06370  0.41600  0.60300  Biso   1.000  H
  H294     1.0000 0.35230  0.93630  0.60300  Biso   1.000  H
  H295     1.0000 0.31437  0.91733  0.73033  Biso   1.000  H
  H296     1.0000 0.08267  0.39703  0.73033  Biso   1.000  H
  H297     1.0000 0.25067  0.98103  0.93633  Biso   1.000  H
  H298     1.0000 0.60297  0.68563  0.73033  Biso   1.000  H
  H299     1.0000 0.73037  0.74933  0.93633  Biso   1.000  H
  H300     1.0000 0.01897  0.26963  0.93633  Biso   1.000  H
  H301     1.0000 0.98103  0.25067  0.06367  Biso   1.000  H
  H302     1.0000 0.74933  0.73037  0.06367  Biso   1.000  H
  H303     1.0000 0.91733  0.31437  0.26967  Biso   1.000  H
  H304     1.0000 0.26963  0.01897  0.06367  Biso   1.000  H
  H305     1.0000 0.39703  0.08267  0.26967  Biso   1.000  H
  H306     1.0000 0.68563  0.60297  0.26967  Biso   1.000  H
  C415     1.0000 0.46200  0.42930  0.38130  Biso   1.000  C
  C416     1.0000 0.57070  0.03270  0.38130  Biso   1.000  C
  C417     1.0000 0.42930  0.46200  0.61870  Biso   1.000  C
  C418     1.0000 0.96730  0.53800  0.38130  Biso   1.000  C
  C419     1.0000 0.03270  0.57070  0.61870  Biso   1.000  C
  C420     1.0000 0.53800  0.96730  0.61870  Biso   1.000  C
  C421     1.0000 0.12867  0.76263  0.71463  Biso   1.000  C
  C422     1.0000 0.23737  0.36603  0.71463  Biso   1.000  C
  C423     1.0000 0.09597  0.79533  0.95203  Biso   1.000  C
  C424     1.0000 0.63397  0.87133  0.71463  Biso   1.000  C
  C425     1.0000 0.69937  0.90403  0.95203  Biso   1.000  C
  C426     1.0000 0.20467  0.30063  0.95203  Biso   1.000  C
  C427     1.0000 0.79533  0.09597  0.04797  Biso   1.000  C
  C428     1.0000 0.90403  0.69937  0.04797  Biso   1.000  C
  C429     1.0000 0.76263  0.12867  0.28537  Biso   1.000  C
  C430     1.0000 0.30063  0.20467  0.04797  Biso   1.000  C
  C431     1.0000 0.36603  0.23737  0.28537  Biso   1.000  C
  C432     1.0000 0.87133  0.63397  0.28537  Biso   1.000  C
  H307     1.0000 0.42500  0.42410  0.39240  Biso   1.000  H
  H308     1.0000 0.57590  0.00090  0.39240  Biso   1.000  H
  H309     1.0000 0.42410  0.42500  0.60760  Biso   1.000  H
  H310     1.0000 0.99910  0.57500  0.39240  Biso   1.000  H
  H311     1.0000 0.00090  0.57590  0.60760  Biso   1.000  H
  H312     1.0000 0.57500  0.99910  0.60760  Biso   1.000  H
  H313     1.0000 0.09167  0.75743  0.72573  Biso   1.000  H
  H314     1.0000 0.24257  0.33423  0.72573  Biso   1.000  H
  H315     1.0000 0.09077  0.75833  0.94093  Biso   1.000  H
  H316     1.0000 0.66577  0.90833  0.72573  Biso   1.000  H
  H317     1.0000 0.66757  0.90923  0.94093  Biso   1.000  H
  H318     1.0000 0.24167  0.33243  0.94093  Biso   1.000  H
  H319     1.0000 0.75833  0.09077  0.05907  Biso   1.000  H
  H320     1.0000 0.90923  0.66757  0.05907  Biso   1.000  H
  H321     1.0000 0.75743  0.09167  0.27427  Biso   1.000  H
  H322     1.0000 0.33243  0.24167  0.05907  Biso   1.000  H
  H323     1.0000 0.33423  0.24257  0.27427  Biso   1.000  H
  H324     1.0000 0.90833  0.66577  0.27427  Biso   1.000  H
  C433     1.0000 0.55200  0.40950  0.37820  Biso   1.000  C
  C434     1.0000 0.59050  0.14250  0.37820  Biso   1.000  C
  C435     1.0000 0.40950  0.55200  0.62180  Biso   1.000  C
  C436     1.0000 0.85750  0.44800  0.37820  Biso   1.000  C
  C437     1.0000 0.14250  0.59050  0.62180  Biso   1.000  C
  C438     1.0000 0.44800  0.85750  0.62180  Biso   1.000  C
  C439     1.0000 0.21867  0.74283  0.71153  Biso   1.000  C
  C440     1.0000 0.25717  0.47583  0.71153  Biso   1.000  C
  C441     1.0000 0.07617  0.88533  0.95513  Biso   1.000  C
  C442     1.0000 0.52417  0.78133  0.71153  Biso   1.000  C
  C443     1.0000 0.80917  0.92383  0.95513  Biso   1.000  C
  C444     1.0000 0.11467  0.19083  0.95513  Biso   1.000  C
  C445     1.0000 0.88533  0.07617  0.04487  Biso   1.000  C
  C446     1.0000 0.92383  0.80917  0.04487  Biso   1.000  C
  C447     1.0000 0.74283  0.21867  0.28847  Biso   1.000  C
  C448     1.0000 0.19083  0.11467  0.04487  Biso   1.000  C
  C449     1.0000 0.47583  0.25717  0.28847  Biso   1.000  C
  C450     1.0000 0.78133  0.52417  0.28847  Biso   1.000  C
  C451     1.0000 0.81850  0.60930  0.58770  Biso   1.000  C
  C452     1.0000 0.39070  0.20920  0.58770  Biso   1.000  C
  C453     1.0000 0.60930  0.81850  0.41230  Biso   1.000  C
  C454     1.0000 0.79080  0.18150  0.58770  Biso   1.000  C
  C455     1.0000 0.20920  0.39070  0.41230  Biso   1.000  C
  C456     1.0000 0.18150  0.79080  0.41230  Biso   1.000  C
  C457     1.0000 0.48517  0.94263  0.92103  Biso   1.000  C
  C458     1.0000 0.05737  0.54253  0.92103  Biso   1.000  C
  C459     1.0000 0.27597  0.15183  0.74563  Biso   1.000  C
  C460     1.0000 0.45747  0.51483  0.92103  Biso   1.000  C
  C461     1.0000 0.87587  0.72403  0.74563  Biso   1.000  C
  C462     1.0000 0.84817  0.12413  0.74563  Biso   1.000  C
  C463     1.0000 0.15183  0.27597  0.25437  Biso   1.000  C
  C464     1.0000 0.72403  0.87587  0.25437  Biso   1.000  C
  C465     1.0000 0.94263  0.48517  0.07897  Biso   1.000  C
  C466     1.0000 0.12413  0.84817  0.25437  Biso   1.000  C
  C467     1.0000 0.54253  0.05737  0.07897  Biso   1.000  C
  C468     1.0000 0.51483  0.45747  0.07897  Biso   1.000  C
  H325     1.0000 0.85190  0.62020  0.60310  Biso   1.000  H
  H326     1.0000 0.37980  0.23170  0.60310  Biso   1.000  H
  H327     1.0000 0.62020  0.85190  0.39690  Biso   1.000  H
  H328     1.0000 0.76830  0.14810  0.60310  Biso   1.000  H
  H329     1.0000 0.23170  0.37980  0.39690  Biso   1.000  H
  H330     1.0000 0.14810  0.76830  0.39690  Biso   1.000  H
  H331     1.0000 0.51857  0.95353  0.93643  Biso   1.000  H
  H332     1.0000 0.04647  0.56503  0.93643  Biso   1.000  H
  H333     1.0000 0.28687  0.18523  0.73023  Biso   1.000  H
  H334     1.0000 0.43497  0.48143  0.93643  Biso   1.000  H
  H335     1.0000 0.89837  0.71313  0.73023  Biso   1.000  H
  H336     1.0000 0.81477  0.10163  0.73023  Biso   1.000  H
  H337     1.0000 0.18523  0.28687  0.26977  Biso   1.000  H
  H338     1.0000 0.71313  0.89837  0.26977  Biso   1.000  H
  H339     1.0000 0.95353  0.51857  0.06357  Biso   1.000  H
  H340     1.0000 0.10163  0.81477  0.26977  Biso   1.000  H
  H341     1.0000 0.56503  0.04647  0.06357  Biso   1.000  H
  H342     1.0000 0.48143  0.43497  0.06357  Biso   1.000  H
  C469     1.0000 0.13890  0.10150  0.53740  Biso   1.000  C
  C470     1.0000 0.89850  0.03740  0.53740  Biso   1.000  C
  C471     1.0000 0.10150  0.13890  0.46260  Biso   1.000  C
  C472     1.0000 0.96260  0.86110  0.53740  Biso   1.000  C
  C473     1.0000 0.03740  0.89850  0.46260  Biso   1.000  C
  C474     1.0000 0.86110  0.96260  0.46260  Biso   1.000  C
  C475     1.0000 0.80557  0.43483  0.87073  Biso   1.000  C
  C476     1.0000 0.56517  0.37073  0.87073  Biso   1.000  C
  C477     1.0000 0.76817  0.47223  0.79593  Biso   1.000  C
  C478     1.0000 0.62927  0.19443  0.87073  Biso   1.000  C
  C479     1.0000 0.70407  0.23183  0.79593  Biso   1.000  C
  C480     1.0000 0.52777  0.29593  0.79593  Biso   1.000  C
  C481     1.0000 0.47223  0.76817  0.20407  Biso   1.000  C
  C482     1.0000 0.23183  0.70407  0.20407  Biso   1.000  C
  C483     1.0000 0.43483  0.80557  0.12927  Biso   1.000  C
  C484     1.0000 0.29593  0.52777  0.20407  Biso   1.000  C
  C485     1.0000 0.37073  0.56517  0.12927  Biso   1.000  C
  C486     1.0000 0.19443  0.62927  0.12927  Biso   1.000  C
  H343     1.0000 0.14430  0.07550  0.52180  Biso   1.000  H
  H344     1.0000 0.92450  0.06880  0.52180  Biso   1.000  H
  H345     1.0000 0.07550  0.14430  0.47820  Biso   1.000  H
  H346     1.0000 0.93120  0.85570  0.52180  Biso   1.000  H
  H347     1.0000 0.06880  0.92450  0.47820  Biso   1.000  H
  H348     1.0000 0.85570  0.93120  0.47820  Biso   1.000  H
  H349     1.0000 0.81097  0.40883  0.85513  Biso   1.000  H
  H350     1.0000 0.59117  0.40213  0.85513  Biso   1.000  H
  H351     1.0000 0.74217  0.47763  0.81153  Biso   1.000  H
  H352     1.0000 0.59787  0.18903  0.85513  Biso   1.000  H
  H353     1.0000 0.73547  0.25783  0.81153  Biso   1.000  H
  H354     1.0000 0.52237  0.26453  0.81153  Biso   1.000  H
  H355     1.0000 0.47763  0.74217  0.18847  Biso   1.000  H
  H356     1.0000 0.25783  0.73547  0.18847  Biso   1.000  H
  H357     1.0000 0.40883  0.81097  0.14487  Biso   1.000  H
  H358     1.0000 0.26453  0.52237  0.18847  Biso   1.000  H
  H359     1.0000 0.40213  0.59117  0.14487  Biso   1.000  H
  H360     1.0000 0.18903  0.59787  0.14487  Biso   1.000  H
  C487     1.0000 0.49700  0.40110  0.39360  Biso   1.000  C
  C488     1.0000 0.59890  0.09590  0.39360  Biso   1.000  C
  C489     1.0000 0.40110  0.49700  0.60640  Biso   1.000  C
  C490     1.0000 0.90410  0.50300  0.39360  Biso   1.000  C
  C491     1.0000 0.09590  0.59890  0.60640  Biso   1.000  C
  C492     1.0000 0.50300  0.90410  0.60640  Biso   1.000  C
  C493     1.0000 0.16367  0.73443  0.72693  Biso   1.000  C
  C494     1.0000 0.26557  0.42923  0.72693  Biso   1.000  C
  C495     1.0000 0.06777  0.83033  0.93973  Biso   1.000  C
  C496     1.0000 0.57077  0.83633  0.72693  Biso   1.000  C
  C497     1.0000 0.76257  0.93223  0.93973  Biso   1.000  C
  C498     1.0000 0.16967  0.23743  0.93973  Biso   1.000  C
  C499     1.0000 0.83033  0.06777  0.06027  Biso   1.000  C
  C500     1.0000 0.93223  0.76257  0.06027  Biso   1.000  C
  C501     1.0000 0.73443  0.16367  0.27307  Biso   1.000  C
  C502     1.0000 0.23743  0.16967  0.06027  Biso   1.000  C
  C503     1.0000 0.42923  0.26557  0.27307  Biso   1.000  C
  C504     1.0000 0.83633  0.57077  0.27307  Biso   1.000  C
  H361     1.0000 0.48260  0.37580  0.41290  Biso   1.000  H
  H362     1.0000 0.62420  0.10680  0.41290  Biso   1.000  H
  H363     1.0000 0.37580  0.48260  0.58710  Biso   1.000  H
  H364     1.0000 0.89320  0.51740  0.41290  Biso   1.000  H
  H365     1.0000 0.10680  0.62420  0.58710  Biso   1.000  H
  H366     1.0000 0.51740  0.89320  0.58710  Biso   1.000  H
  H367     1.0000 0.14927  0.70913  0.74623  Biso   1.000  H
  H368     1.0000 0.29087  0.44013  0.74623  Biso   1.000  H
  H369     1.0000 0.04247  0.81593  0.92043  Biso   1.000  H
  H370     1.0000 0.55987  0.85073  0.74623  Biso   1.000  H
  H371     1.0000 0.77347  0.95753  0.92043  Biso   1.000  H
  H372     1.0000 0.18407  0.22653  0.92043  Biso   1.000  H
  H373     1.0000 0.81593  0.04247  0.07957  Biso   1.000  H
  H374     1.0000 0.95753  0.77347  0.07957  Biso   1.000  H
  H375     1.0000 0.70913  0.14927  0.25377  Biso   1.000  H
  H376     1.0000 0.22653  0.18407  0.07957  Biso   1.000  H
  H377     1.0000 0.44013  0.29087  0.25377  Biso   1.000  H
  H378     1.0000 0.85073  0.55987  0.25377  Biso   1.000  H
  C505     1.0000 0.37890  0.27520  0.51080  Biso   1.000  C
  C506     1.0000 0.72480  0.10370  0.51080  Biso   1.000  C
  C507     1.0000 0.27520  0.37890  0.48920  Biso   1.000  C
  C508     1.0000 0.89630  0.62110  0.51080  Biso   1.000  C
  C509     1.0000 0.10370  0.72480  0.48920  Biso   1.000  C
  C510     1.0000 0.62110  0.89630  0.48920  Biso   1.000  C
  C511     1.0000 0.04557  0.60853  0.84413  Biso   1.000  C
  C512     1.0000 0.39147  0.43703  0.84413  Biso   1.000  C
  C513     1.0000 0.94187  0.71223  0.82253  Biso   1.000  C
  C514     1.0000 0.56297  0.95443  0.84413  Biso   1.000  C
  C515     1.0000 0.77037  0.05813  0.82253  Biso   1.000  C
  C516     1.0000 0.28777  0.22963  0.82253  Biso   1.000  C
  C517     1.0000 0.71223  0.94187  0.17747  Biso   1.000  C
  C518     1.0000 0.05813  0.77037  0.17747  Biso   1.000  C
  C519     1.0000 0.60853  0.04557  0.15587  Biso   1.000  C
  C520     1.0000 0.22963  0.28777  0.17747  Biso   1.000  C
  C521     1.0000 0.43703  0.39147  0.15587  Biso   1.000  C
  C522     1.0000 0.95443  0.56297  0.15587  Biso   1.000  C
  C523     1.0000 0.25100  0.20150  0.53360  Biso   1.000  C
  C524     1.0000 0.79850  0.04950  0.53360  Biso   1.000  C
  C525     1.0000 0.20150  0.25100  0.46640  Biso   1.000  C
  C526     1.0000 0.95050  0.74900  0.53360  Biso   1.000  C
  C527     1.0000 0.04950  0.79850  0.46640  Biso   1.000  C
  C528     1.0000 0.74900  0.95050  0.46640  Biso   1.000  C
  C529     1.0000 0.91767  0.53483  0.86693  Biso   1.000  C
  C530     1.0000 0.46517  0.38283  0.86693  Biso   1.000  C
  C531     1.0000 0.86817  0.58433  0.79973  Biso   1.000  C
  C532     1.0000 0.61717  0.08233  0.86693  Biso   1.000  C
  C533     1.0000 0.71617  0.13183  0.79973  Biso   1.000  C
  C534     1.0000 0.41567  0.28383  0.79973  Biso   1.000  C
  C535     1.0000 0.58433  0.86817  0.20027  Biso   1.000  C
  C536     1.0000 0.13183  0.71617  0.20027  Biso   1.000  C
  C537     1.0000 0.53483  0.91767  0.13307  Biso   1.000  C
  C538     1.0000 0.28383  0.41567  0.20027  Biso   1.000  C
  C539     1.0000 0.38283  0.46517  0.13307  Biso   1.000  C
  C540     1.0000 0.08233  0.61717  0.13307  Biso   1.000  C
  C541     1.0000 0.57000  0.44260  0.34840  Biso   1.000  C
  C542     1.0000 0.55740  0.12740  0.34840  Biso   1.000  C
  C543     1.0000 0.44260  0.57000  0.65160  Biso   1.000  C
  C544     1.0000 0.87260  0.43000  0.34840  Biso   1.000  C
  C545     1.0000 0.12740  0.55740  0.65160  Biso   1.000  C
  C546     1.0000 0.43000  0.87260  0.65160  Biso   1.000  C
  C547     1.0000 0.23667  0.77593  0.68173  Biso   1.000  C
  C548     1.0000 0.22407  0.46073  0.68173  Biso   1.000  C
  C549     1.0000 0.10927  0.90333  0.98493  Biso   1.000  C
  C550     1.0000 0.53927  0.76333  0.68173  Biso   1.000  C
  C551     1.0000 0.79407  0.89073  0.98493  Biso   1.000  C
  C552     1.0000 0.09667  0.20593  0.98493  Biso   1.000  C
  C553     1.0000 0.90333  0.10927  0.01507  Biso   1.000  C
  C554     1.0000 0.89073  0.79407  0.01507  Biso   1.000  C
  C555     1.0000 0.77593  0.23667  0.31827  Biso   1.000  C
  C556     1.0000 0.20593  0.09667  0.01507  Biso   1.000  C
  C557     1.0000 0.46073  0.22407  0.31827  Biso   1.000  C
  C558     1.0000 0.76333  0.53927  0.31827  Biso   1.000  C
  H379     1.0000 0.60670  0.44700  0.33720  Biso   1.000  H
  H380     1.0000 0.55300  0.15970  0.33720  Biso   1.000  H
  H381     1.0000 0.44700  0.60670  0.66280  Biso   1.000  H
  H382     1.0000 0.84030  0.39330  0.33720  Biso   1.000  H
  H383     1.0000 0.15970  0.55300  0.66280  Biso   1.000  H
  H384     1.0000 0.39330  0.84030  0.66280  Biso   1.000  H
  H385     1.0000 0.27337  0.78033  0.67053  Biso   1.000  H
  H386     1.0000 0.21967  0.49303  0.67053  Biso   1.000  H
  H387     1.0000 0.11367  0.94003  0.99613  Biso   1.000  H
  H388     1.0000 0.50697  0.72663  0.67053  Biso   1.000  H
  H389     1.0000 0.82637  0.88633  0.99613  Biso   1.000  H
  H390     1.0000 0.05997  0.17363  0.99613  Biso   1.000  H
  H391     1.0000 0.94003  0.11367  0.00387  Biso   1.000  H
  H392     1.0000 0.88633  0.82637  0.00387  Biso   1.000  H
  H393     1.0000 0.78033  0.27337  0.32947  Biso   1.000  H
  H394     1.0000 0.17363  0.05997  0.00387  Biso   1.000  H
  H395     1.0000 0.49303  0.21967  0.32947  Biso   1.000  H
  H396     1.0000 0.72663  0.50697  0.32947  Biso   1.000  H
  C559     1.0000 0.59310  0.38430  0.39400  Biso   1.000  C
  C560     1.0000 0.61570  0.20880  0.39400  Biso   1.000  C
  C561     1.0000 0.38430  0.59310  0.60600  Biso   1.000  C
  C562     1.0000 0.79120  0.40690  0.39400  Biso   1.000  C
  C563     1.0000 0.20880  0.61570  0.60600  Biso   1.000  C
  C564     1.0000 0.40690  0.79120  0.60600  Biso   1.000  C
  C565     1.0000 0.25977  0.71763  0.72733  Biso   1.000  C
  C566     1.0000 0.28237  0.54213  0.72733  Biso   1.000  C
  C567     1.0000 0.05097  0.92643  0.93933  Biso   1.000  C
  C568     1.0000 0.45787  0.74023  0.72733  Biso   1.000  C
  C569     1.0000 0.87547  0.94903  0.93933  Biso   1.000  C
  C570     1.0000 0.07357  0.12453  0.93933  Biso   1.000  C
  C571     1.0000 0.92643  0.05097  0.06067  Biso   1.000  C
  C572     1.0000 0.94903  0.87547  0.06067  Biso   1.000  C
  C573     1.0000 0.71763  0.25977  0.27267  Biso   1.000  C
  C574     1.0000 0.12453  0.07357  0.06067  Biso   1.000  C
  C575     1.0000 0.54213  0.28237  0.27267  Biso   1.000  C
  C576     1.0000 0.74023  0.45787  0.27267  Biso   1.000  C
  C577     1.0000 0.58260  0.53780  0.43450  Biso   1.000  C
  C578     1.0000 0.46220  0.04480  0.43450  Biso   1.000  C
  C579     1.0000 0.53780  0.58260  0.56550  Biso   1.000  C
  C580     1.0000 0.95520  0.41740  0.43450  Biso   1.000  C
  C581     1.0000 0.04480  0.46220  0.56550  Biso   1.000  C
  C582     1.0000 0.41740  0.95520  0.56550  Biso   1.000  C
  C583     1.0000 0.24927  0.87113  0.76783  Biso   1.000  C
  C584     1.0000 0.12887  0.37813  0.76783  Biso   1.000  C
  C585     1.0000 0.20447  0.91593  0.89883  Biso   1.000  C
  C586     1.0000 0.62187  0.75073  0.76783  Biso   1.000  C
  C587     1.0000 0.71147  0.79553  0.89883  Biso   1.000  C
  C588     1.0000 0.08407  0.28853  0.89883  Biso   1.000  C
  C589     1.0000 0.91593  0.20447  0.10117  Biso   1.000  C
  C590     1.0000 0.79553  0.71147  0.10117  Biso   1.000  C
  C591     1.0000 0.87113  0.24927  0.23217  Biso   1.000  C
  C592     1.0000 0.28853  0.08407  0.10117  Biso   1.000  C
  C593     1.0000 0.37813  0.12887  0.23217  Biso   1.000  C
  C594     1.0000 0.75073  0.62187  0.23217  Biso   1.000  C
  C595     1.0000 0.57620  0.60830  0.39270  Biso   1.000  C
  C596     1.0000 0.39170  0.96790  0.39270  Biso   1.000  C
  C597     1.0000 0.60830  0.57620  0.60730  Biso   1.000  C
  C598     1.0000 0.03210  0.42380  0.39270  Biso   1.000  C
  C599     1.0000 0.96790  0.39170  0.60730  Biso   1.000  C
  C600     1.0000 0.42380  0.03210  0.60730  Biso   1.000  C
  C601     1.0000 0.24287  0.94163  0.72603  Biso   1.000  C
  C602     1.0000 0.05837  0.30123  0.72603  Biso   1.000  C
  C603     1.0000 0.27497  0.90953  0.94063  Biso   1.000  C
  C604     1.0000 0.69877  0.75713  0.72603  Biso   1.000  C
  C605     1.0000 0.63457  0.72503  0.94063  Biso   1.000  C
  C606     1.0000 0.09047  0.36543  0.94063  Biso   1.000  C
  C607     1.0000 0.90953  0.27497  0.05937  Biso   1.000  C
  C608     1.0000 0.72503  0.63457  0.05937  Biso   1.000  C
  C609     1.0000 0.94163  0.24287  0.27397  Biso   1.000  C
  C610     1.0000 0.36543  0.09047  0.05937  Biso   1.000  C
  C611     1.0000 0.30123  0.05837  0.27397  Biso   1.000  C
  C612     1.0000 0.75713  0.69877  0.27397  Biso   1.000  C
  H397     1.0000 0.59330  0.63550  0.37410  Biso   1.000  H
  H398     1.0000 0.36450  0.95780  0.37410  Biso   1.000  H
  H399     1.0000 0.63550  0.59330  0.62590  Biso   1.000  H
  H400     1.0000 0.04220  0.40670  0.37410  Biso   1.000  H
  H401     1.0000 0.95780  0.36450  0.62590  Biso   1.000  H
  H402     1.0000 0.40670  0.04220  0.62590  Biso   1.000  H
  H403     1.0000 0.25997  0.96883  0.70743  Biso   1.000  H
  H404     1.0000 0.03117  0.29113  0.70743  Biso   1.000  H
  H405     1.0000 0.30217  0.92663  0.95923  Biso   1.000  H
  H406     1.0000 0.70887  0.74003  0.70743  Biso   1.000  H
  H407     1.0000 0.62447  0.69783  0.95923  Biso   1.000  H
  H408     1.0000 0.07337  0.37553  0.95923  Biso   1.000  H
  H409     1.0000 0.92663  0.30217  0.04077  Biso   1.000  H
  H410     1.0000 0.69783  0.62447  0.04077  Biso   1.000  H
  H411     1.0000 0.96883  0.25997  0.29257  Biso   1.000  H
  H412     1.0000 0.37553  0.07337  0.04077  Biso   1.000  H
  H413     1.0000 0.29113  0.03117  0.29257  Biso   1.000  H
  H414     1.0000 0.74003  0.70887  0.29257  Biso   1.000  H
  O145     1.0000 0.68580  0.40870  0.46383  Biso   1.000  O
  O146     1.0000 0.59130  0.27710  0.46383  Biso   1.000  O
  O147     1.0000 0.40870  0.68580  0.53617  Biso   1.000  O
  O148     1.0000 0.72290  0.31420  0.46383  Biso   1.000  O
  O149     1.0000 0.27710  0.59130  0.53617  Biso   1.000  O
  O150     1.0000 0.31420  0.72290  0.53617  Biso   1.000  O
  O151     1.0000 0.35247  0.74203  0.79716  Biso   1.000  O
  O152     1.0000 0.25797  0.61043  0.79716  Biso   1.000  O
  O153     1.0000 0.07537  0.01913  0.86950  Biso   1.000  O
  O154     1.0000 0.38957  0.64753  0.79716  Biso   1.000  O
  O155     1.0000 0.94377  0.92463  0.86950  Biso   1.000  O
  O156     1.0000 0.98087  0.05623  0.86950  Biso   1.000  O
  O157     1.0000 0.01913  0.07537  0.13050  Biso   1.000  O
  O158     1.0000 0.92463  0.94377  0.13050  Biso   1.000  O
  O159     1.0000 0.74203  0.35247  0.20284  Biso   1.000  O
  O160     1.0000 0.05623  0.98087  0.13050  Biso   1.000  O
  O161     1.0000 0.61043  0.25797  0.20284  Biso   1.000  O
  O162     1.0000 0.64753  0.38957  0.20284  Biso   1.000  O
  C613     1.0000 0.70310  0.46430  0.53370  Biso   1.000  C
  C614     1.0000 0.53570  0.23880  0.53370  Biso   1.000  C
  C615     1.0000 0.46430  0.70310  0.46630  Biso   1.000  C
  C616     1.0000 0.76120  0.29690  0.53370  Biso   1.000  C
  C617     1.0000 0.23880  0.53570  0.46630  Biso   1.000  C
  C618     1.0000 0.29690  0.76120  0.46630  Biso   1.000  C
  C619     1.0000 0.36977  0.79763  0.86703  Biso   1.000  C
  C620     1.0000 0.20237  0.57213  0.86703  Biso   1.000  C
  C621     1.0000 0.13097  0.03643  0.79963  Biso   1.000  C
  C622     1.0000 0.42787  0.63023  0.86703  Biso   1.000  C
  C623     1.0000 0.90547  0.86903  0.79963  Biso   1.000  C
  C624     1.0000 0.96357  0.09453  0.79963  Biso   1.000  C
  C625     1.0000 0.03643  0.13097  0.20037  Biso   1.000  C
  C626     1.0000 0.86903  0.90547  0.20037  Biso   1.000  C
  C627     1.0000 0.79763  0.36977  0.13297  Biso   1.000  C
  C628     1.0000 0.09453  0.96357  0.20037  Biso   1.000  C
  C629     1.0000 0.57213  0.20237  0.13297  Biso   1.000  C
  C630     1.0000 0.63023  0.42787  0.13297  Biso   1.000  C
  C631     1.0000 0.88080  0.74170  0.61740  Biso   1.000  C
  C632     1.0000 0.25830  0.13910  0.61740  Biso   1.000  C
  C633     1.0000 0.74170  0.88080  0.38260  Biso   1.000  C
  C634     1.0000 0.86090  0.11920  0.61740  Biso   1.000  C
  C635     1.0000 0.13910  0.25830  0.38260  Biso   1.000  C
  C636     1.0000 0.11920  0.86090  0.38260  Biso   1.000  C
  C637     1.0000 0.54747  0.07503  0.95073  Biso   1.000  C
  C638     1.0000 0.92497  0.47243  0.95073  Biso   1.000  C
  C639     1.0000 0.40837  0.21413  0.71593  Biso   1.000  C
  C640     1.0000 0.52757  0.45253  0.95073  Biso   1.000  C
  C641     1.0000 0.80577  0.59163  0.71593  Biso   1.000  C
  C642     1.0000 0.78587  0.19423  0.71593  Biso   1.000  C
  C643     1.0000 0.21413  0.40837  0.28407  Biso   1.000  C
  C644     1.0000 0.59163  0.80577  0.28407  Biso   1.000  C
  C645     1.0000 0.07503  0.54747  0.04927  Biso   1.000  C
  C646     1.0000 0.19423  0.78587  0.28407  Biso   1.000  C
  C647     1.0000 0.47243  0.92497  0.04927  Biso   1.000  C
  C648     1.0000 0.45253  0.52757  0.04927  Biso   1.000  C
  H415     1.0000 0.89830  0.71720  0.62620  Biso   1.000  H
  H416     1.0000 0.28280  0.18110  0.62620  Biso   1.000  H
  H417     1.0000 0.71720  0.89830  0.37380  Biso   1.000  H
  H418     1.0000 0.81890  0.10170  0.62620  Biso   1.000  H
  H419     1.0000 0.18110  0.28280  0.37380  Biso   1.000  H
  H420     1.0000 0.10170  0.81890  0.37380  Biso   1.000  H
  H421     1.0000 0.56497  0.05053  0.95953  Biso   1.000  H
  H422     1.0000 0.94947  0.51443  0.95953  Biso   1.000  H
  H423     1.0000 0.38387  0.23163  0.70713  Biso   1.000  H
  H424     1.0000 0.48557  0.43503  0.95953  Biso   1.000  H
  H425     1.0000 0.84777  0.61613  0.70713  Biso   1.000  H
  H426     1.0000 0.76837  0.15223  0.70713  Biso   1.000  H
  H427     1.0000 0.23163  0.38387  0.29287  Biso   1.000  H
  H428     1.0000 0.61613  0.84777  0.29287  Biso   1.000  H
  H429     1.0000 0.05053  0.56497  0.04047  Biso   1.000  H
  H430     1.0000 0.15223  0.76837  0.29287  Biso   1.000  H
  H431     1.0000 0.51443  0.94947  0.04047  Biso   1.000  H
  H432     1.0000 0.43503  0.48557  0.04047  Biso   1.000  H
  Na1      1.0000 0.66670  0.33340  0.33340  Biso   1.000  Na
  Na2      1.0000 0.33340  0.66670  0.66660  Biso   1.000  Na
  Na3      1.0000 0.00007  0.00003  0.99993  Biso   1.000  Na
  N217     1.0000 0.33330  0.06130  0.66670  Biso   1.000  N
  N218     1.0000 0.93870  0.27200  0.66670  Biso   1.000  N
  N219     1.0000 0.06130  0.33330  0.33330  Biso   1.000  N
  N220     1.0000 0.72800  0.66670  0.66670  Biso   1.000  N
  N221     1.0000 0.27200  0.93870  0.33330  Biso   1.000  N
  N222     1.0000 0.66670  0.72800  0.33330  Biso   1.000  N
  N223     1.0000 0.99997  0.39463  0.00003  Biso   1.000  N
  N224     1.0000 0.60537  0.60533  0.00003  Biso   1.000  N
  N225     1.0000 0.39467  0.00003  0.00003  Biso   1.000  N
  O163     1.0000 0.28920  0.01390  0.65300  Biso   1.000  O
  O164     1.0000 0.98610  0.27530  0.65300  Biso   1.000  O
  O165     1.0000 0.01390  0.28920  0.34700  Biso   1.000  O
  O166     1.0000 0.72470  0.71080  0.65300  Biso   1.000  O
  O167     1.0000 0.27530  0.98610  0.34700  Biso   1.000  O
  O168     1.0000 0.71080  0.72470  0.34700  Biso   1.000  O
  O169     1.0000 0.95587  0.34723  0.98633  Biso   1.000  O
  O170     1.0000 0.65277  0.60863  0.98633  Biso   1.000  O
  O171     1.0000 0.68057  0.62253  0.68033  Biso   1.000  O
  O172     1.0000 0.39137  0.04413  0.98633  Biso   1.000  O
  O173     1.0000 0.94197  0.31943  0.68033  Biso   1.000  O
  O174     1.0000 0.37747  0.05803  0.68033  Biso   1.000  O
  O175     1.0000 0.62253  0.68057  0.31967  Biso   1.000  O
  O176     1.0000 0.31943  0.94197  0.31967  Biso   1.000  O
  O177     1.0000 0.34723  0.95587  0.01367  Biso   1.000  O
  O178     1.0000 0.05803  0.37747  0.31967  Biso   1.000  O
  O179     1.0000 0.60863  0.65277  0.01367  Biso   1.000  O
  O180     1.0000 0.04413  0.39137  0.01367  Biso   1.000  O
  O181     1.0000 0.33330  0.11180  0.66670  Biso   1.000  O
  O182     1.0000 0.88820  0.22150  0.66670  Biso   1.000  O
  O183     1.0000 0.11180  0.33330  0.33330  Biso   1.000  O
  O184     1.0000 0.77850  0.66670  0.66670  Biso   1.000  O
  O185     1.0000 0.22150  0.88820  0.33330  Biso   1.000  O
  O186     1.0000 0.66670  0.77850  0.33330  Biso   1.000  O
  O187     1.0000 0.99997  0.44513  0.00003  Biso   1.000  O
  O188     1.0000 0.55487  0.55483  0.00003  Biso   1.000  O
  O189     1.0000 0.44517  0.00003  0.00003  Biso   1.000  O
  N226     1.0000 0.00000  0.19520  0.50000  Biso   1.000  N
  N227     1.0000 0.80480  0.80480  0.50000  Biso   1.000  N
  N228     1.0000 0.19520  0.00000  0.50000  Biso   1.000  N
  N229     1.0000 0.66667  0.52853  0.83333  Biso   1.000  N
  N230     1.0000 0.47147  0.13813  0.83333  Biso   1.000  N
  N231     1.0000 0.86187  0.33333  0.83333  Biso   1.000  N
  N232     1.0000 0.33333  0.86187  0.16667  Biso   1.000  N
  N233     1.0000 0.13813  0.47147  0.16667  Biso   1.000  N
  N234     1.0000 0.52853  0.66667  0.16667  Biso   1.000  N
  O190     1.0000 0.02740  0.18260  0.52210  Biso   1.000  O
  O191     1.0000 0.81740  0.84480  0.52210  Biso   1.000  O
  O192     1.0000 0.18260  0.02740  0.47790  Biso   1.000  O
  O193     1.0000 0.15520  0.97260  0.52210  Biso   1.000  O
  O194     1.0000 0.84480  0.81740  0.47790  Biso   1.000  O
  O195     1.0000 0.97260  0.15520  0.47790  Biso   1.000  O
  O196     1.0000 0.69407  0.51593  0.85543  Biso   1.000  O
  O197     1.0000 0.48407  0.17813  0.85543  Biso   1.000  O
  O198     1.0000 0.84927  0.36073  0.81123  Biso   1.000  O
  O199     1.0000 0.82187  0.30593  0.85543  Biso   1.000  O
  O200     1.0000 0.51147  0.15073  0.81123  Biso   1.000  O
  O201     1.0000 0.63927  0.48853  0.81123  Biso   1.000  O
  O202     1.0000 0.36073  0.84927  0.18877  Biso   1.000  O
  O203     1.0000 0.15073  0.51147  0.18877  Biso   1.000  O
  O204     1.0000 0.51593  0.69407  0.14457  Biso   1.000  O
  O205     1.0000 0.48853  0.63927  0.18877  Biso   1.000  O
  O206     1.0000 0.17813  0.48407  0.14457  Biso   1.000  O
  O207     1.0000 0.30593  0.82187  0.14457  Biso   1.000  O
  O208     1.0000 0.00000  0.24600  0.50000  Biso   1.000  O
  O209     1.0000 0.75400  0.75400  0.50000  Biso   1.000  O
  O210     1.0000 0.24600  0.00000  0.50000  Biso   1.000  O
  O211     1.0000 0.66667  0.57933  0.83333  Biso   1.000  O
  O212     1.0000 0.42067  0.08733  0.83333  Biso   1.000  O
  O213     1.0000 0.91267  0.33333  0.83333  Biso   1.000  O
  O214     1.0000 0.33333  0.91267  0.16667  Biso   1.000  O
  O215     1.0000 0.08733  0.42067  0.16667  Biso   1.000  O
  O216     1.0000 0.57933  0.66667  0.16667  Biso   1.000  O
