data_image0
_cell_length_a       21.0193
_cell_length_b       25.1798
_cell_length_c       21.7707
_cell_angle_alpha    90
_cell_angle_beta     118.618
_cell_angle_gamma    90

_symmetry_space_group_name_H-M    "P 1"
_symmetry_int_tables_number       1

loop_
  _symmetry_equiv_pos_as_xyz
  'x, y, z'

loop_
  _atom_site_label
  _atom_site_occupancy
  _atom_site_fract_x
  _atom_site_fract_y
  _atom_site_fract_z
  _atom_site_thermal_displace_type
  _atom_site_B_iso_or_equiv
  _atom_site_type_symbol
  Cu1      1.0000 0.00018  0.44472  0.00923  Biso   1.000  Cu
  Cu2      1.0000 0.00018  0.05528  0.50923  Biso   1.000  Cu
  Cu3      1.0000 0.99982  0.55528  0.99077  Biso   1.000  Cu
  Cu4      1.0000 0.99982  0.94472  0.49077  Biso   1.000  Cu
  Cu5      1.0000 0.33271  0.05511  0.49790  Biso   1.000  Cu
  Cu6      1.0000 0.33271  0.44489  0.99790  Biso   1.000  Cu
  Cu7      1.0000 0.66729  0.94489  0.50210  Biso   1.000  Cu
  Cu8      1.0000 0.66729  0.55511  0.00210  Biso   1.000  Cu
  Cu9      1.0000 0.66005  0.05295  0.48743  Biso   1.000  Cu
  Cu10     1.0000 0.66005  0.44705  0.98743  Biso   1.000  Cu
  Cu11     1.0000 0.33995  0.94705  0.51257  Biso   1.000  Cu
  Cu12     1.0000 0.33995  0.55295  0.01257  Biso   1.000  Cu
  Br1      1.0000 0.09809  0.50245  0.08957  Biso   1.000  Br
  Br2      1.0000 0.09809  0.99755  0.58957  Biso   1.000  Br
  Br3      1.0000 0.90191  0.49755  0.91043  Biso   1.000  Br
  Br4      1.0000 0.90191  0.00245  0.41043  Biso   1.000  Br
  Br5      1.0000 0.22781  0.99581  0.42340  Biso   1.000  Br
  Br6      1.0000 0.22781  0.50419  0.92340  Biso   1.000  Br
  Br7      1.0000 0.77219  0.00419  0.57660  Biso   1.000  Br
  Br8      1.0000 0.77219  0.49581  0.07660  Biso   1.000  Br
  Br9      1.0000 0.44571  0.00696  0.58514  Biso   1.000  Br
  Br10     1.0000 0.44571  0.49304  0.08514  Biso   1.000  Br
  Br11     1.0000 0.55429  0.99304  0.41486  Biso   1.000  Br
  Br12     1.0000 0.55429  0.50696  0.91486  Biso   1.000  Br
  Be1      1.0000 0.77340  0.21800  0.17580  Biso   1.000  Be
  Be2      1.0000 0.77340  0.28200  0.67580  Biso   1.000  Be
  Be3      1.0000 0.22660  0.78200  0.82420  Biso   1.000  Be
  Be4      1.0000 0.22660  0.71800  0.32420  Biso   1.000  Be
  Be5      1.0000 0.16890  0.24130  0.76170  Biso   1.000  Be
  Be6      1.0000 0.16890  0.25870  0.26170  Biso   1.000  Be
  Be7      1.0000 0.83110  0.75870  0.23830  Biso   1.000  Be
  Be8      1.0000 0.83110  0.74130  0.73830  Biso   1.000  Be
  Be9      1.0000 0.49200  0.24270  0.23220  Biso   1.000  Be
  Be10     1.0000 0.49200  0.25730  0.73220  Biso   1.000  Be
  Be11     1.0000 0.50800  0.75730  0.76780  Biso   1.000  Be
  Be12     1.0000 0.50800  0.74270  0.26780  Biso   1.000  Be
  O1       1.0000 0.77930  0.28090  0.18840  Biso   1.000  O
  O2       1.0000 0.77930  0.21910  0.68840  Biso   1.000  O
  O3       1.0000 0.22070  0.71910  0.81160  Biso   1.000  O
  O4       1.0000 0.22070  0.78090  0.31160  Biso   1.000  O
  O5       1.0000 0.79500  0.20690  0.11560  Biso   1.000  O
  O6       1.0000 0.79500  0.29310  0.61560  Biso   1.000  O
  O7       1.0000 0.20500  0.79310  0.88440  Biso   1.000  O
  O8       1.0000 0.20500  0.70690  0.38440  Biso   1.000  O
  O9       1.0000 0.69450  0.19420  0.15250  Biso   1.000  O
  O10      1.0000 0.69450  0.30580  0.65250  Biso   1.000  O
  O11      1.0000 0.30550  0.80580  0.84750  Biso   1.000  O
  O12      1.0000 0.30550  0.69420  0.34750  Biso   1.000  O
  O13      1.0000 0.82860  0.19010  0.24930  Biso   1.000  O
  O14      1.0000 0.82860  0.30990  0.74930  Biso   1.000  O
  O15      1.0000 0.17140  0.80990  0.75070  Biso   1.000  O
  O16      1.0000 0.17140  0.69010  0.25070  Biso   1.000  O
  O17      1.0000 0.21430  0.25850  0.84280  Biso   1.000  O
  O18      1.0000 0.21430  0.24150  0.34280  Biso   1.000  O
  O19      1.0000 0.78570  0.74150  0.15720  Biso   1.000  O
  O20      1.0000 0.78570  0.75850  0.65720  Biso   1.000  O
  O21      1.0000 0.08770  0.26300  0.73450  Biso   1.000  O
  O22      1.0000 0.08770  0.23700  0.23450  Biso   1.000  O
  O23      1.0000 0.91230  0.73700  0.26550  Biso   1.000  O
  O24      1.0000 0.91230  0.76300  0.76550  Biso   1.000  O
  O25      1.0000 0.17270  0.17770  0.75730  Biso   1.000  O
  O26      1.0000 0.17270  0.32230  0.25730  Biso   1.000  O
  O27      1.0000 0.82730  0.82230  0.24270  Biso   1.000  O
  O28      1.0000 0.82730  0.67770  0.74270  Biso   1.000  O
  O29      1.0000 0.20310  0.26440  0.71560  Biso   1.000  O
  O30      1.0000 0.20310  0.23560  0.21560  Biso   1.000  O
  O31      1.0000 0.79690  0.73560  0.28440  Biso   1.000  O
  O32      1.0000 0.79690  0.76440  0.78440  Biso   1.000  O
  O33      1.0000 0.49320  0.17920  0.24000  Biso   1.000  O
  O34      1.0000 0.49320  0.32080  0.74000  Biso   1.000  O
  O35      1.0000 0.50680  0.82080  0.76000  Biso   1.000  O
  O36      1.0000 0.50680  0.67920  0.26000  Biso   1.000  O
  O37      1.0000 0.45050  0.26500  0.27220  Biso   1.000  O
  O38      1.0000 0.45050  0.23500  0.77220  Biso   1.000  O
  O39      1.0000 0.54950  0.73500  0.72780  Biso   1.000  O
  O40      1.0000 0.54950  0.76500  0.22780  Biso   1.000  O
  O41      1.0000 0.45380  0.24190  0.65060  Biso   1.000  O
  O42      1.0000 0.45380  0.25810  0.15060  Biso   1.000  O
  O43      1.0000 0.54620  0.75810  0.34940  Biso   1.000  O
  O44      1.0000 0.54620  0.74190  0.84940  Biso   1.000  O
  O45      1.0000 0.57310  0.23310  0.76640  Biso   1.000  O
  O46      1.0000 0.57310  0.26690  0.26640  Biso   1.000  O
  O47      1.0000 0.42690  0.76690  0.23360  Biso   1.000  O
  O48      1.0000 0.42690  0.73310  0.73360  Biso   1.000  O
  N1       1.0000 0.95240  0.40180  0.05410  Biso   1.000  N
  N2       1.0000 0.95240  0.09820  0.55410  Biso   1.000  N
  N3       1.0000 0.04760  0.59820  0.94590  Biso   1.000  N
  N4       1.0000 0.04760  0.90180  0.44590  Biso   1.000  N
  N5       1.0000 0.67750  0.08470  0.41170  Biso   1.000  N
  N6       1.0000 0.67750  0.41530  0.91170  Biso   1.000  N
  N7       1.0000 0.32250  0.91530  0.58830  Biso   1.000  N
  N8       1.0000 0.32250  0.58470  0.08830  Biso   1.000  N
  N9       1.0000 0.03770  0.39750  0.95720  Biso   1.000  N
  N10      1.0000 0.03770  0.10250  0.45720  Biso   1.000  N
  N11      1.0000 0.96230  0.60250  0.04280  Biso   1.000  N
  N12      1.0000 0.96230  0.89750  0.54280  Biso   1.000  N
  N13      1.0000 0.30060  0.09150  0.56060  Biso   1.000  N
  N14      1.0000 0.30060  0.40850  0.06060  Biso   1.000  N
  N15      1.0000 0.69940  0.90850  0.43940  Biso   1.000  N
  N16      1.0000 0.69940  0.59150  0.93940  Biso   1.000  N
  N17      1.0000 0.36110  0.08950  0.43120  Biso   1.000  N
  N18      1.0000 0.36110  0.41050  0.93120  Biso   1.000  N
  N19      1.0000 0.63890  0.91050  0.56880  Biso   1.000  N
  N20      1.0000 0.63890  0.58950  0.06880  Biso   1.000  N
  N21      1.0000 0.63580  0.09980  0.54860  Biso   1.000  N
  N22      1.0000 0.63580  0.40020  0.04860  Biso   1.000  N
  N23      1.0000 0.36420  0.90020  0.45140  Biso   1.000  N
  N24      1.0000 0.36420  0.59980  0.95140  Biso   1.000  N
  C1       1.0000 0.81360  0.31150  0.16760  Biso   1.000  C
  C2       1.0000 0.81360  0.18850  0.66760  Biso   1.000  C
  C3       1.0000 0.18640  0.68850  0.83240  Biso   1.000  C
  C4       1.0000 0.18640  0.81150  0.33240  Biso   1.000  C
  C5       1.0000 0.84040  0.29400  0.12260  Biso   1.000  C
  C6       1.0000 0.84040  0.20600  0.62260  Biso   1.000  C
  C7       1.0000 0.15960  0.70600  0.87740  Biso   1.000  C
  C8       1.0000 0.15960  0.79400  0.37740  Biso   1.000  C
  C9       1.0000 0.82580  0.24230  0.09570  Biso   1.000  C
  C10      1.0000 0.82580  0.25770  0.59570  Biso   1.000  C
  C11      1.0000 0.17420  0.75770  0.90430  Biso   1.000  C
  C12      1.0000 0.17420  0.74230  0.40430  Biso   1.000  C
  C13      1.0000 0.84510  0.22430  0.04190  Biso   1.000  C
  C14      1.0000 0.84510  0.27570  0.54190  Biso   1.000  C
  C15      1.0000 0.15490  0.77570  0.95810  Biso   1.000  C
  C16      1.0000 0.15490  0.72430  0.45810  Biso   1.000  C
  H1       1.0000 0.83150  0.18780  0.03020  Biso   1.000  H
  H2       1.0000 0.83150  0.31220  0.53020  Biso   1.000  H
  H3       1.0000 0.16850  0.81220  0.96980  Biso   1.000  H
  H4       1.0000 0.16850  0.68780  0.46980  Biso   1.000  H
  H5       1.0000 0.81950  0.24580  0.00090  Biso   1.000  H
  H6       1.0000 0.81950  0.25420  0.50090  Biso   1.000  H
  H7       1.0000 0.18050  0.75420  0.99910  Biso   1.000  H
  H8       1.0000 0.18050  0.74580  0.49910  Biso   1.000  H
  H9       1.0000 0.89630  0.22800  0.05910  Biso   1.000  H
  H10      1.0000 0.89630  0.27200  0.55910  Biso   1.000  H
  H11      1.0000 0.10370  0.77200  0.94090  Biso   1.000  H
  H12      1.0000 0.10370  0.72800  0.44090  Biso   1.000  H
  C17      1.0000 0.82270  0.36740  0.19220  Biso   1.000  C
  C18      1.0000 0.82270  0.13260  0.69220  Biso   1.000  C
  C19      1.0000 0.17730  0.63260  0.80780  Biso   1.000  C
  C20      1.0000 0.17730  0.86740  0.30780  Biso   1.000  C
  H13      1.0000 0.80170  0.37180  0.22250  Biso   1.000  H
  H14      1.0000 0.80170  0.12820  0.72250  Biso   1.000  H
  H15      1.0000 0.19830  0.62820  0.77750  Biso   1.000  H
  H16      1.0000 0.19830  0.87180  0.27750  Biso   1.000  H
  H17      1.0000 0.87340  0.37590  0.21730  Biso   1.000  H
  H18      1.0000 0.87340  0.12410  0.71730  Biso   1.000  H
  H19      1.0000 0.12660  0.62410  0.78270  Biso   1.000  H
  H20      1.0000 0.12660  0.87590  0.28270  Biso   1.000  H
  H21      1.0000 0.79900  0.39070  0.15270  Biso   1.000  H
  H22      1.0000 0.79900  0.10930  0.65270  Biso   1.000  H
  H23      1.0000 0.20100  0.60930  0.84730  Biso   1.000  H
  H24      1.0000 0.20100  0.89070  0.34730  Biso   1.000  H
  C21      1.0000 0.98770  0.36420  0.10190  Biso   1.000  C
  C22      1.0000 0.98770  0.13580  0.60190  Biso   1.000  C
  C23      1.0000 0.01230  0.63580  0.89810  Biso   1.000  C
  C24      1.0000 0.01230  0.86420  0.39810  Biso   1.000  C
  H25      1.0000 0.03920  0.36160  0.12050  Biso   1.000  H
  H26      1.0000 0.03920  0.13840  0.62050  Biso   1.000  H
  H27      1.0000 0.96080  0.63840  0.87950  Biso   1.000  H
  H28      1.0000 0.96080  0.86160  0.37950  Biso   1.000  H
  C25      1.0000 0.95420  0.32900  0.12640  Biso   1.000  C
  C26      1.0000 0.95420  0.17100  0.62640  Biso   1.000  C
  C27      1.0000 0.04580  0.67100  0.87360  Biso   1.000  C
  C28      1.0000 0.04580  0.82900  0.37360  Biso   1.000  C
  H29      1.0000 0.98220  0.30320  0.16150  Biso   1.000  H
  H30      1.0000 0.98220  0.19680  0.66150  Biso   1.000  H
  H31      1.0000 0.01780  0.69680  0.83850  Biso   1.000  H
  H32      1.0000 0.01780  0.80320  0.33850  Biso   1.000  H
  C29      1.0000 0.87910  0.33170  0.09960  Biso   1.000  C
  C30      1.0000 0.87910  0.16830  0.59960  Biso   1.000  C
  C31      1.0000 0.12090  0.66830  0.90040  Biso   1.000  C
  C32      1.0000 0.12090  0.83170  0.40040  Biso   1.000  C
  C33      1.0000 0.84360  0.37100  0.05130  Biso   1.000  C
  C34      1.0000 0.84360  0.12900  0.55130  Biso   1.000  C
  C35      1.0000 0.15640  0.62900  0.94870  Biso   1.000  C
  C36      1.0000 0.15640  0.87100  0.44870  Biso   1.000  C
  H33      1.0000 0.79220  0.37510  0.03240  Biso   1.000  H
  H34      1.0000 0.79220  0.12490  0.53240  Biso   1.000  H
  H35      1.0000 0.20780  0.62490  0.96760  Biso   1.000  H
  H36      1.0000 0.20780  0.87510  0.46760  Biso   1.000  H
  C37      1.0000 0.88100  0.40490  0.02960  Biso   1.000  C
  C38      1.0000 0.88100  0.09510  0.52960  Biso   1.000  C
  C39      1.0000 0.11900  0.59510  0.97040  Biso   1.000  C
  C40      1.0000 0.11900  0.90490  0.47040  Biso   1.000  C
  H37      1.0000 0.85440  0.43180  0.99560  Biso   1.000  H
  H38      1.0000 0.85440  0.06820  0.49560  Biso   1.000  H
  H39      1.0000 0.14560  0.56820  0.00440  Biso   1.000  H
  H40      1.0000 0.14560  0.93180  0.50440  Biso   1.000  H
  C41      1.0000 0.67870  0.16880  0.19470  Biso   1.000  C
  C42      1.0000 0.67870  0.33120  0.69470  Biso   1.000  C
  C43      1.0000 0.32130  0.83120  0.80530  Biso   1.000  C
  C44      1.0000 0.32130  0.66880  0.30530  Biso   1.000  C
  C45      1.0000 0.73130  0.15630  0.26330  Biso   1.000  C
  C46      1.0000 0.73130  0.34370  0.76330  Biso   1.000  C
  C47      1.0000 0.26870  0.84370  0.73670  Biso   1.000  C
  C48      1.0000 0.26870  0.65630  0.23670  Biso   1.000  C
  C49      1.0000 0.80510  0.16800  0.28830  Biso   1.000  C
  C50      1.0000 0.80510  0.33200  0.78830  Biso   1.000  C
  C51      1.0000 0.19490  0.83200  0.71170  Biso   1.000  C
  C52      1.0000 0.19490  0.66800  0.21170  Biso   1.000  C
  C53      1.0000 0.86200  0.15510  0.36080  Biso   1.000  C
  C54      1.0000 0.86200  0.34490  0.86080  Biso   1.000  C
  C55      1.0000 0.13800  0.84490  0.63920  Biso   1.000  C
  C56      1.0000 0.13800  0.65510  0.13920  Biso   1.000  C
  H41      1.0000 0.90820  0.16650  0.36700  Biso   1.000  H
  H42      1.0000 0.90820  0.33350  0.86700  Biso   1.000  H
  H43      1.0000 0.09180  0.83350  0.63300  Biso   1.000  H
  H44      1.0000 0.09180  0.66650  0.13300  Biso   1.000  H
  H45      1.0000 0.85160  0.17290  0.39400  Biso   1.000  H
  H46      1.0000 0.85160  0.32710  0.89400  Biso   1.000  H
  H47      1.0000 0.14840  0.82710  0.60600  Biso   1.000  H
  H48      1.0000 0.14840  0.67290  0.10600  Biso   1.000  H
  H49      1.0000 0.86290  0.11740  0.36800  Biso   1.000  H
  H50      1.0000 0.86290  0.38260  0.86800  Biso   1.000  H
  H51      1.0000 0.13710  0.88260  0.63200  Biso   1.000  H
  H52      1.0000 0.13710  0.61740  0.13200  Biso   1.000  H
  C57      1.0000 0.60210  0.15160  0.16550  Biso   1.000  C
  C58      1.0000 0.60210  0.34840  0.66550  Biso   1.000  C
  C59      1.0000 0.39790  0.84840  0.83450  Biso   1.000  C
  C60      1.0000 0.39790  0.65160  0.33450  Biso   1.000  C
  H53      1.0000 0.57510  0.16400  0.11810  Biso   1.000  H
  H54      1.0000 0.57510  0.33600  0.61810  Biso   1.000  H
  H55      1.0000 0.42490  0.83600  0.88190  Biso   1.000  H
  H56      1.0000 0.42490  0.66400  0.38190  Biso   1.000  H
  H57      1.0000 0.59970  0.11360  0.16630  Biso   1.000  H
  H58      1.0000 0.59970  0.38640  0.66630  Biso   1.000  H
  H59      1.0000 0.40030  0.88640  0.83370  Biso   1.000  H
  H60      1.0000 0.40030  0.61360  0.33370  Biso   1.000  H
  H61      1.0000 0.58200  0.16640  0.19310  Biso   1.000  H
  H62      1.0000 0.58200  0.33360  0.69310  Biso   1.000  H
  H63      1.0000 0.41800  0.83360  0.80690  Biso   1.000  H
  H64      1.0000 0.41800  0.66640  0.30690  Biso   1.000  H
  C61      1.0000 0.71270  0.05750  0.38450  Biso   1.000  C
  C62      1.0000 0.71270  0.44250  0.88450  Biso   1.000  C
  C63      1.0000 0.28730  0.94250  0.61550  Biso   1.000  C
  C64      1.0000 0.28730  0.55750  0.11550  Biso   1.000  C
  H65      1.0000 0.72780  0.02180  0.40050  Biso   1.000  H
  H66      1.0000 0.72780  0.47820  0.90050  Biso   1.000  H
  H67      1.0000 0.27220  0.97820  0.59950  Biso   1.000  H
  H68      1.0000 0.27220  0.52180  0.09950  Biso   1.000  H
  C65      1.0000 0.72910  0.07830  0.33500  Biso   1.000  C
  C66      1.0000 0.72910  0.42170  0.83500  Biso   1.000  C
  C67      1.0000 0.27090  0.92170  0.66500  Biso   1.000  C
  C68      1.0000 0.27090  0.57830  0.16500  Biso   1.000  C
  H69      1.0000 0.75330  0.05690  0.31610  Biso   1.000  H
  H70      1.0000 0.75330  0.44310  0.81610  Biso   1.000  H
  H71      1.0000 0.24670  0.94310  0.68390  Biso   1.000  H
  H72      1.0000 0.24670  0.55690  0.18390  Biso   1.000  H
  C69      1.0000 0.70990  0.13050  0.31200  Biso   1.000  C
  C70      1.0000 0.70990  0.36950  0.81200  Biso   1.000  C
  C71      1.0000 0.29010  0.86950  0.68800  Biso   1.000  C
  C72      1.0000 0.29010  0.63050  0.18800  Biso   1.000  C
  C73      1.0000 0.67130  0.15820  0.33910  Biso   1.000  C
  C74      1.0000 0.67130  0.34180  0.83910  Biso   1.000  C
  C75      1.0000 0.32870  0.84180  0.66090  Biso   1.000  C
  C76      1.0000 0.32870  0.65820  0.16090  Biso   1.000  C
  H73      1.0000 0.65560  0.19390  0.32410  Biso   1.000  H
  H74      1.0000 0.65560  0.30610  0.82410  Biso   1.000  H
  H75      1.0000 0.34440  0.80610  0.67590  Biso   1.000  H
  H76      1.0000 0.34440  0.69390  0.17590  Biso   1.000  H
  C77      1.0000 0.65630  0.13430  0.38720  Biso   1.000  C
  C78      1.0000 0.65630  0.36570  0.88720  Biso   1.000  C
  C79      1.0000 0.34370  0.86570  0.61280  Biso   1.000  C
  C80      1.0000 0.34370  0.63430  0.11280  Biso   1.000  C
  H77      1.0000 0.62880  0.15370  0.40430  Biso   1.000  H
  H78      1.0000 0.62880  0.34630  0.90430  Biso   1.000  H
  H79      1.0000 0.37120  0.84630  0.59570  Biso   1.000  H
  H80      1.0000 0.37120  0.65370  0.09570  Biso   1.000  H
  C81      1.0000 0.18770  0.28450  0.87550  Biso   1.000  C
  C82      1.0000 0.18770  0.21550  0.37550  Biso   1.000  C
  C83      1.0000 0.81230  0.71550  0.12450  Biso   1.000  C
  C84      1.0000 0.81230  0.78450  0.62450  Biso   1.000  C
  C85      1.0000 0.11580  0.30370  0.84160  Biso   1.000  C
  C86      1.0000 0.11580  0.19630  0.34160  Biso   1.000  C
  C87      1.0000 0.88420  0.69630  0.15840  Biso   1.000  C
  C88      1.0000 0.88420  0.80370  0.65840  Biso   1.000  C
  C89      1.0000 0.06880  0.29150  0.77160  Biso   1.000  C
  C90      1.0000 0.06880  0.20850  0.27160  Biso   1.000  C
  C91      1.0000 0.93120  0.70850  0.22840  Biso   1.000  C
  C92      1.0000 0.93120  0.79150  0.72840  Biso   1.000  C
  C93      1.0000 0.99180  0.31020  0.73620  Biso   1.000  C
  C94      1.0000 0.99180  0.18980  0.23620  Biso   1.000  C
  C95      1.0000 0.00820  0.68980  0.26380  Biso   1.000  C
  C96      1.0000 0.00820  0.81020  0.76380  Biso   1.000  C
  H81      1.0000 0.96850  0.29820  0.68850  Biso   1.000  H
  H82      1.0000 0.96850  0.20180  0.18850  Biso   1.000  H
  H83      1.0000 0.03150  0.70180  0.31150  Biso   1.000  H
  H84      1.0000 0.03150  0.79820  0.81150  Biso   1.000  H
  H85      1.0000 0.96700  0.29570  0.75970  Biso   1.000  H
  H86      1.0000 0.96700  0.20430  0.25970  Biso   1.000  H
  H87      1.0000 0.03300  0.70430  0.24030  Biso   1.000  H
  H88      1.0000 0.03300  0.79570  0.74030  Biso   1.000  H
  H89      1.0000 0.99020  0.34830  0.73720  Biso   1.000  H
  H90      1.0000 0.99020  0.15170  0.23720  Biso   1.000  H
  H91      1.0000 0.00980  0.65170  0.26280  Biso   1.000  H
  H92      1.0000 0.00980  0.84830  0.76280  Biso   1.000  H
  C97      1.0000 0.23770  0.29390  0.95120  Biso   1.000  C
  C98      1.0000 0.23770  0.20610  0.45120  Biso   1.000  C
  C99      1.0000 0.76230  0.70610  0.04880  Biso   1.000  C
  C100     1.0000 0.76230  0.79390  0.54880  Biso   1.000  C
  H93      1.0000 0.28370  0.27790  0.96370  Biso   1.000  H
  H94      1.0000 0.28370  0.22210  0.46370  Biso   1.000  H
  H95      1.0000 0.71630  0.72210  0.03630  Biso   1.000  H
  H96      1.0000 0.71630  0.77790  0.53630  Biso   1.000  H
  H97      1.0000 0.24390  0.33140  0.96000  Biso   1.000  H
  H98      1.0000 0.24390  0.16860  0.46000  Biso   1.000  H
  H99      1.0000 0.75610  0.66860  0.04000  Biso   1.000  H
  H100     1.0000 0.75610  0.83140  0.54000  Biso   1.000  H
  H101     1.0000 0.21770  0.27840  0.97860  Biso   1.000  H
  H102     1.0000 0.21770  0.22160  0.47860  Biso   1.000  H
  H103     1.0000 0.78230  0.72160  0.02140  Biso   1.000  H
  H104     1.0000 0.78230  0.77840  0.52140  Biso   1.000  H
  C101     1.0000 0.04440  0.34450  0.96440  Biso   1.000  C
  C102     1.0000 0.04440  0.15550  0.46440  Biso   1.000  C
  C103     1.0000 0.95560  0.65550  0.03560  Biso   1.000  C
  C104     1.0000 0.95560  0.84450  0.53560  Biso   1.000  C
  H105     1.0000 0.03110  0.32780  0.99630  Biso   1.000  H
  H106     1.0000 0.03110  0.17220  0.49630  Biso   1.000  H
  H107     1.0000 0.96890  0.67220  0.00370  Biso   1.000  H
  H108     1.0000 0.96890  0.82780  0.50370  Biso   1.000  H
  C105     1.0000 0.06950  0.31270  0.92860  Biso   1.000  C
  C106     1.0000 0.06950  0.18730  0.42860  Biso   1.000  C
  C107     1.0000 0.93050  0.68730  0.07140  Biso   1.000  C
  C108     1.0000 0.93050  0.81270  0.57140  Biso   1.000  C
  H109     1.0000 0.07320  0.27500  0.93560  Biso   1.000  H
  H110     1.0000 0.07320  0.22500  0.43560  Biso   1.000  H
  H111     1.0000 0.92680  0.72500  0.06440  Biso   1.000  H
  H112     1.0000 0.92680  0.77500  0.56440  Biso   1.000  H
  C109     1.0000 0.08880  0.33610  0.88240  Biso   1.000  C
  C110     1.0000 0.08880  0.16390  0.38240  Biso   1.000  C
  C111     1.0000 0.91120  0.66390  0.11760  Biso   1.000  C
  C112     1.0000 0.91120  0.83610  0.61760  Biso   1.000  C
  C113     1.0000 0.08280  0.39100  0.87470  Biso   1.000  C
  C114     1.0000 0.08280  0.10900  0.37470  Biso   1.000  C
  C115     1.0000 0.91720  0.60900  0.12530  Biso   1.000  C
  C116     1.0000 0.91720  0.89100  0.62530  Biso   1.000  C
  H113     1.0000 0.09630  0.40840  0.84350  Biso   1.000  H
  H114     1.0000 0.09630  0.09160  0.34350  Biso   1.000  H
  H115     1.0000 0.90370  0.59160  0.15650  Biso   1.000  H
  H116     1.0000 0.90370  0.90840  0.65650  Biso   1.000  H
  C117     1.0000 0.05690  0.42050  0.91270  Biso   1.000  C
  C118     1.0000 0.05690  0.07950  0.41270  Biso   1.000  C
  C119     1.0000 0.94310  0.57950  0.08730  Biso   1.000  C
  C120     1.0000 0.94310  0.92050  0.58730  Biso   1.000  C
  H117     1.0000 0.05260  0.45830  0.90630  Biso   1.000  H
  H118     1.0000 0.05260  0.04170  0.40630  Biso   1.000  H
  H119     1.0000 0.94740  0.54170  0.09370  Biso   1.000  H
  H120     1.0000 0.94740  0.95830  0.59370  Biso   1.000  H
  C121     1.0000 0.20140  0.15310  0.72480  Biso   1.000  C
  C122     1.0000 0.20140  0.34690  0.22480  Biso   1.000  C
  C123     1.0000 0.79860  0.84690  0.27520  Biso   1.000  C
  C124     1.0000 0.79860  0.65310  0.77520  Biso   1.000  C
  C125     1.0000 0.22690  0.17960  0.68420  Biso   1.000  C
  C126     1.0000 0.22690  0.32040  0.18420  Biso   1.000  C
  C127     1.0000 0.77310  0.82040  0.31580  Biso   1.000  C
  C128     1.0000 0.77310  0.67960  0.81580  Biso   1.000  C
  C129     1.0000 0.22510  0.23580  0.68060  Biso   1.000  C
  C130     1.0000 0.22510  0.26420  0.18060  Biso   1.000  C
  C131     1.0000 0.77490  0.76420  0.31940  Biso   1.000  C
  C132     1.0000 0.77490  0.73580  0.81940  Biso   1.000  C
  C133     1.0000 0.24880  0.26660  0.63620  Biso   1.000  C
  C134     1.0000 0.24880  0.23340  0.13620  Biso   1.000  C
  C135     1.0000 0.75120  0.73340  0.36380  Biso   1.000  C
  C136     1.0000 0.75120  0.76660  0.86380  Biso   1.000  C
  H121     1.0000 0.24330  0.30390  0.64130  Biso   1.000  H
  H122     1.0000 0.24330  0.19610  0.14130  Biso   1.000  H
  H123     1.0000 0.75670  0.69610  0.35870  Biso   1.000  H
  H124     1.0000 0.75670  0.80390  0.85870  Biso   1.000  H
  H125     1.0000 0.29880  0.25890  0.65080  Biso   1.000  H
  H126     1.0000 0.29880  0.24110  0.15080  Biso   1.000  H
  H127     1.0000 0.70120  0.74110  0.34920  Biso   1.000  H
  H128     1.0000 0.70120  0.75890  0.84920  Biso   1.000  H
  H129     1.0000 0.21970  0.25660  0.58800  Biso   1.000  H
  H130     1.0000 0.21970  0.24340  0.08800  Biso   1.000  H
  H131     1.0000 0.78030  0.74340  0.41200  Biso   1.000  H
  H132     1.0000 0.78030  0.75660  0.91200  Biso   1.000  H
  C137     1.0000 0.20830  0.09480  0.73600  Biso   1.000  C
  C138     1.0000 0.20830  0.40520  0.23600  Biso   1.000  C
  C139     1.0000 0.79170  0.90520  0.26400  Biso   1.000  C
  C140     1.0000 0.79170  0.59480  0.76400  Biso   1.000  C
  H133     1.0000 0.18760  0.08440  0.76500  Biso   1.000  H
  H134     1.0000 0.18760  0.41560  0.26500  Biso   1.000  H
  H135     1.0000 0.81240  0.91560  0.23500  Biso   1.000  H
  H136     1.0000 0.81240  0.58440  0.73500  Biso   1.000  H
  H137     1.0000 0.18340  0.07700  0.69170  Biso   1.000  H
  H138     1.0000 0.18340  0.42300  0.19170  Biso   1.000  H
  H139     1.0000 0.81660  0.92300  0.30830  Biso   1.000  H
  H140     1.0000 0.81660  0.57700  0.80830  Biso   1.000  H
  H141     1.0000 0.25870  0.08520  0.75850  Biso   1.000  H
  H142     1.0000 0.25870  0.41480  0.25850  Biso   1.000  H
  H143     1.0000 0.74130  0.91480  0.24150  Biso   1.000  H
  H144     1.0000 0.74130  0.58520  0.74150  Biso   1.000  H
  C141     1.0000 0.23360  0.08560  0.55240  Biso   1.000  C
  C142     1.0000 0.23360  0.41440  0.05240  Biso   1.000  C
  C143     1.0000 0.76640  0.91440  0.44760  Biso   1.000  C
  C144     1.0000 0.76640  0.58560  0.94760  Biso   1.000  C
  H145     1.0000 0.20120  0.06120  0.51750  Biso   1.000  H
  H146     1.0000 0.20120  0.43880  0.01750  Biso   1.000  H
  H147     1.0000 0.79880  0.93880  0.48250  Biso   1.000  H
  H148     1.0000 0.79880  0.56120  0.98250  Biso   1.000  H
  C145     1.0000 0.20900  0.11300  0.59220  Biso   1.000  C
  C146     1.0000 0.20900  0.38700  0.09220  Biso   1.000  C
  C147     1.0000 0.79100  0.88700  0.40780  Biso   1.000  C
  C148     1.0000 0.79100  0.61300  0.90780  Biso   1.000  C
  H149     1.0000 0.16070  0.10710  0.58480  Biso   1.000  H
  H150     1.0000 0.16070  0.39290  0.08480  Biso   1.000  H
  H151     1.0000 0.83930  0.89290  0.41520  Biso   1.000  H
  H152     1.0000 0.83930  0.60710  0.91520  Biso   1.000  H
  C149     1.0000 0.25380  0.14890  0.64290  Biso   1.000  C
  C150     1.0000 0.25380  0.35110  0.14290  Biso   1.000  C
  C151     1.0000 0.74620  0.85110  0.35710  Biso   1.000  C
  C152     1.0000 0.74620  0.64890  0.85710  Biso   1.000  C
  C153     1.0000 0.32370  0.15410  0.65240  Biso   1.000  C
  C154     1.0000 0.32370  0.34590  0.15240  Biso   1.000  C
  C155     1.0000 0.67630  0.84590  0.34760  Biso   1.000  C
  C156     1.0000 0.67630  0.65410  0.84760  Biso   1.000  C
  H153     1.0000 0.35730  0.17790  0.68730  Biso   1.000  H
  H154     1.0000 0.35730  0.32210  0.18730  Biso   1.000  H
  H155     1.0000 0.64270  0.82210  0.31270  Biso   1.000  H
  H156     1.0000 0.64270  0.67790  0.81270  Biso   1.000  H
  C157     1.0000 0.34490  0.12500  0.61130  Biso   1.000  C
  C158     1.0000 0.34490  0.37500  0.11130  Biso   1.000  C
  C159     1.0000 0.65510  0.87500  0.38870  Biso   1.000  C
  C160     1.0000 0.65510  0.62500  0.88870  Biso   1.000  C
  H157     1.0000 0.39360  0.12910  0.61900  Biso   1.000  H
  H158     1.0000 0.39360  0.37090  0.11900  Biso   1.000  H
  H159     1.0000 0.60640  0.87090  0.38100  Biso   1.000  H
  H160     1.0000 0.60640  0.62910  0.88100  Biso   1.000  H
  C161     1.0000 0.46500  0.15380  0.27220  Biso   1.000  C
  C162     1.0000 0.46500  0.34620  0.77220  Biso   1.000  C
  C163     1.0000 0.53500  0.84620  0.72780  Biso   1.000  C
  C164     1.0000 0.53500  0.65380  0.22780  Biso   1.000  C
  C165     1.0000 0.43360  0.17990  0.30890  Biso   1.000  C
  C166     1.0000 0.43360  0.32010  0.80890  Biso   1.000  C
  C167     1.0000 0.56640  0.82010  0.69110  Biso   1.000  C
  C168     1.0000 0.56640  0.67990  0.19110  Biso   1.000  C
  C169     1.0000 0.42890  0.23560  0.30700  Biso   1.000  C
  C170     1.0000 0.42890  0.26440  0.80700  Biso   1.000  C
  C171     1.0000 0.57110  0.76440  0.69300  Biso   1.000  C
  C172     1.0000 0.57110  0.73560  0.19300  Biso   1.000  C
  C173     1.0000 0.39870  0.26530  0.34680  Biso   1.000  C
  C174     1.0000 0.39870  0.23470  0.84680  Biso   1.000  C
  C175     1.0000 0.60130  0.73470  0.65320  Biso   1.000  C
  C176     1.0000 0.60130  0.76530  0.15320  Biso   1.000  C
  H161     1.0000 0.40000  0.30270  0.33890  Biso   1.000  H
  H162     1.0000 0.40000  0.19730  0.83890  Biso   1.000  H
  H163     1.0000 0.60000  0.69730  0.66110  Biso   1.000  H
  H164     1.0000 0.60000  0.80270  0.16110  Biso   1.000  H
  H165     1.0000 0.34960  0.25440  0.33110  Biso   1.000  H
  H166     1.0000 0.34960  0.24560  0.83110  Biso   1.000  H
  H167     1.0000 0.65040  0.74560  0.66890  Biso   1.000  H
  H168     1.0000 0.65040  0.75440  0.16890  Biso   1.000  H
  H169     1.0000 0.42730  0.25790  0.39590  Biso   1.000  H
  H170     1.0000 0.42730  0.24210  0.89590  Biso   1.000  H
  H171     1.0000 0.57270  0.74210  0.60410  Biso   1.000  H
  H172     1.0000 0.57270  0.75790  0.10410  Biso   1.000  H
  C177     1.0000 0.46660  0.09500  0.26730  Biso   1.000  C
  C178     1.0000 0.46660  0.40500  0.76730  Biso   1.000  C
  C179     1.0000 0.53340  0.90500  0.73270  Biso   1.000  C
  C180     1.0000 0.53340  0.59500  0.23270  Biso   1.000  C
  H173     1.0000 0.49000  0.08540  0.24030  Biso   1.000  H
  H174     1.0000 0.49000  0.41460  0.74030  Biso   1.000  H
  H175     1.0000 0.51000  0.91460  0.75970  Biso   1.000  H
  H176     1.0000 0.51000  0.58540  0.25970  Biso   1.000  H
  H177     1.0000 0.49320  0.08030  0.31350  Biso   1.000  H
  H178     1.0000 0.49320  0.41970  0.81350  Biso   1.000  H
  H179     1.0000 0.50680  0.91970  0.68650  Biso   1.000  H
  H180     1.0000 0.50680  0.58030  0.18650  Biso   1.000  H
  H181     1.0000 0.41810  0.08120  0.24510  Biso   1.000  H
  H182     1.0000 0.41810  0.41880  0.74510  Biso   1.000  H
  H183     1.0000 0.58190  0.91880  0.75490  Biso   1.000  H
  H184     1.0000 0.58190  0.58120  0.25490  Biso   1.000  H
  C181     1.0000 0.31460  0.11790  0.37590  Biso   1.000  C
  C182     1.0000 0.31460  0.38210  0.87590  Biso   1.000  C
  C183     1.0000 0.68540  0.88210  0.62410  Biso   1.000  C
  C184     1.0000 0.68540  0.61790  0.12410  Biso   1.000  C
  H185     1.0000 0.26440  0.11800  0.36420  Biso   1.000  H
  H186     1.0000 0.26440  0.38200  0.86420  Biso   1.000  H
  H187     1.0000 0.73560  0.88200  0.63580  Biso   1.000  H
  H188     1.0000 0.73560  0.61800  0.13580  Biso   1.000  H
  C185     1.0000 0.33550  0.14750  0.33500  Biso   1.000  C
  C186     1.0000 0.33550  0.35250  0.83500  Biso   1.000  C
  C187     1.0000 0.66450  0.85250  0.66500  Biso   1.000  C
  C188     1.0000 0.66450  0.64750  0.16500  Biso   1.000  C
  H189     1.0000 0.30010  0.16760  0.29610  Biso   1.000  H
  H190     1.0000 0.30010  0.33240  0.79610  Biso   1.000  H
  H191     1.0000 0.69990  0.83240  0.70390  Biso   1.000  H
  H192     1.0000 0.69990  0.66760  0.20390  Biso   1.000  H
  C189     1.0000 0.40790  0.14760  0.34990  Biso   1.000  C
  C190     1.0000 0.40790  0.35240  0.84990  Biso   1.000  C
  C191     1.0000 0.59210  0.85240  0.65010  Biso   1.000  C
  C192     1.0000 0.59210  0.64760  0.15010  Biso   1.000  C
  C193     1.0000 0.45490  0.11680  0.40540  Biso   1.000  C
  C194     1.0000 0.45490  0.38320  0.90540  Biso   1.000  C
  C195     1.0000 0.54510  0.88320  0.59460  Biso   1.000  C
  C196     1.0000 0.54510  0.61680  0.09460  Biso   1.000  C
  H193     1.0000 0.50510  0.11500  0.41730  Biso   1.000  H
  H194     1.0000 0.50510  0.38500  0.91730  Biso   1.000  H
  H195     1.0000 0.49490  0.88500  0.58270  Biso   1.000  H
  H196     1.0000 0.49490  0.61500  0.08270  Biso   1.000  H
  C197     1.0000 0.43030  0.08850  0.44430  Biso   1.000  C
  C198     1.0000 0.43030  0.41150  0.94430  Biso   1.000  C
  C199     1.0000 0.56970  0.91150  0.55570  Biso   1.000  C
  C200     1.0000 0.56970  0.58850  0.05570  Biso   1.000  C
  H197     1.0000 0.46430  0.06680  0.48220  Biso   1.000  H
  H198     1.0000 0.46430  0.43320  0.98220  Biso   1.000  H
  H199     1.0000 0.53570  0.93320  0.51780  Biso   1.000  H
  H200     1.0000 0.53570  0.56680  0.01780  Biso   1.000  H
  C201     1.0000 0.48600  0.21710  0.62210  Biso   1.000  C
  C202     1.0000 0.48600  0.28290  0.12210  Biso   1.000  C
  C203     1.0000 0.51400  0.78290  0.37790  Biso   1.000  C
  C204     1.0000 0.51400  0.71710  0.87790  Biso   1.000  C
  C205     1.0000 0.55540  0.19560  0.66010  Biso   1.000  C
  C206     1.0000 0.55540  0.30440  0.16010  Biso   1.000  C
  C207     1.0000 0.44460  0.80440  0.33990  Biso   1.000  C
  C208     1.0000 0.44460  0.69560  0.83990  Biso   1.000  C
  C209     1.0000 0.59690  0.20530  0.73240  Biso   1.000  C
  C210     1.0000 0.59690  0.29470  0.23240  Biso   1.000  C
  C211     1.0000 0.40310  0.79470  0.26760  Biso   1.000  C
  C212     1.0000 0.40310  0.70530  0.76760  Biso   1.000  C
  C213     1.0000 0.67240  0.18470  0.77380  Biso   1.000  C
  C214     1.0000 0.67240  0.31530  0.27380  Biso   1.000  C
  C215     1.0000 0.32760  0.81530  0.22620  Biso   1.000  C
  C216     1.0000 0.32760  0.68470  0.72620  Biso   1.000  C
  H201     1.0000 0.69150  0.19530  0.82170  Biso   1.000  H
  H202     1.0000 0.69150  0.30470  0.32170  Biso   1.000  H
  H203     1.0000 0.30850  0.80470  0.17830  Biso   1.000  H
  H204     1.0000 0.30850  0.69530  0.67830  Biso   1.000  H
  H205     1.0000 0.70220  0.19890  0.75540  Biso   1.000  H
  H206     1.0000 0.70220  0.30110  0.25540  Biso   1.000  H
  H207     1.0000 0.29780  0.80110  0.24460  Biso   1.000  H
  H208     1.0000 0.29780  0.69890  0.74460  Biso   1.000  H
  H209     1.0000 0.67210  0.14660  0.77100  Biso   1.000  H
  H210     1.0000 0.67210  0.35340  0.27100  Biso   1.000  H
  H211     1.0000 0.32790  0.85340  0.22900  Biso   1.000  H
  H212     1.0000 0.32790  0.64660  0.72900  Biso   1.000  H
  C217     1.0000 0.44280  0.21120  0.54380  Biso   1.000  C
  C218     1.0000 0.44280  0.28880  0.04380  Biso   1.000  C
  C219     1.0000 0.55720  0.78880  0.45620  Biso   1.000  C
  C220     1.0000 0.55720  0.71120  0.95620  Biso   1.000  C
  H213     1.0000 0.39690  0.22870  0.52750  Biso   1.000  H
  H214     1.0000 0.39690  0.27130  0.02750  Biso   1.000  H
  H215     1.0000 0.60310  0.77130  0.47250  Biso   1.000  H
  H216     1.0000 0.60310  0.72870  0.97250  Biso   1.000  H
  H217     1.0000 0.43490  0.17420  0.53170  Biso   1.000  H
  H218     1.0000 0.43490  0.32580  0.03170  Biso   1.000  H
  H219     1.0000 0.56510  0.82580  0.46830  Biso   1.000  H
  H220     1.0000 0.56510  0.67420  0.96830  Biso   1.000  H
  H221     1.0000 0.46860  0.22700  0.52210  Biso   1.000  H
  H222     1.0000 0.46860  0.27300  0.02210  Biso   1.000  H
  H223     1.0000 0.53140  0.77300  0.47790  Biso   1.000  H
  H224     1.0000 0.53140  0.72700  0.97790  Biso   1.000  H
  C221     1.0000 0.60860  0.07790  0.58680  Biso   1.000  C
  C222     1.0000 0.60860  0.42210  0.08680  Biso   1.000  C
  C223     1.0000 0.39140  0.92210  0.41320  Biso   1.000  C
  C224     1.0000 0.39140  0.57790  0.91320  Biso   1.000  C
  H225     1.0000 0.60690  0.03990  0.58880  Biso   1.000  H
  H226     1.0000 0.60690  0.46010  0.08880  Biso   1.000  H
  H227     1.0000 0.39310  0.96010  0.41120  Biso   1.000  H
  H228     1.0000 0.39310  0.53990  0.91120  Biso   1.000  H
  C225     1.0000 0.58350  0.10760  0.62470  Biso   1.000  C
  C226     1.0000 0.58350  0.39240  0.12470  Biso   1.000  C
  C227     1.0000 0.41650  0.89240  0.37530  Biso   1.000  C
  C228     1.0000 0.41650  0.60760  0.87530  Biso   1.000  C
  H229     1.0000 0.56410  0.09010  0.65130  Biso   1.000  H
  H230     1.0000 0.56410  0.40990  0.15130  Biso   1.000  H
  H231     1.0000 0.43590  0.90990  0.34870  Biso   1.000  H
  H232     1.0000 0.43590  0.59010  0.84870  Biso   1.000  H
  C229     1.0000 0.58610  0.16280  0.62330  Biso   1.000  C
  C230     1.0000 0.58610  0.33720  0.12330  Biso   1.000  C
  C231     1.0000 0.41390  0.83720  0.37670  Biso   1.000  C
  C232     1.0000 0.41390  0.66280  0.87670  Biso   1.000  C
  C233     1.0000 0.61630  0.18540  0.58490  Biso   1.000  C
  C234     1.0000 0.61630  0.31460  0.08490  Biso   1.000  C
  C235     1.0000 0.38370  0.81460  0.41510  Biso   1.000  C
  C236     1.0000 0.38370  0.68540  0.91510  Biso   1.000  C
  H233     1.0000 0.62050  0.22330  0.58340  Biso   1.000  H
  H234     1.0000 0.62050  0.27670  0.08340  Biso   1.000  H
  H235     1.0000 0.37950  0.77670  0.41660  Biso   1.000  H
  H236     1.0000 0.37950  0.72330  0.91660  Biso   1.000  H
  C237     1.0000 0.64020  0.15280  0.54900  Biso   1.000  C
  C238     1.0000 0.64020  0.34720  0.04900  Biso   1.000  C
  C239     1.0000 0.35980  0.84720  0.45100  Biso   1.000  C
  C240     1.0000 0.35980  0.65280  0.95100  Biso   1.000  C
  H237     1.0000 0.66180  0.16920  0.52350  Biso   1.000  H
  H238     1.0000 0.66180  0.33080  0.02350  Biso   1.000  H
  H239     1.0000 0.33820  0.83080  0.47650  Biso   1.000  H
  H240     1.0000 0.33820  0.66920  0.97650  Biso   1.000  H
  C241     1.0000 0.35800  0.83600  0.01480  Biso   1.000  C
  C242     1.0000 0.35800  0.66400  0.51480  Biso   1.000  C
  C243     1.0000 0.64200  0.16400  0.98520  Biso   1.000  C
  C244     1.0000 0.64200  0.33600  0.48520  Biso   1.000  C
  Cl1      1.0000 0.31850  0.87545  0.05190  Biso   1.000  Cl
  Cl2      1.0000 0.31850  0.62455  0.55190  Biso   1.000  Cl
  Cl3      1.0000 0.68150  0.12455  0.94810  Biso   1.000  Cl
  Cl4      1.0000 0.68150  0.37545  0.44810  Biso   1.000  Cl
  Cl5      1.0000 0.37690  0.77287  0.05390  Biso   1.000  Cl
  Cl6      1.0000 0.37690  0.72713  0.55390  Biso   1.000  Cl
  Cl7      1.0000 0.62310  0.22713  0.94610  Biso   1.000  Cl
  Cl8      1.0000 0.62310  0.27287  0.44610  Biso   1.000  Cl
  Cl9      1.0000 0.43970  0.86530  0.02580  Biso   1.000  Cl
  Cl10     1.0000 0.43970  0.63470  0.52580  Biso   1.000  Cl
  Cl11     1.0000 0.56030  0.13470  0.97420  Biso   1.000  Cl
  Cl12     1.0000 0.56030  0.36530  0.47420  Biso   1.000  Cl
  C245     1.0000 0.17880  0.57850  0.33870  Biso   1.000  C
  C246     1.0000 0.17880  0.92150  0.83870  Biso   1.000  C
  C247     1.0000 0.82120  0.42150  0.66130  Biso   1.000  C
  C248     1.0000 0.82120  0.07850  0.16130  Biso   1.000  C
  Cl13     1.0000 0.13610  0.55089  0.25470  Biso   1.000  Cl
  Cl14     1.0000 0.13610  0.94911  0.75470  Biso   1.000  Cl
  Cl15     1.0000 0.86390  0.44911  0.74530  Biso   1.000  Cl
  Cl16     1.0000 0.86390  0.05089  0.24530  Biso   1.000  Cl
  Cl17     1.0000 0.12990  0.56460  0.38390  Biso   1.000  Cl
  Cl18     1.0000 0.12990  0.93540  0.88390  Biso   1.000  Cl
  Cl19     1.0000 0.87010  0.43540  0.61610  Biso   1.000  Cl
  Cl20     1.0000 0.87010  0.06460  0.11610  Biso   1.000  Cl
  Cl21     1.0000 0.26750  0.55660  0.38380  Biso   1.000  Cl
  Cl22     1.0000 0.26750  0.94340  0.88380  Biso   1.000  Cl
  Cl23     1.0000 0.73250  0.44340  0.61620  Biso   1.000  Cl
  Cl24     1.0000 0.73250  0.05660  0.11620  Biso   1.000  Cl
  C249     1.0000 0.48270  0.45960  0.27440  Biso   1.000  C
  C250     1.0000 0.48270  0.04040  0.77440  Biso   1.000  C
  C251     1.0000 0.51730  0.54040  0.72560  Biso   1.000  C
  C252     1.0000 0.51730  0.95960  0.22560  Biso   1.000  C
  Cl25     1.0000 0.50050  0.38862  0.27834  Biso   1.000  Cl
  Cl26     1.0000 0.50050  0.11138  0.77834  Biso   1.000  Cl
  Cl27     1.0000 0.49950  0.61138  0.72166  Biso   1.000  Cl
  Cl28     1.0000 0.49950  0.88862  0.22166  Biso   1.000  Cl
  Cl29     1.0000 0.53520  0.49120  0.35200  Biso   1.000  Cl
  Cl30     1.0000 0.53520  0.00880  0.85200  Biso   1.000  Cl
  Cl31     1.0000 0.46480  0.50880  0.64800  Biso   1.000  Cl
  Cl32     1.0000 0.46480  0.99120  0.14800  Biso   1.000  Cl
  Cl33     1.0000 0.39210  0.46740  0.25750  Biso   1.000  Cl
  Cl34     1.0000 0.39210  0.03260  0.75750  Biso   1.000  Cl
  Cl35     1.0000 0.60790  0.53260  0.74250  Biso   1.000  Cl
  Cl36     1.0000 0.60790  0.96740  0.24250  Biso   1.000  Cl
  C253     1.0000 0.13100  0.14380  0.88070  Biso   1.000  C
  C254     1.0000 0.13100  0.35620  0.38070  Biso   1.000  C
  C255     1.0000 0.86900  0.85620  0.11930  Biso   1.000  C
  C256     1.0000 0.86900  0.64380  0.61930  Biso   1.000  C
  Cl37     1.0000 0.14430  0.07510  0.87660  Biso   1.000  Cl
  Cl38     1.0000 0.14430  0.42490  0.37660  Biso   1.000  Cl
  Cl39     1.0000 0.85570  0.92490  0.12340  Biso   1.000  Cl
  Cl40     1.0000 0.85570  0.57510  0.62340  Biso   1.000  Cl
  Cl41     1.0000 0.15940  0.16770  0.96090  Biso   1.000  Cl
  Cl42     1.0000 0.15940  0.33230  0.46090  Biso   1.000  Cl
  Cl43     1.0000 0.84060  0.83230  0.03910  Biso   1.000  Cl
  Cl44     1.0000 0.84060  0.66770  0.53910  Biso   1.000  Cl
  Cl45     1.0000 0.03710  0.16210  0.82720  Biso   1.000  Cl
  Cl46     1.0000 0.03710  0.33790  0.32720  Biso   1.000  Cl
  Cl47     1.0000 0.96290  0.83790  0.17280  Biso   1.000  Cl
  Cl48     1.0000 0.96290  0.66210  0.67280  Biso   1.000  Cl
  C257     1.0000 0.35390  0.10750  0.99510  Biso   1.000  C
  C258     1.0000 0.35390  0.39250  0.49510  Biso   1.000  C
  C259     1.0000 0.64610  0.89250  0.00490  Biso   1.000  C
  C260     1.0000 0.64610  0.60750  0.50490  Biso   1.000  C
  Cl49     1.0000 0.40230  0.13740  0.07500  Biso   1.000  Cl
  Cl50     1.0000 0.40230  0.36260  0.57500  Biso   1.000  Cl
  Cl51     1.0000 0.59770  0.86260  0.92500  Biso   1.000  Cl
  Cl52     1.0000 0.59770  0.63740  0.42500  Biso   1.000  Cl
  Cl53     1.0000 0.31480  0.15540  0.92860  Biso   1.000  Cl
  Cl54     1.0000 0.31480  0.34460  0.42860  Biso   1.000  Cl
  Cl55     1.0000 0.68520  0.84460  0.07140  Biso   1.000  Cl
  Cl56     1.0000 0.68520  0.65540  0.57140  Biso   1.000  Cl
  Cl57     1.0000 0.40730  0.06220  0.97860  Biso   1.000  Cl
  Cl58     1.0000 0.40730  0.43780  0.47860  Biso   1.000  Cl
  Cl59     1.0000 0.59270  0.93780  0.02140  Biso   1.000  Cl
  Cl60     1.0000 0.59270  0.56220  0.52140  Biso   1.000  Cl
  Cl61     1.0000 0.37820  0.14780  0.07030  Biso   1.000  Cl
  Cl62     1.0000 0.37820  0.35220  0.57030  Biso   1.000  Cl
  Cl63     1.0000 0.62180  0.85220  0.92970  Biso   1.000  Cl
  Cl64     1.0000 0.62180  0.64780  0.42970  Biso   1.000  Cl
  Cl65     1.0000 0.32640  0.14750  0.92310  Biso   1.000  Cl
  Cl66     1.0000 0.32640  0.35250  0.42310  Biso   1.000  Cl
  Cl67     1.0000 0.67360  0.85250  0.07690  Biso   1.000  Cl
  Cl68     1.0000 0.67360  0.64750  0.57690  Biso   1.000  Cl
  Cl69     1.0000 0.29190  0.06010  0.98830  Biso   1.000  Cl
  Cl70     1.0000 0.29190  0.43990  0.48830  Biso   1.000  Cl
  Cl71     1.0000 0.70810  0.93990  0.01170  Biso   1.000  Cl
  Cl72     1.0000 0.70810  0.56010  0.51170  Biso   1.000  Cl
  C261     1.0000 0.94550  0.15710  0.93630  Biso   1.000  C
  C262     1.0000 0.94550  0.34290  0.43630  Biso   1.000  C
  C263     1.0000 0.05450  0.84290  0.06370  Biso   1.000  C
  C264     1.0000 0.05450  0.65710  0.56370  Biso   1.000  C
  Cl73     1.0000 0.89750  0.19900  0.86370  Biso   1.000  Cl
  Cl74     1.0000 0.89750  0.30100  0.36370  Biso   1.000  Cl
  Cl75     1.0000 0.10250  0.80100  0.13630  Biso   1.000  Cl
  Cl76     1.0000 0.10250  0.69900  0.63630  Biso   1.000  Cl
  Cl77     1.0000 0.87950  0.12210  0.94870  Biso   1.000  Cl
  Cl78     1.0000 0.87950  0.37790  0.44870  Biso   1.000  Cl
  Cl79     1.0000 0.12050  0.87790  0.05130  Biso   1.000  Cl
  Cl80     1.0000 0.12050  0.62210  0.55130  Biso   1.000  Cl
  Cl81     1.0000 0.00230  0.19660  0.01020  Biso   1.000  Cl
  Cl82     1.0000 0.00230  0.30340  0.51020  Biso   1.000  Cl
  Cl83     1.0000 0.99770  0.80340  0.98980  Biso   1.000  Cl
  Cl84     1.0000 0.99770  0.69660  0.48980  Biso   1.000  Cl
  C265     1.0000 0.98630  0.16660  0.98640  Biso   1.000  C
  C266     1.0000 0.98630  0.33340  0.48640  Biso   1.000  C
  C267     1.0000 0.01370  0.83340  0.01360  Biso   1.000  C
  C268     1.0000 0.01370  0.66660  0.51360  Biso   1.000  C
  Cl85     1.0000 0.03800  0.20920  0.05600  Biso   1.000  Cl
  Cl86     1.0000 0.03800  0.29080  0.55600  Biso   1.000  Cl
  Cl87     1.0000 0.96200  0.79080  0.94400  Biso   1.000  Cl
  Cl88     1.0000 0.96200  0.70920  0.44400  Biso   1.000  Cl
  Cl89     1.0000 0.92300  0.20210  0.91390  Biso   1.000  Cl
  Cl90     1.0000 0.92300  0.29790  0.41390  Biso   1.000  Cl
  Cl91     1.0000 0.07700  0.79790  0.08610  Biso   1.000  Cl
  Cl92     1.0000 0.07700  0.70210  0.58610  Biso   1.000  Cl
  Cl93     1.0000 0.94620  0.11870  0.01430  Biso   1.000  Cl
  Cl94     1.0000 0.94620  0.38130  0.51430  Biso   1.000  Cl
  Cl95     1.0000 0.05380  0.88130  0.98570  Biso   1.000  Cl
  Cl96     1.0000 0.05380  0.61870  0.48570  Biso   1.000  Cl
  C269     1.0000 0.75600  0.51470  0.32500  Biso   1.000  C
  C270     1.0000 0.75600  0.98530  0.82500  Biso   1.000  C
  C271     1.0000 0.24400  0.48530  0.67500  Biso   1.000  C
  C272     1.0000 0.24400  0.01470  0.17500  Biso   1.000  C
  Cl97     1.0000 0.72770  0.50820  0.23590  Biso   1.000  Cl
  Cl98     1.0000 0.72770  0.99180  0.73590  Biso   1.000  Cl
  Cl99     1.0000 0.27230  0.49180  0.76410  Biso   1.000  Cl
  Cl100    1.0000 0.27230  0.00820  0.26410  Biso   1.000  Cl
  Cl101    1.0000 0.70430  0.47090  0.34670  Biso   1.000  Cl
  Cl102    1.0000 0.70430  0.02910  0.84670  Biso   1.000  Cl
  Cl103    1.0000 0.29570  0.52910  0.65330  Biso   1.000  Cl
  Cl104    1.0000 0.29570  0.97090  0.15330  Biso   1.000  Cl
  Cl105    1.0000 0.73450  0.58000  0.34080  Biso   1.000  Cl
  Cl106    1.0000 0.73450  0.92000  0.84080  Biso   1.000  Cl
  Cl107    1.0000 0.26550  0.42000  0.65920  Biso   1.000  Cl
  Cl108    1.0000 0.26550  0.08000  0.15920  Biso   1.000  Cl
  C273     1.0000 0.09930  0.49810  0.74620  Biso   1.000  C
  C274     1.0000 0.09930  0.00190  0.24620  Biso   1.000  C
  C275     1.0000 0.90070  0.50190  0.25380  Biso   1.000  C
  C276     1.0000 0.90070  0.99810  0.75380  Biso   1.000  C
  Cl109    1.0000 0.03270  0.51610  0.76740  Biso   1.000  Cl
  Cl110    1.0000 0.03270  0.98390  0.26740  Biso   1.000  Cl
  Cl111    1.0000 0.96730  0.48390  0.23260  Biso   1.000  Cl
  Cl112    1.0000 0.96730  0.01610  0.73260  Biso   1.000  Cl
  Cl113    1.0000 0.09750  0.43020  0.72850  Biso   1.000  Cl
  Cl114    1.0000 0.09750  0.06980  0.22850  Biso   1.000  Cl
  Cl115    1.0000 0.90250  0.56980  0.27150  Biso   1.000  Cl
  Cl116    1.0000 0.90250  0.93020  0.77150  Biso   1.000  Cl
  Cl117    1.0000 0.10220  0.53020  0.67630  Biso   1.000  Cl
  Cl118    1.0000 0.10220  0.96980  0.17630  Biso   1.000  Cl
  Cl119    1.0000 0.89780  0.46980  0.32370  Biso   1.000  Cl
  Cl120    1.0000 0.89780  0.03020  0.82370  Biso   1.000  Cl
