data_image0
_cell_length_a       26.359
_cell_length_b       14.3982
_cell_length_c       25.3106
_cell_angle_alpha    90
_cell_angle_beta     113.016
_cell_angle_gamma    90

_symmetry_space_group_name_H-M    "P 1"
_symmetry_int_tables_number       1

loop_
  _symmetry_equiv_pos_as_xyz
  'x, y, z'

loop_
  _atom_site_label
  _atom_site_occupancy
  _atom_site_fract_x
  _atom_site_fract_y
  _atom_site_fract_z
  _atom_site_thermal_displace_type
  _atom_site_B_iso_or_equiv
  _atom_site_type_symbol
  Gd1      1.0000 0.21343  0.63715  0.31012  Biso   1.000  Gd
  Gd2      1.0000 0.71343  0.13715  0.31012  Biso   1.000  Gd
  Gd3      1.0000 0.21343  0.36285  0.81012  Biso   1.000  Gd
  Gd4      1.0000 0.71343  0.86285  0.81012  Biso   1.000  Gd
  Gd5      1.0000 0.78657  0.36285  0.68988  Biso   1.000  Gd
  Gd6      1.0000 0.28657  0.86285  0.68988  Biso   1.000  Gd
  Gd7      1.0000 0.78657  0.63715  0.18988  Biso   1.000  Gd
  Gd8      1.0000 0.28657  0.13715  0.18988  Biso   1.000  Gd
  Gd9      1.0000 0.33442  0.91687  0.30135  Biso   1.000  Gd
  Gd10     1.0000 0.83442  0.41687  0.30135  Biso   1.000  Gd
  Gd11     1.0000 0.33442  0.08313  0.80135  Biso   1.000  Gd
  Gd12     1.0000 0.83442  0.58313  0.80135  Biso   1.000  Gd
  Gd13     1.0000 0.66558  0.08313  0.69865  Biso   1.000  Gd
  Gd14     1.0000 0.16558  0.58313  0.69865  Biso   1.000  Gd
  Gd15     1.0000 0.66558  0.91687  0.19865  Biso   1.000  Gd
  Gd16     1.0000 0.16558  0.41687  0.19865  Biso   1.000  Gd
  Cu1      1.0000 0.55957  0.52602  0.42200  Biso   1.000  Cu
  Cu2      1.0000 0.05957  0.02602  0.42200  Biso   1.000  Cu
  Cu3      1.0000 0.55957  0.47398  0.92200  Biso   1.000  Cu
  Cu4      1.0000 0.05957  0.97398  0.92200  Biso   1.000  Cu
  Cu5      1.0000 0.44043  0.47398  0.57800  Biso   1.000  Cu
  Cu6      1.0000 0.94043  0.97398  0.57800  Biso   1.000  Cu
  Cu7      1.0000 0.44043  0.52602  0.07800  Biso   1.000  Cu
  Cu8      1.0000 0.94043  0.02602  0.07800  Biso   1.000  Cu
  C1       1.0000 0.19460  0.85740  0.27530  Biso   1.000  C
  C2       1.0000 0.69460  0.35740  0.27530  Biso   1.000  C
  C3       1.0000 0.19460  0.14260  0.77530  Biso   1.000  C
  C4       1.0000 0.69460  0.64260  0.77530  Biso   1.000  C
  C5       1.0000 0.80540  0.14260  0.72470  Biso   1.000  C
  C6       1.0000 0.30540  0.64260  0.72470  Biso   1.000  C
  C7       1.0000 0.80540  0.85740  0.22470  Biso   1.000  C
  C8       1.0000 0.30540  0.35740  0.22470  Biso   1.000  C
  C9       1.0000 0.15790  0.94200  0.25980  Biso   1.000  C
  C10      1.0000 0.65790  0.44200  0.25980  Biso   1.000  C
  C11      1.0000 0.15790  0.05800  0.75980  Biso   1.000  C
  C12      1.0000 0.65790  0.55800  0.75980  Biso   1.000  C
  C13      1.0000 0.84210  0.05800  0.74020  Biso   1.000  C
  C14      1.0000 0.34210  0.55800  0.74020  Biso   1.000  C
  C15      1.0000 0.84210  0.94200  0.24020  Biso   1.000  C
  C16      1.0000 0.34210  0.44200  0.24020  Biso   1.000  C
  C17      1.0000 0.10950  0.94520  0.26940  Biso   1.000  C
  C18      1.0000 0.60950  0.44520  0.26940  Biso   1.000  C
  C19      1.0000 0.10950  0.05480  0.76940  Biso   1.000  C
  C20      1.0000 0.60950  0.55480  0.76940  Biso   1.000  C
  C21      1.0000 0.89050  0.05480  0.73060  Biso   1.000  C
  C22      1.0000 0.39050  0.55480  0.73060  Biso   1.000  C
  C23      1.0000 0.89050  0.94520  0.23060  Biso   1.000  C
  C24      1.0000 0.39050  0.44520  0.23060  Biso   1.000  C
  H1       1.0000 0.09740  0.89260  0.28250  Biso   1.000  H
  H2       1.0000 0.59740  0.39260  0.28250  Biso   1.000  H
  H3       1.0000 0.09740  0.10740  0.78250  Biso   1.000  H
  H4       1.0000 0.59740  0.60740  0.78250  Biso   1.000  H
  H5       1.0000 0.90260  0.10740  0.71750  Biso   1.000  H
  H6       1.0000 0.40260  0.60740  0.71750  Biso   1.000  H
  H7       1.0000 0.90260  0.89260  0.21750  Biso   1.000  H
  H8       1.0000 0.40260  0.39260  0.21750  Biso   1.000  H
  C25      1.0000 0.07940  0.02660  0.25970  Biso   1.000  C
  C26      1.0000 0.57940  0.52660  0.25970  Biso   1.000  C
  C27      1.0000 0.07940  0.97340  0.75970  Biso   1.000  C
  C28      1.0000 0.57940  0.47340  0.75970  Biso   1.000  C
  C29      1.0000 0.92060  0.97340  0.74030  Biso   1.000  C
  C30      1.0000 0.42060  0.47340  0.74030  Biso   1.000  C
  C31      1.0000 0.92060  0.02660  0.24030  Biso   1.000  C
  C32      1.0000 0.42060  0.52660  0.24030  Biso   1.000  C
  H9       1.0000 0.04740  0.02880  0.26670  Biso   1.000  H
  H10      1.0000 0.54740  0.52880  0.26670  Biso   1.000  H
  H11      1.0000 0.04740  0.97120  0.76670  Biso   1.000  H
  H12      1.0000 0.54740  0.47120  0.76670  Biso   1.000  H
  H13      1.0000 0.95260  0.97120  0.73330  Biso   1.000  H
  H14      1.0000 0.45260  0.47120  0.73330  Biso   1.000  H
  H15      1.0000 0.95260  0.02880  0.23330  Biso   1.000  H
  H16      1.0000 0.45260  0.52880  0.23330  Biso   1.000  H
  C33      1.0000 0.09640  0.10480  0.23950  Biso   1.000  C
  C34      1.0000 0.59640  0.60480  0.23950  Biso   1.000  C
  C35      1.0000 0.09640  0.89520  0.73950  Biso   1.000  C
  C36      1.0000 0.59640  0.39520  0.73950  Biso   1.000  C
  C37      1.0000 0.90360  0.89520  0.76050  Biso   1.000  C
  C38      1.0000 0.40360  0.39520  0.76050  Biso   1.000  C
  C39      1.0000 0.90360  0.10480  0.26050  Biso   1.000  C
  C40      1.0000 0.40360  0.60480  0.26050  Biso   1.000  C
  H17      1.0000 0.07630  0.15970  0.23390  Biso   1.000  H
  H18      1.0000 0.57630  0.65970  0.23390  Biso   1.000  H
  H19      1.0000 0.07630  0.84030  0.73390  Biso   1.000  H
  H20      1.0000 0.57630  0.34030  0.73390  Biso   1.000  H
  H21      1.0000 0.92370  0.84030  0.76610  Biso   1.000  H
  H22      1.0000 0.42370  0.34030  0.76610  Biso   1.000  H
  H23      1.0000 0.92370  0.15970  0.26610  Biso   1.000  H
  H24      1.0000 0.42370  0.65970  0.26610  Biso   1.000  H
  C41      1.0000 0.14360  0.10140  0.22760  Biso   1.000  C
  C42      1.0000 0.64360  0.60140  0.22760  Biso   1.000  C
  C43      1.0000 0.14360  0.89860  0.72760  Biso   1.000  C
  C44      1.0000 0.64360  0.39860  0.72760  Biso   1.000  C
  C45      1.0000 0.85640  0.89860  0.77240  Biso   1.000  C
  C46      1.0000 0.35640  0.39860  0.77240  Biso   1.000  C
  C47      1.0000 0.85640  0.10140  0.27240  Biso   1.000  C
  C48      1.0000 0.35640  0.60140  0.27240  Biso   1.000  C
  C49      1.0000 0.17350  0.01940  0.23800  Biso   1.000  C
  C50      1.0000 0.67350  0.51940  0.23800  Biso   1.000  C
  C51      1.0000 0.17350  0.98060  0.73800  Biso   1.000  C
  C52      1.0000 0.67350  0.48060  0.73800  Biso   1.000  C
  C53      1.0000 0.82650  0.98060  0.76200  Biso   1.000  C
  C54      1.0000 0.32650  0.48060  0.76200  Biso   1.000  C
  C55      1.0000 0.82650  0.01940  0.26200  Biso   1.000  C
  C56      1.0000 0.32650  0.51940  0.26200  Biso   1.000  C
  H25      1.0000 0.20500  0.01660  0.23010  Biso   1.000  H
  H26      1.0000 0.70500  0.51660  0.23010  Biso   1.000  H
  H27      1.0000 0.20500  0.98340  0.73010  Biso   1.000  H
  H28      1.0000 0.70500  0.48340  0.73010  Biso   1.000  H
  H29      1.0000 0.79500  0.98340  0.76990  Biso   1.000  H
  H30      1.0000 0.29500  0.48340  0.76990  Biso   1.000  H
  H31      1.0000 0.79500  0.01660  0.26990  Biso   1.000  H
  H32      1.0000 0.29500  0.51660  0.26990  Biso   1.000  H
  C57      1.0000 0.16430  0.18490  0.20590  Biso   1.000  C
  C58      1.0000 0.66430  0.68490  0.20590  Biso   1.000  C
  C59      1.0000 0.16430  0.81510  0.70590  Biso   1.000  C
  C60      1.0000 0.66430  0.31510  0.70590  Biso   1.000  C
  C61      1.0000 0.83570  0.81510  0.79410  Biso   1.000  C
  C62      1.0000 0.33570  0.31510  0.79410  Biso   1.000  C
  C63      1.0000 0.83570  0.18490  0.29410  Biso   1.000  C
  C64      1.0000 0.33570  0.68490  0.29410  Biso   1.000  C
  C65      1.0000 0.25000  0.44890  0.35200  Biso   1.000  C
  C66      1.0000 0.75000  0.94890  0.35200  Biso   1.000  C
  C67      1.0000 0.25000  0.55110  0.85200  Biso   1.000  C
  C68      1.0000 0.75000  0.05110  0.85200  Biso   1.000  C
  C69      1.0000 0.75000  0.55110  0.64800  Biso   1.000  C
  C70      1.0000 0.25000  0.05110  0.64800  Biso   1.000  C
  C71      1.0000 0.75000  0.44890  0.14800  Biso   1.000  C
  C72      1.0000 0.25000  0.94890  0.14800  Biso   1.000  C
  C73      1.0000 0.27270  0.35740  0.37860  Biso   1.000  C
  C74      1.0000 0.77270  0.85740  0.37860  Biso   1.000  C
  C75      1.0000 0.27270  0.64260  0.87860  Biso   1.000  C
  C76      1.0000 0.77270  0.14260  0.87860  Biso   1.000  C
  C77      1.0000 0.72730  0.64260  0.62140  Biso   1.000  C
  C78      1.0000 0.22730  0.14260  0.62140  Biso   1.000  C
  C79      1.0000 0.72730  0.35740  0.12140  Biso   1.000  C
  C80      1.0000 0.22730  0.85740  0.12140  Biso   1.000  C
  C81      1.0000 0.29580  0.34890  0.43800  Biso   1.000  C
  C82      1.0000 0.79580  0.84890  0.43800  Biso   1.000  C
  C83      1.0000 0.29580  0.65110  0.93800  Biso   1.000  C
  C84      1.0000 0.79580  0.15110  0.93800  Biso   1.000  C
  C85      1.0000 0.70420  0.65110  0.56200  Biso   1.000  C
  C86      1.0000 0.20420  0.15110  0.56200  Biso   1.000  C
  C87      1.0000 0.70420  0.34890  0.06200  Biso   1.000  C
  C88      1.0000 0.20420  0.84890  0.06200  Biso   1.000  C
  H33      1.0000 0.29490  0.39850  0.46120  Biso   1.000  H
  H34      1.0000 0.79490  0.89850  0.46120  Biso   1.000  H
  H35      1.0000 0.29490  0.60150  0.96120  Biso   1.000  H
  H36      1.0000 0.79490  0.10150  0.96120  Biso   1.000  H
  H37      1.0000 0.70510  0.60150  0.53880  Biso   1.000  H
  H38      1.0000 0.20510  0.10150  0.53880  Biso   1.000  H
  H39      1.0000 0.70510  0.39850  0.03880  Biso   1.000  H
  H40      1.0000 0.20510  0.89850  0.03880  Biso   1.000  H
  C89      1.0000 0.32020  0.26580  0.46240  Biso   1.000  C
  C90      1.0000 0.82020  0.76580  0.46240  Biso   1.000  C
  C91      1.0000 0.32020  0.73420  0.96240  Biso   1.000  C
  C92      1.0000 0.82020  0.23420  0.96240  Biso   1.000  C
  C93      1.0000 0.67980  0.73420  0.53760  Biso   1.000  C
  C94      1.0000 0.17980  0.23420  0.53760  Biso   1.000  C
  C95      1.0000 0.67980  0.26580  0.03760  Biso   1.000  C
  C96      1.0000 0.17980  0.76580  0.03760  Biso   1.000  C
  H41      1.0000 0.33570  0.26000  0.50220  Biso   1.000  H
  H42      1.0000 0.83570  0.76000  0.50220  Biso   1.000  H
  H43      1.0000 0.33570  0.74000  0.00220  Biso   1.000  H
  H44      1.0000 0.83570  0.24000  0.00220  Biso   1.000  H
  H45      1.0000 0.66430  0.74000  0.49780  Biso   1.000  H
  H46      1.0000 0.16430  0.24000  0.49780  Biso   1.000  H
  H47      1.0000 0.66430  0.26000  0.99780  Biso   1.000  H
  H48      1.0000 0.16430  0.76000  0.99780  Biso   1.000  H
  C97      1.0000 0.32170  0.19150  0.42870  Biso   1.000  C
  C98      1.0000 0.82170  0.69150  0.42870  Biso   1.000  C
  C99      1.0000 0.32170  0.80850  0.92870  Biso   1.000  C
  C100     1.0000 0.82170  0.30850  0.92870  Biso   1.000  C
  C101     1.0000 0.67830  0.80850  0.57130  Biso   1.000  C
  C102     1.0000 0.17830  0.30850  0.57130  Biso   1.000  C
  C103     1.0000 0.67830  0.19150  0.07130  Biso   1.000  C
  C104     1.0000 0.17830  0.69150  0.07130  Biso   1.000  C
  H49      1.0000 0.33840  0.13620  0.44580  Biso   1.000  H
  H50      1.0000 0.83840  0.63620  0.44580  Biso   1.000  H
  H51      1.0000 0.33840  0.86380  0.94580  Biso   1.000  H
  H52      1.0000 0.83840  0.36380  0.94580  Biso   1.000  H
  H53      1.0000 0.66160  0.86380  0.55420  Biso   1.000  H
  H54      1.0000 0.16160  0.36380  0.55420  Biso   1.000  H
  H55      1.0000 0.66160  0.13620  0.05420  Biso   1.000  H
  H56      1.0000 0.16160  0.63620  0.05420  Biso   1.000  H
  C105     1.0000 0.29870  0.19930  0.36980  Biso   1.000  C
  C106     1.0000 0.79870  0.69930  0.36980  Biso   1.000  C
  C107     1.0000 0.29870  0.80070  0.86980  Biso   1.000  C
  C108     1.0000 0.79870  0.30070  0.86980  Biso   1.000  C
  C109     1.0000 0.70130  0.80070  0.63020  Biso   1.000  C
  C110     1.0000 0.20130  0.30070  0.63020  Biso   1.000  C
  C111     1.0000 0.70130  0.19930  0.13020  Biso   1.000  C
  C112     1.0000 0.20130  0.69930  0.13020  Biso   1.000  C
  C113     1.0000 0.27430  0.28220  0.34510  Biso   1.000  C
  C114     1.0000 0.77430  0.78220  0.34510  Biso   1.000  C
  C115     1.0000 0.27430  0.71780  0.84510  Biso   1.000  C
  C116     1.0000 0.77430  0.21780  0.84510  Biso   1.000  C
  C117     1.0000 0.72570  0.71780  0.65490  Biso   1.000  C
  C118     1.0000 0.22570  0.21780  0.65490  Biso   1.000  C
  C119     1.0000 0.72570  0.28220  0.15490  Biso   1.000  C
  C120     1.0000 0.22570  0.78220  0.15490  Biso   1.000  C
  H57      1.0000 0.25870  0.28750  0.30530  Biso   1.000  H
  H58      1.0000 0.75870  0.78750  0.30530  Biso   1.000  H
  H59      1.0000 0.25870  0.71250  0.80530  Biso   1.000  H
  H60      1.0000 0.75870  0.21250  0.80530  Biso   1.000  H
  H61      1.0000 0.74130  0.71250  0.69470  Biso   1.000  H
  H62      1.0000 0.24130  0.21250  0.69470  Biso   1.000  H
  H63      1.0000 0.74130  0.28750  0.19470  Biso   1.000  H
  H64      1.0000 0.24130  0.78750  0.19470  Biso   1.000  H
  C121     1.0000 0.29910  0.12010  0.33130  Biso   1.000  C
  C122     1.0000 0.79910  0.62010  0.33130  Biso   1.000  C
  C123     1.0000 0.29910  0.87990  0.83130  Biso   1.000  C
  C124     1.0000 0.79910  0.37990  0.83130  Biso   1.000  C
  C125     1.0000 0.70090  0.87990  0.66870  Biso   1.000  C
  C126     1.0000 0.20090  0.37990  0.66870  Biso   1.000  C
  C127     1.0000 0.70090  0.12010  0.16870  Biso   1.000  C
  C128     1.0000 0.20090  0.62010  0.16870  Biso   1.000  C
  C129     1.0000 0.15270  0.65190  0.40290  Biso   1.000  C
  C130     1.0000 0.65270  0.15190  0.40290  Biso   1.000  C
  C131     1.0000 0.15270  0.34810  0.90290  Biso   1.000  C
  C132     1.0000 0.65270  0.84810  0.90290  Biso   1.000  C
  C133     1.0000 0.84730  0.34810  0.59710  Biso   1.000  C
  C134     1.0000 0.34730  0.84810  0.59710  Biso   1.000  C
  C135     1.0000 0.84730  0.65190  0.09710  Biso   1.000  C
  C136     1.0000 0.34730  0.15190  0.09710  Biso   1.000  C
  C137     1.0000 0.12110  0.60040  0.43230  Biso   1.000  C
  C138     1.0000 0.62110  0.10040  0.43230  Biso   1.000  C
  C139     1.0000 0.12110  0.39960  0.93230  Biso   1.000  C
  C140     1.0000 0.62110  0.89960  0.93230  Biso   1.000  C
  C141     1.0000 0.87890  0.39960  0.56770  Biso   1.000  C
  C142     1.0000 0.37890  0.89960  0.56770  Biso   1.000  C
  C143     1.0000 0.87890  0.60040  0.06770  Biso   1.000  C
  C144     1.0000 0.37890  0.10040  0.06770  Biso   1.000  C
  C145     1.0000 0.08450  0.52970  0.40530  Biso   1.000  C
  C146     1.0000 0.58450  0.02970  0.40530  Biso   1.000  C
  C147     1.0000 0.08450  0.47030  0.90530  Biso   1.000  C
  C148     1.0000 0.58450  0.97030  0.90530  Biso   1.000  C
  C149     1.0000 0.91550  0.47030  0.59470  Biso   1.000  C
  C150     1.0000 0.41550  0.97030  0.59470  Biso   1.000  C
  C151     1.0000 0.91550  0.52970  0.09470  Biso   1.000  C
  C152     1.0000 0.41550  0.02970  0.09470  Biso   1.000  C
  H65      1.0000 0.07920  0.51200  0.36820  Biso   1.000  H
  H66      1.0000 0.57920  0.01200  0.36820  Biso   1.000  H
  H67      1.0000 0.07920  0.48800  0.86820  Biso   1.000  H
  H68      1.0000 0.57920  0.98800  0.86820  Biso   1.000  H
  H69      1.0000 0.92080  0.48800  0.63180  Biso   1.000  H
  H70      1.0000 0.42080  0.98800  0.63180  Biso   1.000  H
  H71      1.0000 0.92080  0.51200  0.13180  Biso   1.000  H
  H72      1.0000 0.42080  0.01200  0.13180  Biso   1.000  H
  C153     1.0000 0.05540  0.48480  0.43380  Biso   1.000  C
  C154     1.0000 0.55540  0.98480  0.43380  Biso   1.000  C
  C155     1.0000 0.05540  0.51520  0.93380  Biso   1.000  C
  C156     1.0000 0.55540  0.01520  0.93380  Biso   1.000  C
  C157     1.0000 0.94460  0.51520  0.56620  Biso   1.000  C
  C158     1.0000 0.44460  0.01520  0.56620  Biso   1.000  C
  C159     1.0000 0.94460  0.48480  0.06620  Biso   1.000  C
  C160     1.0000 0.44460  0.98480  0.06620  Biso   1.000  C
  H73      1.0000 0.02930  0.43980  0.41490  Biso   1.000  H
  H74      1.0000 0.52930  0.93980  0.41490  Biso   1.000  H
  H75      1.0000 0.02930  0.56020  0.91490  Biso   1.000  H
  H76      1.0000 0.52930  0.06020  0.91490  Biso   1.000  H
  H77      1.0000 0.97070  0.56020  0.58510  Biso   1.000  H
  H78      1.0000 0.47070  0.06020  0.58510  Biso   1.000  H
  H79      1.0000 0.97070  0.43980  0.08510  Biso   1.000  H
  H80      1.0000 0.47070  0.93980  0.08510  Biso   1.000  H
  C161     1.0000 0.06560  0.50720  0.49030  Biso   1.000  C
  C162     1.0000 0.56560  0.00720  0.49030  Biso   1.000  C
  C163     1.0000 0.06560  0.49280  0.99030  Biso   1.000  C
  C164     1.0000 0.56560  0.99280  0.99030  Biso   1.000  C
  C165     1.0000 0.93440  0.49280  0.50970  Biso   1.000  C
  C166     1.0000 0.43440  0.99280  0.50970  Biso   1.000  C
  C167     1.0000 0.93440  0.50720  0.00970  Biso   1.000  C
  C168     1.0000 0.43440  0.00720  0.00970  Biso   1.000  C
  H81      1.0000 0.04730  0.47580  0.50970  Biso   1.000  H
  H82      1.0000 0.54730  0.97580  0.50970  Biso   1.000  H
  H83      1.0000 0.04730  0.52420  0.00970  Biso   1.000  H
  H84      1.0000 0.54730  0.02420  0.00970  Biso   1.000  H
  H85      1.0000 0.95270  0.52420  0.49030  Biso   1.000  H
  H86      1.0000 0.45270  0.02420  0.49030  Biso   1.000  H
  H87      1.0000 0.95270  0.47580  0.99030  Biso   1.000  H
  H88      1.0000 0.45270  0.97580  0.99030  Biso   1.000  H
  C169     1.0000 0.10300  0.57620  0.51780  Biso   1.000  C
  C170     1.0000 0.60300  0.07620  0.51780  Biso   1.000  C
  C171     1.0000 0.10300  0.42380  0.01780  Biso   1.000  C
  C172     1.0000 0.60300  0.92380  0.01780  Biso   1.000  C
  C173     1.0000 0.89700  0.42380  0.48220  Biso   1.000  C
  C174     1.0000 0.39700  0.92380  0.48220  Biso   1.000  C
  C175     1.0000 0.89700  0.57620  0.98220  Biso   1.000  C
  C176     1.0000 0.39700  0.07620  0.98220  Biso   1.000  C
  C177     1.0000 0.12970  0.62390  0.48830  Biso   1.000  C
  C178     1.0000 0.62970  0.12390  0.48830  Biso   1.000  C
  C179     1.0000 0.12970  0.37610  0.98830  Biso   1.000  C
  C180     1.0000 0.62970  0.87610  0.98830  Biso   1.000  C
  C181     1.0000 0.87030  0.37610  0.51170  Biso   1.000  C
  C182     1.0000 0.37030  0.87610  0.51170  Biso   1.000  C
  C183     1.0000 0.87030  0.62390  0.01170  Biso   1.000  C
  C184     1.0000 0.37030  0.12390  0.01170  Biso   1.000  C
  H89      1.0000 0.15370  0.67210  0.50640  Biso   1.000  H
  H90      1.0000 0.65370  0.17210  0.50640  Biso   1.000  H
  H91      1.0000 0.15370  0.32790  0.00640  Biso   1.000  H
  H92      1.0000 0.65370  0.82790  0.00640  Biso   1.000  H
  H93      1.0000 0.84630  0.32790  0.49360  Biso   1.000  H
  H94      1.0000 0.34630  0.82790  0.49360  Biso   1.000  H
  H95      1.0000 0.84630  0.67210  0.99360  Biso   1.000  H
  H96      1.0000 0.34630  0.17210  0.99360  Biso   1.000  H
  C185     1.0000 0.11710  0.59710  0.58020  Biso   1.000  C
  C186     1.0000 0.61710  0.09710  0.58020  Biso   1.000  C
  C187     1.0000 0.11710  0.40290  0.08020  Biso   1.000  C
  C188     1.0000 0.61710  0.90290  0.08020  Biso   1.000  C
  C189     1.0000 0.88290  0.40290  0.41980  Biso   1.000  C
  C190     1.0000 0.38290  0.90290  0.41980  Biso   1.000  C
  C191     1.0000 0.88290  0.59710  0.91980  Biso   1.000  C
  C192     1.0000 0.38290  0.09710  0.91980  Biso   1.000  C
  C193     1.0000 0.08890  0.51990  0.23510  Biso   1.000  C
  C194     1.0000 0.58890  0.01990  0.23510  Biso   1.000  C
  C195     1.0000 0.08890  0.48010  0.73510  Biso   1.000  C
  C196     1.0000 0.58890  0.98010  0.73510  Biso   1.000  C
  C197     1.0000 0.91110  0.48010  0.76490  Biso   1.000  C
  C198     1.0000 0.41110  0.98010  0.76490  Biso   1.000  C
  C199     1.0000 0.91110  0.51990  0.26490  Biso   1.000  C
  C200     1.0000 0.41110  0.01990  0.26490  Biso   1.000  C
  C201     1.0000 0.04360  0.57170  0.24430  Biso   1.000  C
  C202     1.0000 0.54360  0.07170  0.24430  Biso   1.000  C
  C203     1.0000 0.04360  0.42830  0.74430  Biso   1.000  C
  C204     1.0000 0.54360  0.92830  0.74430  Biso   1.000  C
  C205     1.0000 0.95640  0.42830  0.75570  Biso   1.000  C
  C206     1.0000 0.45640  0.92830  0.75570  Biso   1.000  C
  C207     1.0000 0.95640  0.57170  0.25570  Biso   1.000  C
  C208     1.0000 0.45640  0.07170  0.25570  Biso   1.000  C
  C209     1.0000 0.04350  0.66820  0.24520  Biso   1.000  C
  C210     1.0000 0.54350  0.16820  0.24520  Biso   1.000  C
  C211     1.0000 0.04350  0.33180  0.74520  Biso   1.000  C
  C212     1.0000 0.54350  0.83180  0.74520  Biso   1.000  C
  C213     1.0000 0.95650  0.33180  0.75480  Biso   1.000  C
  C214     1.0000 0.45650  0.83180  0.75480  Biso   1.000  C
  C215     1.0000 0.95650  0.66820  0.25480  Biso   1.000  C
  C216     1.0000 0.45650  0.16820  0.25480  Biso   1.000  C
  H97      1.0000 0.07270  0.70110  0.24240  Biso   1.000  H
  H98      1.0000 0.57270  0.20110  0.24240  Biso   1.000  H
  H99      1.0000 0.07270  0.29890  0.74240  Biso   1.000  H
  H100     1.0000 0.57270  0.79890  0.74240  Biso   1.000  H
  H101     1.0000 0.92730  0.29890  0.75760  Biso   1.000  H
  H102     1.0000 0.42730  0.79890  0.75760  Biso   1.000  H
  H103     1.0000 0.92730  0.70110  0.25760  Biso   1.000  H
  H104     1.0000 0.42730  0.20110  0.25760  Biso   1.000  H
  C217     1.0000 0.00000  0.71520  0.25000  Biso   1.000  C
  C218     1.0000 0.50000  0.21520  0.25000  Biso   1.000  C
  C219     1.0000 0.00000  0.28480  0.75000  Biso   1.000  C
  C220     1.0000 0.50000  0.78480  0.75000  Biso   1.000  C
  H105     1.0000 0.00000  0.77970  0.25000  Biso   1.000  H
  H106     1.0000 0.50000  0.27970  0.25000  Biso   1.000  H
  H107     1.0000 0.00000  0.22030  0.75000  Biso   1.000  H
  H108     1.0000 0.50000  0.72030  0.75000  Biso   1.000  H
  C221     1.0000 0.00000  0.52340  0.25000  Biso   1.000  C
  C222     1.0000 0.50000  0.02340  0.25000  Biso   1.000  C
  C223     1.0000 0.00000  0.47660  0.75000  Biso   1.000  C
  C224     1.0000 0.50000  0.97660  0.75000  Biso   1.000  C
  H109     1.0000 0.00000  0.45880  0.25000  Biso   1.000  H
  H110     1.0000 0.50000  0.95880  0.25000  Biso   1.000  H
  H111     1.0000 0.00000  0.54120  0.75000  Biso   1.000  H
  H112     1.0000 0.50000  0.04120  0.75000  Biso   1.000  H
  C225     1.0000 0.53490  0.71140  0.35320  Biso   1.000  C
  C226     1.0000 0.03490  0.21140  0.35320  Biso   1.000  C
  C227     1.0000 0.53490  0.28860  0.85320  Biso   1.000  C
  C228     1.0000 0.03490  0.78860  0.85320  Biso   1.000  C
  C229     1.0000 0.46510  0.28860  0.64680  Biso   1.000  C
  C230     1.0000 0.96510  0.78860  0.64680  Biso   1.000  C
  C231     1.0000 0.46510  0.71140  0.14680  Biso   1.000  C
  C232     1.0000 0.96510  0.21140  0.14680  Biso   1.000  C
  H113     1.0000 0.49860  0.70630  0.34980  Biso   1.000  H
  H114     1.0000 0.99860  0.20630  0.34980  Biso   1.000  H
  H115     1.0000 0.49860  0.29370  0.84980  Biso   1.000  H
  H116     1.0000 0.99860  0.79370  0.84980  Biso   1.000  H
  H117     1.0000 0.50140  0.29370  0.65020  Biso   1.000  H
  H118     1.0000 0.00140  0.79370  0.65020  Biso   1.000  H
  H119     1.0000 0.50140  0.70630  0.15020  Biso   1.000  H
  H120     1.0000 0.00140  0.20630  0.15020  Biso   1.000  H
  C233     1.0000 0.55030  0.79120  0.33400  Biso   1.000  C
  C234     1.0000 0.05030  0.29120  0.33400  Biso   1.000  C
  C235     1.0000 0.55030  0.20880  0.83400  Biso   1.000  C
  C236     1.0000 0.05030  0.70880  0.83400  Biso   1.000  C
  C237     1.0000 0.44970  0.20880  0.66600  Biso   1.000  C
  C238     1.0000 0.94970  0.70880  0.66600  Biso   1.000  C
  C239     1.0000 0.44970  0.79120  0.16600  Biso   1.000  C
  C240     1.0000 0.94970  0.29120  0.16600  Biso   1.000  C
  H121     1.0000 0.52510  0.83880  0.31790  Biso   1.000  H
  H122     1.0000 0.02510  0.33880  0.31790  Biso   1.000  H
  H123     1.0000 0.52510  0.16120  0.81790  Biso   1.000  H
  H124     1.0000 0.02510  0.66120  0.81790  Biso   1.000  H
  H125     1.0000 0.47490  0.16120  0.68210  Biso   1.000  H
  H126     1.0000 0.97490  0.66120  0.68210  Biso   1.000  H
  H127     1.0000 0.47490  0.83880  0.18210  Biso   1.000  H
  H128     1.0000 0.97490  0.33880  0.18210  Biso   1.000  H
  C241     1.0000 0.60320  0.79880  0.33930  Biso   1.000  C
  C242     1.0000 0.10320  0.29880  0.33930  Biso   1.000  C
  C243     1.0000 0.60320  0.20120  0.83930  Biso   1.000  C
  C244     1.0000 0.10320  0.70120  0.83930  Biso   1.000  C
  C245     1.0000 0.39680  0.20120  0.66070  Biso   1.000  C
  C246     1.0000 0.89680  0.70120  0.66070  Biso   1.000  C
  C247     1.0000 0.39680  0.79880  0.16070  Biso   1.000  C
  C248     1.0000 0.89680  0.29880  0.16070  Biso   1.000  C
  H129     1.0000 0.61460  0.85170  0.32580  Biso   1.000  H
  H130     1.0000 0.11460  0.35170  0.32580  Biso   1.000  H
  H131     1.0000 0.61460  0.14830  0.82580  Biso   1.000  H
  H132     1.0000 0.11460  0.64830  0.82580  Biso   1.000  H
  H133     1.0000 0.38540  0.14830  0.67420  Biso   1.000  H
  H134     1.0000 0.88540  0.64830  0.67420  Biso   1.000  H
  H135     1.0000 0.38540  0.85170  0.17420  Biso   1.000  H
  H136     1.0000 0.88540  0.35170  0.17420  Biso   1.000  H
  C249     1.0000 0.64020  0.72910  0.36430  Biso   1.000  C
  C250     1.0000 0.14020  0.22910  0.36430  Biso   1.000  C
  C251     1.0000 0.64020  0.27090  0.86430  Biso   1.000  C
  C252     1.0000 0.14020  0.77090  0.86430  Biso   1.000  C
  C253     1.0000 0.35980  0.27090  0.63570  Biso   1.000  C
  C254     1.0000 0.85980  0.77090  0.63570  Biso   1.000  C
  C255     1.0000 0.35980  0.72910  0.13570  Biso   1.000  C
  C256     1.0000 0.85980  0.22910  0.13570  Biso   1.000  C
  H137     1.0000 0.67690  0.73530  0.36940  Biso   1.000  H
  H138     1.0000 0.17690  0.23530  0.36940  Biso   1.000  H
  H139     1.0000 0.67690  0.26470  0.86940  Biso   1.000  H
  H140     1.0000 0.17690  0.76470  0.86940  Biso   1.000  H
  H141     1.0000 0.32310  0.26470  0.63060  Biso   1.000  H
  H142     1.0000 0.82310  0.76470  0.63060  Biso   1.000  H
  H143     1.0000 0.32310  0.73530  0.13060  Biso   1.000  H
  H144     1.0000 0.82310  0.23530  0.13060  Biso   1.000  H
  C257     1.0000 0.62210  0.64930  0.38200  Biso   1.000  C
  C258     1.0000 0.12210  0.14930  0.38200  Biso   1.000  C
  C259     1.0000 0.62210  0.35070  0.88200  Biso   1.000  C
  C260     1.0000 0.12210  0.85070  0.88200  Biso   1.000  C
  C261     1.0000 0.37790  0.35070  0.61800  Biso   1.000  C
  C262     1.0000 0.87790  0.85070  0.61800  Biso   1.000  C
  C263     1.0000 0.37790  0.64930  0.11800  Biso   1.000  C
  C264     1.0000 0.87790  0.14930  0.11800  Biso   1.000  C
  C265     1.0000 0.65840  0.56910  0.40910  Biso   1.000  C
  C266     1.0000 0.15840  0.06910  0.40910  Biso   1.000  C
  C267     1.0000 0.65840  0.43090  0.90910  Biso   1.000  C
  C268     1.0000 0.15840  0.93090  0.90910  Biso   1.000  C
  C269     1.0000 0.34160  0.43090  0.59090  Biso   1.000  C
  C270     1.0000 0.84160  0.93090  0.59090  Biso   1.000  C
  C271     1.0000 0.34160  0.56910  0.09090  Biso   1.000  C
  C272     1.0000 0.84160  0.06910  0.09090  Biso   1.000  C
  C273     1.0000 0.70760  0.55360  0.40380  Biso   1.000  C
  C274     1.0000 0.20760  0.05360  0.40380  Biso   1.000  C
  C275     1.0000 0.70760  0.44640  0.90380  Biso   1.000  C
  C276     1.0000 0.20760  0.94640  0.90380  Biso   1.000  C
  C277     1.0000 0.29240  0.44640  0.59620  Biso   1.000  C
  C278     1.0000 0.79240  0.94640  0.59620  Biso   1.000  C
  C279     1.0000 0.29240  0.55360  0.09620  Biso   1.000  C
  C280     1.0000 0.79240  0.05360  0.09620  Biso   1.000  C
  H145     1.0000 0.71910  0.59340  0.38180  Biso   1.000  H
  H146     1.0000 0.21910  0.09340  0.38180  Biso   1.000  H
  H147     1.0000 0.71910  0.40660  0.88180  Biso   1.000  H
  H148     1.0000 0.21910  0.90660  0.88180  Biso   1.000  H
  H149     1.0000 0.28090  0.40660  0.61820  Biso   1.000  H
  H150     1.0000 0.78090  0.90660  0.61820  Biso   1.000  H
  H151     1.0000 0.28090  0.59340  0.11820  Biso   1.000  H
  H152     1.0000 0.78090  0.09340  0.11820  Biso   1.000  H
  C281     1.0000 0.73950  0.47970  0.43090  Biso   1.000  C
  C282     1.0000 0.23950  0.97970  0.43090  Biso   1.000  C
  C283     1.0000 0.73950  0.52030  0.93090  Biso   1.000  C
  C284     1.0000 0.23950  0.02030  0.93090  Biso   1.000  C
  C285     1.0000 0.26050  0.52030  0.56910  Biso   1.000  C
  C286     1.0000 0.76050  0.02030  0.56910  Biso   1.000  C
  C287     1.0000 0.26050  0.47970  0.06910  Biso   1.000  C
  C288     1.0000 0.76050  0.97970  0.06910  Biso   1.000  C
  H153     1.0000 0.77260  0.46850  0.42690  Biso   1.000  H
  H154     1.0000 0.27260  0.96850  0.42690  Biso   1.000  H
  H155     1.0000 0.77260  0.53150  0.92690  Biso   1.000  H
  H156     1.0000 0.27260  0.03150  0.92690  Biso   1.000  H
  H157     1.0000 0.22740  0.53150  0.57310  Biso   1.000  H
  H158     1.0000 0.72740  0.03150  0.57310  Biso   1.000  H
  H159     1.0000 0.22740  0.46850  0.07310  Biso   1.000  H
  H160     1.0000 0.72740  0.96850  0.07310  Biso   1.000  H
  C289     1.0000 0.72270  0.42180  0.46410  Biso   1.000  C
  C290     1.0000 0.22270  0.92180  0.46410  Biso   1.000  C
  C291     1.0000 0.72270  0.57820  0.96410  Biso   1.000  C
  C292     1.0000 0.22270  0.07820  0.96410  Biso   1.000  C
  C293     1.0000 0.27730  0.57820  0.53590  Biso   1.000  C
  C294     1.0000 0.77730  0.07820  0.53590  Biso   1.000  C
  C295     1.0000 0.27730  0.42180  0.03590  Biso   1.000  C
  C296     1.0000 0.77730  0.92180  0.03590  Biso   1.000  C
  H161     1.0000 0.74480  0.37320  0.48480  Biso   1.000  H
  H162     1.0000 0.24480  0.87320  0.48480  Biso   1.000  H
  H163     1.0000 0.74480  0.62680  0.98480  Biso   1.000  H
  H164     1.0000 0.24480  0.12680  0.98480  Biso   1.000  H
  H165     1.0000 0.25520  0.62680  0.51520  Biso   1.000  H
  H166     1.0000 0.75520  0.12680  0.51520  Biso   1.000  H
  H167     1.0000 0.25520  0.37320  0.01520  Biso   1.000  H
  H168     1.0000 0.75520  0.87320  0.01520  Biso   1.000  H
  C297     1.0000 0.67180  0.43890  0.46550  Biso   1.000  C
  C298     1.0000 0.17180  0.93890  0.46550  Biso   1.000  C
  C299     1.0000 0.67180  0.56110  0.96550  Biso   1.000  C
  C300     1.0000 0.17180  0.06110  0.96550  Biso   1.000  C
  C301     1.0000 0.32820  0.56110  0.53450  Biso   1.000  C
  C302     1.0000 0.82820  0.06110  0.53450  Biso   1.000  C
  C303     1.0000 0.32820  0.43890  0.03450  Biso   1.000  C
  C304     1.0000 0.82820  0.93890  0.03450  Biso   1.000  C
  H169     1.0000 0.65920  0.39810  0.48620  Biso   1.000  H
  H170     1.0000 0.15920  0.89810  0.48620  Biso   1.000  H
  H171     1.0000 0.65920  0.60190  0.98620  Biso   1.000  H
  H172     1.0000 0.15920  0.10190  0.98620  Biso   1.000  H
  H173     1.0000 0.34080  0.60190  0.51380  Biso   1.000  H
  H174     1.0000 0.84080  0.10190  0.51380  Biso   1.000  H
  H175     1.0000 0.34080  0.39810  0.01380  Biso   1.000  H
  H176     1.0000 0.84080  0.89810  0.01380  Biso   1.000  H
  C305     1.0000 0.49110  0.65440  0.46000  Biso   1.000  C
  C306     1.0000 0.99110  0.15440  0.46000  Biso   1.000  C
  C307     1.0000 0.49110  0.34560  0.96000  Biso   1.000  C
  C308     1.0000 0.99110  0.84560  0.96000  Biso   1.000  C
  C309     1.0000 0.50890  0.34560  0.54000  Biso   1.000  C
  C310     1.0000 0.00890  0.84560  0.54000  Biso   1.000  C
  C311     1.0000 0.50890  0.65440  0.04000  Biso   1.000  C
  C312     1.0000 0.00890  0.15440  0.04000  Biso   1.000  C
  H177     1.0000 0.52150  0.69340  0.47420  Biso   1.000  H
  H178     1.0000 0.02150  0.19340  0.47420  Biso   1.000  H
  H179     1.0000 0.52150  0.30660  0.97420  Biso   1.000  H
  H180     1.0000 0.02150  0.80660  0.97420  Biso   1.000  H
  H181     1.0000 0.47850  0.30660  0.52580  Biso   1.000  H
  H182     1.0000 0.97850  0.80660  0.52580  Biso   1.000  H
  H183     1.0000 0.47850  0.69340  0.02580  Biso   1.000  H
  H184     1.0000 0.97850  0.19340  0.02580  Biso   1.000  H
  C313     1.0000 0.44110  0.68670  0.45740  Biso   1.000  C
  C314     1.0000 0.94110  0.18670  0.45740  Biso   1.000  C
  C315     1.0000 0.44110  0.31330  0.95740  Biso   1.000  C
  C316     1.0000 0.94110  0.81330  0.95740  Biso   1.000  C
  C317     1.0000 0.55890  0.31330  0.54260  Biso   1.000  C
  C318     1.0000 0.05890  0.81330  0.54260  Biso   1.000  C
  C319     1.0000 0.55890  0.68670  0.04260  Biso   1.000  C
  C320     1.0000 0.05890  0.18670  0.04260  Biso   1.000  C
  H185     1.0000 0.43780  0.74650  0.46970  Biso   1.000  H
  H186     1.0000 0.93780  0.24650  0.46970  Biso   1.000  H
  H187     1.0000 0.43780  0.25350  0.96970  Biso   1.000  H
  H188     1.0000 0.93780  0.75350  0.96970  Biso   1.000  H
  H189     1.0000 0.56220  0.25350  0.53030  Biso   1.000  H
  H190     1.0000 0.06220  0.75350  0.53030  Biso   1.000  H
  H191     1.0000 0.56220  0.74650  0.03030  Biso   1.000  H
  H192     1.0000 0.06220  0.24650  0.03030  Biso   1.000  H
  C321     1.0000 0.39670  0.62960  0.43680  Biso   1.000  C
  C322     1.0000 0.89670  0.12960  0.43680  Biso   1.000  C
  C323     1.0000 0.39670  0.37040  0.93680  Biso   1.000  C
  C324     1.0000 0.89670  0.87040  0.93680  Biso   1.000  C
  C325     1.0000 0.60330  0.37040  0.56320  Biso   1.000  C
  C326     1.0000 0.10330  0.87040  0.56320  Biso   1.000  C
  C327     1.0000 0.60330  0.62960  0.06320  Biso   1.000  C
  C328     1.0000 0.10330  0.12960  0.06320  Biso   1.000  C
  H193     1.0000 0.36240  0.65080  0.43410  Biso   1.000  H
  H194     1.0000 0.86240  0.15080  0.43410  Biso   1.000  H
  H195     1.0000 0.36240  0.34920  0.93410  Biso   1.000  H
  H196     1.0000 0.86240  0.84920  0.93410  Biso   1.000  H
  H197     1.0000 0.63760  0.34920  0.56590  Biso   1.000  H
  H198     1.0000 0.13760  0.84920  0.56590  Biso   1.000  H
  H199     1.0000 0.63760  0.65080  0.06590  Biso   1.000  H
  H200     1.0000 0.13760  0.15080  0.06590  Biso   1.000  H
  C329     1.0000 0.40180  0.54180  0.41990  Biso   1.000  C
  C330     1.0000 0.90180  0.04180  0.41990  Biso   1.000  C
  C331     1.0000 0.40180  0.45820  0.91990  Biso   1.000  C
  C332     1.0000 0.90180  0.95820  0.91990  Biso   1.000  C
  C333     1.0000 0.59820  0.45820  0.58010  Biso   1.000  C
  C334     1.0000 0.09820  0.95820  0.58010  Biso   1.000  C
  C335     1.0000 0.59820  0.54180  0.08010  Biso   1.000  C
  C336     1.0000 0.09820  0.04180  0.08010  Biso   1.000  C
  H201     1.0000 0.37150  0.50220  0.40650  Biso   1.000  H
  H202     1.0000 0.87150  0.00220  0.40650  Biso   1.000  H
  H203     1.0000 0.37150  0.49780  0.90650  Biso   1.000  H
  H204     1.0000 0.87150  0.99780  0.90650  Biso   1.000  H
  H205     1.0000 0.62850  0.49780  0.59350  Biso   1.000  H
  H206     1.0000 0.12850  0.99780  0.59350  Biso   1.000  H
  H207     1.0000 0.62850  0.50220  0.09350  Biso   1.000  H
  H208     1.0000 0.12850  0.00220  0.09350  Biso   1.000  H
  C337     1.0000 0.45330  0.51170  0.42300  Biso   1.000  C
  C338     1.0000 0.95330  0.01170  0.42300  Biso   1.000  C
  C339     1.0000 0.45330  0.48830  0.92300  Biso   1.000  C
  C340     1.0000 0.95330  0.98830  0.92300  Biso   1.000  C
  C341     1.0000 0.54670  0.48830  0.57700  Biso   1.000  C
  C342     1.0000 0.04670  0.98830  0.57700  Biso   1.000  C
  C343     1.0000 0.54670  0.51170  0.07700  Biso   1.000  C
  C344     1.0000 0.04670  0.01170  0.07700  Biso   1.000  C
  C345     1.0000 0.46390  0.41870  0.40580  Biso   1.000  C
  C346     1.0000 0.96390  0.91870  0.40580  Biso   1.000  C
  C347     1.0000 0.46390  0.58130  0.90580  Biso   1.000  C
  C348     1.0000 0.96390  0.08130  0.90580  Biso   1.000  C
  C349     1.0000 0.53610  0.58130  0.59420  Biso   1.000  C
  C350     1.0000 0.03610  0.08130  0.59420  Biso   1.000  C
  C351     1.0000 0.53610  0.41870  0.09420  Biso   1.000  C
  C352     1.0000 0.03610  0.91870  0.09420  Biso   1.000  C
  C353     1.0000 0.42820  0.34340  0.39720  Biso   1.000  C
  C354     1.0000 0.92820  0.84340  0.39720  Biso   1.000  C
  C355     1.0000 0.42820  0.65660  0.89720  Biso   1.000  C
  C356     1.0000 0.92820  0.15660  0.89720  Biso   1.000  C
  C357     1.0000 0.57180  0.65660  0.60280  Biso   1.000  C
  C358     1.0000 0.07180  0.15660  0.60280  Biso   1.000  C
  C359     1.0000 0.57180  0.34340  0.10280  Biso   1.000  C
  C360     1.0000 0.07180  0.84340  0.10280  Biso   1.000  C
  H209     1.0000 0.39370  0.35190  0.39840  Biso   1.000  H
  H210     1.0000 0.89370  0.85190  0.39840  Biso   1.000  H
  H211     1.0000 0.39370  0.64810  0.89840  Biso   1.000  H
  H212     1.0000 0.89370  0.14810  0.89840  Biso   1.000  H
  H213     1.0000 0.60630  0.64810  0.60160  Biso   1.000  H
  H214     1.0000 0.10630  0.14810  0.60160  Biso   1.000  H
  H215     1.0000 0.60630  0.35190  0.10160  Biso   1.000  H
  H216     1.0000 0.10630  0.85190  0.10160  Biso   1.000  H
  C361     1.0000 0.44420  0.25760  0.38720  Biso   1.000  C
  C362     1.0000 0.94420  0.75760  0.38720  Biso   1.000  C
  C363     1.0000 0.44420  0.74240  0.88720  Biso   1.000  C
  C364     1.0000 0.94420  0.24240  0.88720  Biso   1.000  C
  C365     1.0000 0.55580  0.74240  0.61280  Biso   1.000  C
  C366     1.0000 0.05580  0.24240  0.61280  Biso   1.000  C
  C367     1.0000 0.55580  0.25760  0.11280  Biso   1.000  C
  C368     1.0000 0.05580  0.75760  0.11280  Biso   1.000  C
  H217     1.0000 0.42070  0.20690  0.38170  Biso   1.000  H
  H218     1.0000 0.92070  0.70690  0.38170  Biso   1.000  H
  H219     1.0000 0.42070  0.79310  0.88170  Biso   1.000  H
  H220     1.0000 0.92070  0.29310  0.88170  Biso   1.000  H
  H221     1.0000 0.57930  0.79310  0.61830  Biso   1.000  H
  H222     1.0000 0.07930  0.29310  0.61830  Biso   1.000  H
  H223     1.0000 0.57930  0.20690  0.11830  Biso   1.000  H
  H224     1.0000 0.07930  0.70690  0.11830  Biso   1.000  H
  C369     1.0000 0.49480  0.24650  0.38550  Biso   1.000  C
  C370     1.0000 0.99480  0.74650  0.38550  Biso   1.000  C
  C371     1.0000 0.49480  0.75350  0.88550  Biso   1.000  C
  C372     1.0000 0.99480  0.25350  0.88550  Biso   1.000  C
  C373     1.0000 0.50520  0.75350  0.61450  Biso   1.000  C
  C374     1.0000 0.00520  0.25350  0.61450  Biso   1.000  C
  C375     1.0000 0.50520  0.24650  0.11450  Biso   1.000  C
  C376     1.0000 0.00520  0.74650  0.11450  Biso   1.000  C
  H225     1.0000 0.50700  0.18820  0.37990  Biso   1.000  H
  H226     1.0000 0.00700  0.68820  0.37990  Biso   1.000  H
  H227     1.0000 0.50700  0.81180  0.87990  Biso   1.000  H
  H228     1.0000 0.00700  0.31180  0.87990  Biso   1.000  H
  H229     1.0000 0.49300  0.81180  0.62010  Biso   1.000  H
  H230     1.0000 0.99300  0.31180  0.62010  Biso   1.000  H
  H231     1.0000 0.49300  0.18820  0.12010  Biso   1.000  H
  H232     1.0000 0.99300  0.68820  0.12010  Biso   1.000  H
  C377     1.0000 0.52760  0.32390  0.39220  Biso   1.000  C
  C378     1.0000 0.02760  0.82390  0.39220  Biso   1.000  C
  C379     1.0000 0.52760  0.67610  0.89220  Biso   1.000  C
  C380     1.0000 0.02760  0.17610  0.89220  Biso   1.000  C
  C381     1.0000 0.47240  0.67610  0.60780  Biso   1.000  C
  C382     1.0000 0.97240  0.17610  0.60780  Biso   1.000  C
  C383     1.0000 0.47240  0.32390  0.10780  Biso   1.000  C
  C384     1.0000 0.97240  0.82390  0.10780  Biso   1.000  C
  H233     1.0000 0.56190  0.31620  0.39030  Biso   1.000  H
  H234     1.0000 0.06190  0.81620  0.39030  Biso   1.000  H
  H235     1.0000 0.56190  0.68380  0.89030  Biso   1.000  H
  H236     1.0000 0.06190  0.18380  0.89030  Biso   1.000  H
  H237     1.0000 0.43810  0.68380  0.60970  Biso   1.000  H
  H238     1.0000 0.93810  0.18380  0.60970  Biso   1.000  H
  H239     1.0000 0.43810  0.31620  0.10970  Biso   1.000  H
  H240     1.0000 0.93810  0.81620  0.10970  Biso   1.000  H
  N1       1.0000 0.56930  0.63990  0.37660  Biso   1.000  N
  N2       1.0000 0.06930  0.13990  0.37660  Biso   1.000  N
  N3       1.0000 0.56930  0.36010  0.87660  Biso   1.000  N
  N4       1.0000 0.06930  0.86010  0.87660  Biso   1.000  N
  N5       1.0000 0.43070  0.36010  0.62340  Biso   1.000  N
  N6       1.0000 0.93070  0.86010  0.62340  Biso   1.000  N
  N7       1.0000 0.43070  0.63990  0.12340  Biso   1.000  N
  N8       1.0000 0.93070  0.13990  0.12340  Biso   1.000  N
  N9       1.0000 0.63920  0.51030  0.43900  Biso   1.000  N
  N10      1.0000 0.13920  0.01030  0.43900  Biso   1.000  N
  N11      1.0000 0.63920  0.48970  0.93900  Biso   1.000  N
  N12      1.0000 0.13920  0.98970  0.93900  Biso   1.000  N
  N13      1.0000 0.36080  0.48970  0.56100  Biso   1.000  N
  N14      1.0000 0.86080  0.98970  0.56100  Biso   1.000  N
  N15      1.0000 0.36080  0.51030  0.06100  Biso   1.000  N
  N16      1.0000 0.86080  0.01030  0.06100  Biso   1.000  N
  N17      1.0000 0.49770  0.56910  0.44280  Biso   1.000  N
  N18      1.0000 0.99770  0.06910  0.44280  Biso   1.000  N
  N19      1.0000 0.49770  0.43090  0.94280  Biso   1.000  N
  N20      1.0000 0.99770  0.93090  0.94280  Biso   1.000  N
  N21      1.0000 0.50230  0.43090  0.55720  Biso   1.000  N
  N22      1.0000 0.00230  0.93090  0.55720  Biso   1.000  N
  N23      1.0000 0.50230  0.56910  0.05720  Biso   1.000  N
  N24      1.0000 0.00230  0.06910  0.05720  Biso   1.000  N
  N25      1.0000 0.51280  0.40920  0.40120  Biso   1.000  N
  N26      1.0000 0.01280  0.90920  0.40120  Biso   1.000  N
  N27      1.0000 0.51280  0.59080  0.90120  Biso   1.000  N
  N28      1.0000 0.01280  0.09080  0.90120  Biso   1.000  N
  N29      1.0000 0.48720  0.59080  0.59880  Biso   1.000  N
  N30      1.0000 0.98720  0.09080  0.59880  Biso   1.000  N
  N31      1.0000 0.48720  0.40920  0.09880  Biso   1.000  N
  N32      1.0000 0.98720  0.90920  0.09880  Biso   1.000  N
  O1       1.0000 0.17303  0.78150  0.27929  Biso   1.000  O
  O2       1.0000 0.67303  0.28150  0.27929  Biso   1.000  O
  O3       1.0000 0.17303  0.21850  0.77929  Biso   1.000  O
  O4       1.0000 0.67303  0.71850  0.77929  Biso   1.000  O
  O5       1.0000 0.82697  0.21850  0.72071  Biso   1.000  O
  O6       1.0000 0.32697  0.71850  0.72071  Biso   1.000  O
  O7       1.0000 0.82697  0.78150  0.22071  Biso   1.000  O
  O8       1.0000 0.32697  0.28150  0.22071  Biso   1.000  O
  O9       1.0000 0.24420  0.86820  0.28299  Biso   1.000  O
  O10      1.0000 0.74420  0.36820  0.28299  Biso   1.000  O
  O11      1.0000 0.24420  0.13180  0.78299  Biso   1.000  O
  O12      1.0000 0.74420  0.63180  0.78299  Biso   1.000  O
  O13      1.0000 0.75580  0.13180  0.71701  Biso   1.000  O
  O14      1.0000 0.25580  0.63180  0.71701  Biso   1.000  O
  O15      1.0000 0.75580  0.86820  0.21701  Biso   1.000  O
  O16      1.0000 0.25580  0.36820  0.21701  Biso   1.000  O
  O17      1.0000 0.19650  0.17060  0.18110  Biso   1.000  O
  O18      1.0000 0.69650  0.67060  0.18110  Biso   1.000  O
  O19      1.0000 0.19650  0.82940  0.68110  Biso   1.000  O
  O20      1.0000 0.69650  0.32940  0.68110  Biso   1.000  O
  O21      1.0000 0.80350  0.82940  0.81890  Biso   1.000  O
  O22      1.0000 0.30350  0.32940  0.81890  Biso   1.000  O
  O23      1.0000 0.80350  0.17060  0.31890  Biso   1.000  O
  O24      1.0000 0.30350  0.67060  0.31890  Biso   1.000  O
  O25      1.0000 0.14786  0.26390  0.21401  Biso   1.000  O
  O26      1.0000 0.64786  0.76390  0.21401  Biso   1.000  O
  O27      1.0000 0.14786  0.73610  0.71401  Biso   1.000  O
  O28      1.0000 0.64786  0.23610  0.71401  Biso   1.000  O
  O29      1.0000 0.85214  0.73610  0.78599  Biso   1.000  O
  O30      1.0000 0.35214  0.23610  0.78599  Biso   1.000  O
  O31      1.0000 0.85214  0.26390  0.28599  Biso   1.000  O
  O32      1.0000 0.35214  0.76390  0.28599  Biso   1.000  O
  O33      1.0000 0.21750  0.45320  0.29911  Biso   1.000  O
  O34      1.0000 0.71750  0.95320  0.29911  Biso   1.000  O
  O35      1.0000 0.21750  0.54680  0.79911  Biso   1.000  O
  O36      1.0000 0.71750  0.04680  0.79911  Biso   1.000  O
  O37      1.0000 0.78250  0.54680  0.70089  Biso   1.000  O
  O38      1.0000 0.28250  0.04680  0.70089  Biso   1.000  O
  O39      1.0000 0.78250  0.45320  0.20089  Biso   1.000  O
  O40      1.0000 0.28250  0.95320  0.20089  Biso   1.000  O
  O41      1.0000 0.26395  0.52070  0.38157  Biso   1.000  O
  O42      1.0000 0.76395  0.02070  0.38157  Biso   1.000  O
  O43      1.0000 0.26395  0.47930  0.88157  Biso   1.000  O
  O44      1.0000 0.76395  0.97930  0.88157  Biso   1.000  O
  O45      1.0000 0.73605  0.47930  0.61843  Biso   1.000  O
  O46      1.0000 0.23605  0.97930  0.61843  Biso   1.000  O
  O47      1.0000 0.73605  0.52070  0.11843  Biso   1.000  O
  O48      1.0000 0.23605  0.02070  0.11843  Biso   1.000  O
  O49      1.0000 0.31478  0.04210  0.35301  Biso   1.000  O
  O50      1.0000 0.81478  0.54210  0.35301  Biso   1.000  O
  O51      1.0000 0.31478  0.95790  0.85301  Biso   1.000  O
  O52      1.0000 0.81478  0.45790  0.85301  Biso   1.000  O
  O53      1.0000 0.68522  0.95790  0.64699  Biso   1.000  O
  O54      1.0000 0.18522  0.45790  0.64699  Biso   1.000  O
  O55      1.0000 0.68522  0.04210  0.14699  Biso   1.000  O
  O56      1.0000 0.18522  0.54210  0.14699  Biso   1.000  O
  O57      1.0000 0.28215  0.13670  0.27893  Biso   1.000  O
  O58      1.0000 0.78215  0.63670  0.27893  Biso   1.000  O
  O59      1.0000 0.28215  0.86330  0.77893  Biso   1.000  O
  O60      1.0000 0.78215  0.36330  0.77893  Biso   1.000  O
  O61      1.0000 0.71785  0.86330  0.72107  Biso   1.000  O
  O62      1.0000 0.21785  0.36330  0.72107  Biso   1.000  O
  O63      1.0000 0.71785  0.13670  0.22107  Biso   1.000  O
  O64      1.0000 0.21785  0.63670  0.22107  Biso   1.000  O
  O65      1.0000 0.15487  0.61660  0.35826  Biso   1.000  O
  O66      1.0000 0.65487  0.11660  0.35826  Biso   1.000  O
  O67      1.0000 0.15487  0.38340  0.85826  Biso   1.000  O
  O68      1.0000 0.65487  0.88340  0.85826  Biso   1.000  O
  O69      1.0000 0.84513  0.38340  0.64174  Biso   1.000  O
  O70      1.0000 0.34513  0.88340  0.64174  Biso   1.000  O
  O71      1.0000 0.84513  0.61660  0.14174  Biso   1.000  O
  O72      1.0000 0.34513  0.11660  0.14174  Biso   1.000  O
  O73      1.0000 0.17490  0.72640  0.42480  Biso   1.000  O
  O74      1.0000 0.67490  0.22640  0.42480  Biso   1.000  O
  O75      1.0000 0.17490  0.27360  0.92480  Biso   1.000  O
  O76      1.0000 0.67490  0.77360  0.92480  Biso   1.000  O
  O77      1.0000 0.82510  0.27360  0.57520  Biso   1.000  O
  O78      1.0000 0.32510  0.77360  0.57520  Biso   1.000  O
  O79      1.0000 0.82510  0.72640  0.07520  Biso   1.000  O
  O80      1.0000 0.32510  0.22640  0.07520  Biso   1.000  O
  O81      1.0000 0.16036  0.64380  0.60732  Biso   1.000  O
  O82      1.0000 0.66036  0.14380  0.60732  Biso   1.000  O
  O83      1.0000 0.16036  0.35620  0.10732  Biso   1.000  O
  O84      1.0000 0.66036  0.85620  0.10732  Biso   1.000  O
  O85      1.0000 0.83964  0.35620  0.39268  Biso   1.000  O
  O86      1.0000 0.33964  0.85620  0.39268  Biso   1.000  O
  O87      1.0000 0.83964  0.64380  0.89268  Biso   1.000  O
  O88      1.0000 0.33964  0.14380  0.89268  Biso   1.000  O
  O89      1.0000 0.08799  0.56590  0.60532  Biso   1.000  O
  O90      1.0000 0.58799  0.06590  0.60532  Biso   1.000  O
  O91      1.0000 0.08799  0.43410  0.10532  Biso   1.000  O
  O92      1.0000 0.58799  0.93410  0.10532  Biso   1.000  O
  O93      1.0000 0.91201  0.43410  0.39468  Biso   1.000  O
  O94      1.0000 0.41201  0.93410  0.39468  Biso   1.000  O
  O95      1.0000 0.91201  0.56590  0.89468  Biso   1.000  O
  O96      1.0000 0.41201  0.06590  0.89468  Biso   1.000  O
  O97      1.0000 0.13034  0.56600  0.23452  Biso   1.000  O
  O98      1.0000 0.63034  0.06600  0.23452  Biso   1.000  O
  O99      1.0000 0.13034  0.43400  0.73452  Biso   1.000  O
  O100     1.0000 0.63034  0.93400  0.73452  Biso   1.000  O
  O101     1.0000 0.86966  0.43400  0.76548  Biso   1.000  O
  O102     1.0000 0.36966  0.93400  0.76548  Biso   1.000  O
  O103     1.0000 0.86966  0.56600  0.26548  Biso   1.000  O
  O104     1.0000 0.36966  0.06600  0.26548  Biso   1.000  O
  O105     1.0000 0.08526  0.43410  0.22617  Biso   1.000  O
  O106     1.0000 0.58526  0.93410  0.22617  Biso   1.000  O
  O107     1.0000 0.08526  0.56590  0.72617  Biso   1.000  O
  O108     1.0000 0.58526  0.06590  0.72617  Biso   1.000  O
  O109     1.0000 0.91474  0.56590  0.77383  Biso   1.000  O
  O110     1.0000 0.41474  0.06590  0.77383  Biso   1.000  O
  O111     1.0000 0.91474  0.43410  0.27383  Biso   1.000  O
  O112     1.0000 0.41474  0.93410  0.27383  Biso   1.000  O
  O113     1.0000 0.25883  0.72950  0.39486  Biso   1.000  O
  O114     1.0000 0.75883  0.22950  0.39486  Biso   1.000  O
  O115     1.0000 0.25883  0.27050  0.89486  Biso   1.000  O
  O116     1.0000 0.75883  0.77050  0.89486  Biso   1.000  O
  O117     1.0000 0.74117  0.27050  0.60514  Biso   1.000  O
  O118     1.0000 0.24117  0.77050  0.60514  Biso   1.000  O
  O119     1.0000 0.74117  0.72950  0.10514  Biso   1.000  O
  O120     1.0000 0.24117  0.22950  0.10514  Biso   1.000  O
