data_image0
_cell_length_a       30.22
_cell_length_b       30.22
_cell_length_c       34.323
_cell_angle_alpha    90
_cell_angle_beta     90
_cell_angle_gamma    90

_symmetry_space_group_name_H-M    "P 1"
_symmetry_int_tables_number       1

loop_
  _symmetry_equiv_pos_as_xyz
  'x, y, z'

loop_
  _atom_site_label
  _atom_site_occupancy
  _atom_site_fract_x
  _atom_site_fract_y
  _atom_site_fract_z
  _atom_site_thermal_displace_type
  _atom_site_B_iso_or_equiv
  _atom_site_type_symbol
  Zn1      1.0000 0.25633  0.05262  0.00000  Biso   1.000  Zn
  Zn2      1.0000 0.74367  0.94738  0.00000  Biso   1.000  Zn
  Zn3      1.0000 0.94738  0.25633  0.00000  Biso   1.000  Zn
  Zn4      1.0000 0.05262  0.74367  0.00000  Biso   1.000  Zn
  Zn5      1.0000 0.75633  0.55262  0.50000  Biso   1.000  Zn
  Zn6      1.0000 0.24367  0.44738  0.50000  Biso   1.000  Zn
  Zn7      1.0000 0.44738  0.75633  0.50000  Biso   1.000  Zn
  Zn8      1.0000 0.55262  0.24367  0.50000  Biso   1.000  Zn
  O1       1.0000 0.30910  0.01020  0.97650  Biso   1.000  O
  O2       1.0000 0.69090  0.98980  0.97650  Biso   1.000  O
  O3       1.0000 0.98980  0.30910  0.97650  Biso   1.000  O
  O4       1.0000 0.01020  0.69090  0.97650  Biso   1.000  O
  O5       1.0000 0.80910  0.51020  0.47650  Biso   1.000  O
  O6       1.0000 0.19090  0.48980  0.47650  Biso   1.000  O
  O7       1.0000 0.48980  0.80910  0.47650  Biso   1.000  O
  O8       1.0000 0.51020  0.19090  0.47650  Biso   1.000  O
  O9       1.0000 0.69090  0.98980  0.02350  Biso   1.000  O
  O10      1.0000 0.30910  0.01020  0.02350  Biso   1.000  O
  O11      1.0000 0.01020  0.69090  0.02350  Biso   1.000  O
  O12      1.0000 0.98980  0.30910  0.02350  Biso   1.000  O
  O13      1.0000 0.19090  0.48980  0.52350  Biso   1.000  O
  O14      1.0000 0.80910  0.51020  0.52350  Biso   1.000  O
  O15      1.0000 0.51020  0.19090  0.52350  Biso   1.000  O
  O16      1.0000 0.48980  0.80910  0.52350  Biso   1.000  O
  C1       1.0000 0.32890  0.99780  0.00000  Biso   1.000  C
  C2       1.0000 0.67110  0.00220  0.00000  Biso   1.000  C
  C3       1.0000 0.00220  0.32890  0.00000  Biso   1.000  C
  C4       1.0000 0.99780  0.67110  0.00000  Biso   1.000  C
  C5       1.0000 0.82890  0.49780  0.50000  Biso   1.000  C
  C6       1.0000 0.17110  0.50220  0.50000  Biso   1.000  C
  C7       1.0000 0.50220  0.82890  0.50000  Biso   1.000  C
  C8       1.0000 0.49780  0.17110  0.50000  Biso   1.000  C
  Zn9      1.0000 0.65913  0.60373  0.50000  Biso   1.000  Zn
  Zn10     1.0000 0.34087  0.39627  0.50000  Biso   1.000  Zn
  Zn11     1.0000 0.39627  0.65913  0.50000  Biso   1.000  Zn
  Zn12     1.0000 0.60373  0.34087  0.50000  Biso   1.000  Zn
  Zn13     1.0000 0.15913  0.10373  0.00000  Biso   1.000  Zn
  Zn14     1.0000 0.84087  0.89627  0.00000  Biso   1.000  Zn
  Zn15     1.0000 0.89627  0.15913  0.00000  Biso   1.000  Zn
  Zn16     1.0000 0.10373  0.84087  0.00000  Biso   1.000  Zn
  Zn17     1.0000 0.71146  0.95607  0.82114  Biso   1.000  Zn
  Zn18     1.0000 0.28854  0.04393  0.82114  Biso   1.000  Zn
  Zn19     1.0000 0.04393  0.71146  0.82114  Biso   1.000  Zn
  Zn20     1.0000 0.95607  0.28854  0.82114  Biso   1.000  Zn
  Zn21     1.0000 0.21146  0.45607  0.32114  Biso   1.000  Zn
  Zn22     1.0000 0.78854  0.54393  0.32114  Biso   1.000  Zn
  Zn23     1.0000 0.54393  0.21146  0.32114  Biso   1.000  Zn
  Zn24     1.0000 0.45607  0.78854  0.32114  Biso   1.000  Zn
  Zn25     1.0000 0.28854  0.04393  0.17886  Biso   1.000  Zn
  Zn26     1.0000 0.71146  0.95607  0.17886  Biso   1.000  Zn
  Zn27     1.0000 0.95607  0.28854  0.17886  Biso   1.000  Zn
  Zn28     1.0000 0.04393  0.71146  0.17886  Biso   1.000  Zn
  Zn29     1.0000 0.78854  0.54393  0.67886  Biso   1.000  Zn
  Zn30     1.0000 0.21146  0.45607  0.67886  Biso   1.000  Zn
  Zn31     1.0000 0.45607  0.78854  0.67886  Biso   1.000  Zn
  Zn32     1.0000 0.54393  0.21146  0.67886  Biso   1.000  Zn
  Zn33     1.0000 0.62344  0.94579  0.76382  Biso   1.000  Zn
  Zn34     1.0000 0.37656  0.05421  0.76382  Biso   1.000  Zn
  Zn35     1.0000 0.05421  0.62344  0.76382  Biso   1.000  Zn
  Zn36     1.0000 0.94579  0.37656  0.76382  Biso   1.000  Zn
  Zn37     1.0000 0.12344  0.44579  0.26382  Biso   1.000  Zn
  Zn38     1.0000 0.87656  0.55421  0.26382  Biso   1.000  Zn
  Zn39     1.0000 0.55421  0.12344  0.26382  Biso   1.000  Zn
  Zn40     1.0000 0.44579  0.87656  0.26382  Biso   1.000  Zn
  Zn41     1.0000 0.37656  0.05421  0.23618  Biso   1.000  Zn
  Zn42     1.0000 0.62344  0.94579  0.23618  Biso   1.000  Zn
  Zn43     1.0000 0.94579  0.37656  0.23618  Biso   1.000  Zn
  Zn44     1.0000 0.05421  0.62344  0.23618  Biso   1.000  Zn
  Zn45     1.0000 0.87656  0.55421  0.73618  Biso   1.000  Zn
  Zn46     1.0000 0.12344  0.44579  0.73618  Biso   1.000  Zn
  Zn47     1.0000 0.44579  0.87656  0.73618  Biso   1.000  Zn
  Zn48     1.0000 0.55421  0.12344  0.73618  Biso   1.000  Zn
  Cu1      1.0000 0.83135  0.68455  0.67363  Biso   1.000  Cu
  Cu2      1.0000 0.16865  0.31545  0.67363  Biso   1.000  Cu
  Cu3      1.0000 0.31545  0.83135  0.67363  Biso   1.000  Cu
  Cu4      1.0000 0.68455  0.16865  0.67363  Biso   1.000  Cu
  Cu5      1.0000 0.33135  0.18455  0.17363  Biso   1.000  Cu
  Cu6      1.0000 0.66865  0.81545  0.17363  Biso   1.000  Cu
  Cu7      1.0000 0.81545  0.33135  0.17363  Biso   1.000  Cu
  Cu8      1.0000 0.18455  0.66865  0.17363  Biso   1.000  Cu
  Cu9      1.0000 0.16865  0.31545  0.32637  Biso   1.000  Cu
  Cu10     1.0000 0.83135  0.68455  0.32637  Biso   1.000  Cu
  Cu11     1.0000 0.68455  0.16865  0.32637  Biso   1.000  Cu
  Cu12     1.0000 0.31545  0.83135  0.32637  Biso   1.000  Cu
  Cu13     1.0000 0.66865  0.81545  0.82637  Biso   1.000  Cu
  Cu14     1.0000 0.33135  0.18455  0.82637  Biso   1.000  Cu
  Cu15     1.0000 0.18455  0.66865  0.82637  Biso   1.000  Cu
  Cu16     1.0000 0.81545  0.33135  0.82637  Biso   1.000  Cu
  Cu17     1.0000 0.57502  0.92669  0.00000  Biso   1.000  Cu
  Cu18     1.0000 0.42498  0.07331  0.00000  Biso   1.000  Cu
  Cu19     1.0000 0.07331  0.57502  0.00000  Biso   1.000  Cu
  Cu20     1.0000 0.92669  0.42498  0.00000  Biso   1.000  Cu
  Cu21     1.0000 0.07502  0.42669  0.50000  Biso   1.000  Cu
  Cu22     1.0000 0.92498  0.57331  0.50000  Biso   1.000  Cu
  Cu23     1.0000 0.57331  0.07502  0.50000  Biso   1.000  Cu
  Cu24     1.0000 0.42669  0.92498  0.50000  Biso   1.000  Cu
  Cu25     1.0000 0.73947  0.74441  0.67180  Biso   1.000  Cu
  Cu26     1.0000 0.26053  0.25559  0.67180  Biso   1.000  Cu
  Cu27     1.0000 0.25559  0.73947  0.67180  Biso   1.000  Cu
  Cu28     1.0000 0.74441  0.26053  0.67180  Biso   1.000  Cu
  Cu29     1.0000 0.23947  0.24441  0.17180  Biso   1.000  Cu
  Cu30     1.0000 0.76053  0.75559  0.17180  Biso   1.000  Cu
  Cu31     1.0000 0.75559  0.23947  0.17180  Biso   1.000  Cu
  Cu32     1.0000 0.24441  0.76053  0.17180  Biso   1.000  Cu
  Cu33     1.0000 0.26053  0.25559  0.32820  Biso   1.000  Cu
  Cu34     1.0000 0.73947  0.74441  0.32820  Biso   1.000  Cu
  Cu35     1.0000 0.74441  0.26053  0.32820  Biso   1.000  Cu
  Cu36     1.0000 0.25559  0.73947  0.32820  Biso   1.000  Cu
  Cu37     1.0000 0.76053  0.75559  0.82820  Biso   1.000  Cu
  Cu38     1.0000 0.23947  0.24441  0.82820  Biso   1.000  Cu
  Cu39     1.0000 0.24441  0.76053  0.82820  Biso   1.000  Cu
  Cu40     1.0000 0.75559  0.23947  0.82820  Biso   1.000  Cu
  Cu41     1.0000 0.82335  0.76375  0.73381  Biso   1.000  Cu
  Cu42     1.0000 0.17665  0.23625  0.73381  Biso   1.000  Cu
  Cu43     1.0000 0.23625  0.82335  0.73381  Biso   1.000  Cu
  Cu44     1.0000 0.76375  0.17665  0.73381  Biso   1.000  Cu
  Cu45     1.0000 0.32335  0.26375  0.23381  Biso   1.000  Cu
  Cu46     1.0000 0.67665  0.73625  0.23381  Biso   1.000  Cu
  Cu47     1.0000 0.73625  0.32335  0.23381  Biso   1.000  Cu
  Cu48     1.0000 0.26375  0.67665  0.23381  Biso   1.000  Cu
  Cu49     1.0000 0.17665  0.23625  0.26619  Biso   1.000  Cu
  Cu50     1.0000 0.82335  0.76375  0.26619  Biso   1.000  Cu
  Cu51     1.0000 0.76375  0.17665  0.26619  Biso   1.000  Cu
  Cu52     1.0000 0.23625  0.82335  0.26619  Biso   1.000  Cu
  Cu53     1.0000 0.67665  0.73625  0.76619  Biso   1.000  Cu
  Cu54     1.0000 0.32335  0.26375  0.76619  Biso   1.000  Cu
  Cu55     1.0000 0.26375  0.67665  0.76619  Biso   1.000  Cu
  Cu56     1.0000 0.73625  0.32335  0.76619  Biso   1.000  Cu
  Cu57     1.0000 0.48537  0.94359  0.95143  Biso   1.000  Cu
  Cu58     1.0000 0.51463  0.05641  0.95143  Biso   1.000  Cu
  Cu59     1.0000 0.05641  0.48537  0.95143  Biso   1.000  Cu
  Cu60     1.0000 0.94359  0.51463  0.95143  Biso   1.000  Cu
  Cu61     1.0000 0.98537  0.44359  0.45143  Biso   1.000  Cu
  Cu62     1.0000 0.01463  0.55641  0.45143  Biso   1.000  Cu
  Cu63     1.0000 0.55641  0.98537  0.45143  Biso   1.000  Cu
  Cu64     1.0000 0.44359  0.01463  0.45143  Biso   1.000  Cu
  Cu65     1.0000 0.51463  0.05641  0.04857  Biso   1.000  Cu
  Cu66     1.0000 0.48537  0.94359  0.04857  Biso   1.000  Cu
  Cu67     1.0000 0.94359  0.51463  0.04857  Biso   1.000  Cu
  Cu68     1.0000 0.05641  0.48537  0.04857  Biso   1.000  Cu
  Cu69     1.0000 0.01463  0.55641  0.54857  Biso   1.000  Cu
  Cu70     1.0000 0.98537  0.44359  0.54857  Biso   1.000  Cu
  Cu71     1.0000 0.44359  0.01463  0.54857  Biso   1.000  Cu
  Cu72     1.0000 0.55641  0.98537  0.54857  Biso   1.000  Cu
  N1       1.0000 0.78840  0.67400  0.63740  Biso   1.000  N
  N2       1.0000 0.21160  0.32600  0.63740  Biso   1.000  N
  N3       1.0000 0.32600  0.78840  0.63740  Biso   1.000  N
  N4       1.0000 0.67400  0.21160  0.63740  Biso   1.000  N
  N5       1.0000 0.28840  0.17400  0.13740  Biso   1.000  N
  N6       1.0000 0.71160  0.82600  0.13740  Biso   1.000  N
  N7       1.0000 0.82600  0.28840  0.13740  Biso   1.000  N
  N8       1.0000 0.17400  0.71160  0.13740  Biso   1.000  N
  N9       1.0000 0.21160  0.32600  0.36260  Biso   1.000  N
  N10      1.0000 0.78840  0.67400  0.36260  Biso   1.000  N
  N11      1.0000 0.67400  0.21160  0.36260  Biso   1.000  N
  N12      1.0000 0.32600  0.78840  0.36260  Biso   1.000  N
  N13      1.0000 0.71160  0.82600  0.86260  Biso   1.000  N
  N14      1.0000 0.28840  0.17400  0.86260  Biso   1.000  N
  N15      1.0000 0.17400  0.71160  0.86260  Biso   1.000  N
  N16      1.0000 0.82600  0.28840  0.86260  Biso   1.000  N
  N17      1.0000 0.87340  0.72930  0.73380  Biso   1.000  N
  N18      1.0000 0.12660  0.27070  0.73380  Biso   1.000  N
  N19      1.0000 0.27070  0.87340  0.73380  Biso   1.000  N
  N20      1.0000 0.72930  0.12660  0.73380  Biso   1.000  N
  N21      1.0000 0.37340  0.22930  0.23380  Biso   1.000  N
  N22      1.0000 0.62660  0.77070  0.23380  Biso   1.000  N
  N23      1.0000 0.77070  0.37340  0.23380  Biso   1.000  N
  N24      1.0000 0.22930  0.62660  0.23380  Biso   1.000  N
  N25      1.0000 0.12660  0.27070  0.26620  Biso   1.000  N
  N26      1.0000 0.87340  0.72930  0.26620  Biso   1.000  N
  N27      1.0000 0.72930  0.12660  0.26620  Biso   1.000  N
  N28      1.0000 0.27070  0.87340  0.26620  Biso   1.000  N
  N29      1.0000 0.62660  0.77070  0.76620  Biso   1.000  N
  N30      1.0000 0.37340  0.22930  0.76620  Biso   1.000  N
  N31      1.0000 0.22930  0.62660  0.76620  Biso   1.000  N
  N32      1.0000 0.77070  0.37340  0.76620  Biso   1.000  N
  N33      1.0000 0.74750  0.69840  0.63800  Biso   1.000  N
  N34      1.0000 0.25250  0.30160  0.63800  Biso   1.000  N
  N35      1.0000 0.30160  0.74750  0.63800  Biso   1.000  N
  N36      1.0000 0.69840  0.25250  0.63800  Biso   1.000  N
  N37      1.0000 0.24750  0.19840  0.13800  Biso   1.000  N
  N38      1.0000 0.75250  0.80160  0.13800  Biso   1.000  N
  N39      1.0000 0.80160  0.24750  0.13800  Biso   1.000  N
  N40      1.0000 0.19840  0.75250  0.13800  Biso   1.000  N
  N41      1.0000 0.25250  0.30160  0.36200  Biso   1.000  N
  N42      1.0000 0.74750  0.69840  0.36200  Biso   1.000  N
  N43      1.0000 0.69840  0.25250  0.36200  Biso   1.000  N
  N44      1.0000 0.30160  0.74750  0.36200  Biso   1.000  N
  N45      1.0000 0.75250  0.80160  0.86200  Biso   1.000  N
  N46      1.0000 0.24750  0.19840  0.86200  Biso   1.000  N
  N47      1.0000 0.19840  0.75250  0.86200  Biso   1.000  N
  N48      1.0000 0.80160  0.24750  0.86200  Biso   1.000  N
  N49      1.0000 0.73870  0.79210  0.70530  Biso   1.000  N
  N50      1.0000 0.26130  0.20790  0.70530  Biso   1.000  N
  N51      1.0000 0.20790  0.73870  0.70530  Biso   1.000  N
  N52      1.0000 0.79210  0.26130  0.70530  Biso   1.000  N
  N53      1.0000 0.23870  0.29210  0.20530  Biso   1.000  N
  N54      1.0000 0.76130  0.70790  0.20530  Biso   1.000  N
  N55      1.0000 0.70790  0.23870  0.20530  Biso   1.000  N
  N56      1.0000 0.29210  0.76130  0.20530  Biso   1.000  N
  N57      1.0000 0.26130  0.20790  0.29470  Biso   1.000  N
  N58      1.0000 0.73870  0.79210  0.29470  Biso   1.000  N
  N59      1.0000 0.79210  0.26130  0.29470  Biso   1.000  N
  N60      1.0000 0.20790  0.73870  0.29470  Biso   1.000  N
  N61      1.0000 0.76130  0.70790  0.79470  Biso   1.000  N
  N62      1.0000 0.23870  0.29210  0.79470  Biso   1.000  N
  N63      1.0000 0.29210  0.76130  0.79470  Biso   1.000  N
  N64      1.0000 0.70790  0.23870  0.79470  Biso   1.000  N
  N65      1.0000 0.77500  0.79930  0.73150  Biso   1.000  N
  N66      1.0000 0.22500  0.20070  0.73150  Biso   1.000  N
  N67      1.0000 0.20070  0.77500  0.73150  Biso   1.000  N
  N68      1.0000 0.79930  0.22500  0.73150  Biso   1.000  N
  N69      1.0000 0.27500  0.29930  0.23150  Biso   1.000  N
  N70      1.0000 0.72500  0.70070  0.23150  Biso   1.000  N
  N71      1.0000 0.70070  0.27500  0.23150  Biso   1.000  N
  N72      1.0000 0.29930  0.72500  0.23150  Biso   1.000  N
  N73      1.0000 0.22500  0.20070  0.26850  Biso   1.000  N
  N74      1.0000 0.77500  0.79930  0.26850  Biso   1.000  N
  N75      1.0000 0.79930  0.22500  0.26850  Biso   1.000  N
  N76      1.0000 0.20070  0.77500  0.26850  Biso   1.000  N
  N77      1.0000 0.72500  0.70070  0.76850  Biso   1.000  N
  N78      1.0000 0.27500  0.29930  0.76850  Biso   1.000  N
  N79      1.0000 0.29930  0.72500  0.76850  Biso   1.000  N
  N80      1.0000 0.70070  0.27500  0.76850  Biso   1.000  N
  N81      1.0000 0.87660  0.69430  0.70780  Biso   1.000  N
  N82      1.0000 0.12340  0.30570  0.70780  Biso   1.000  N
  N83      1.0000 0.30570  0.87660  0.70780  Biso   1.000  N
  N84      1.0000 0.69430  0.12340  0.70780  Biso   1.000  N
  N85      1.0000 0.37660  0.19430  0.20780  Biso   1.000  N
  N86      1.0000 0.62340  0.80570  0.20780  Biso   1.000  N
  N87      1.0000 0.80570  0.37660  0.20780  Biso   1.000  N
  N88      1.0000 0.19430  0.62340  0.20780  Biso   1.000  N
  N89      1.0000 0.12340  0.30570  0.29220  Biso   1.000  N
  N90      1.0000 0.87660  0.69430  0.29220  Biso   1.000  N
  N91      1.0000 0.69430  0.12340  0.29220  Biso   1.000  N
  N92      1.0000 0.30570  0.87660  0.29220  Biso   1.000  N
  N93      1.0000 0.62340  0.80570  0.79220  Biso   1.000  N
  N94      1.0000 0.37660  0.19430  0.79220  Biso   1.000  N
  N95      1.0000 0.19430  0.62340  0.79220  Biso   1.000  N
  N96      1.0000 0.80570  0.37660  0.79220  Biso   1.000  N
  C9       1.0000 0.74580  0.64690  0.59030  Biso   1.000  C
  C10      1.0000 0.25420  0.35310  0.59030  Biso   1.000  C
  C11      1.0000 0.35310  0.74580  0.59030  Biso   1.000  C
  C12      1.0000 0.64690  0.25420  0.59030  Biso   1.000  C
  C13      1.0000 0.24580  0.14690  0.09030  Biso   1.000  C
  C14      1.0000 0.75420  0.85310  0.09030  Biso   1.000  C
  C15      1.0000 0.85310  0.24580  0.09030  Biso   1.000  C
  C16      1.0000 0.14690  0.75420  0.09030  Biso   1.000  C
  C17      1.0000 0.25420  0.35310  0.40970  Biso   1.000  C
  C18      1.0000 0.74580  0.64690  0.40970  Biso   1.000  C
  C19      1.0000 0.64690  0.25420  0.40970  Biso   1.000  C
  C20      1.0000 0.35310  0.74580  0.40970  Biso   1.000  C
  C21      1.0000 0.75420  0.85310  0.90970  Biso   1.000  C
  C22      1.0000 0.24580  0.14690  0.90970  Biso   1.000  C
  C23      1.0000 0.14690  0.75420  0.90970  Biso   1.000  C
  C24      1.0000 0.85310  0.24580  0.90970  Biso   1.000  C
  C25      1.0000 0.78520  0.64360  0.61130  Biso   1.000  C
  C26      1.0000 0.21480  0.35640  0.61130  Biso   1.000  C
  C27      1.0000 0.35640  0.78520  0.61130  Biso   1.000  C
  C28      1.0000 0.64360  0.21480  0.61130  Biso   1.000  C
  C29      1.0000 0.28520  0.14360  0.11130  Biso   1.000  C
  C30      1.0000 0.71480  0.85640  0.11130  Biso   1.000  C
  C31      1.0000 0.85640  0.28520  0.11130  Biso   1.000  C
  C32      1.0000 0.14360  0.71480  0.11130  Biso   1.000  C
  C33      1.0000 0.21480  0.35640  0.38870  Biso   1.000  C
  C34      1.0000 0.78520  0.64360  0.38870  Biso   1.000  C
  C35      1.0000 0.64360  0.21480  0.38870  Biso   1.000  C
  C36      1.0000 0.35640  0.78520  0.38870  Biso   1.000  C
  C37      1.0000 0.71480  0.85640  0.88870  Biso   1.000  C
  C38      1.0000 0.28520  0.14360  0.88870  Biso   1.000  C
  C39      1.0000 0.14360  0.71480  0.88870  Biso   1.000  C
  C40      1.0000 0.85640  0.28520  0.88870  Biso   1.000  C
  H1       1.0000 0.80710  0.62160  0.60680  Biso   1.000  H
  H2       1.0000 0.19290  0.37840  0.60680  Biso   1.000  H
  H3       1.0000 0.37840  0.80710  0.60680  Biso   1.000  H
  H4       1.0000 0.62160  0.19290  0.60680  Biso   1.000  H
  H5       1.0000 0.30710  0.12160  0.10680  Biso   1.000  H
  H6       1.0000 0.69290  0.87840  0.10680  Biso   1.000  H
  H7       1.0000 0.87840  0.30710  0.10680  Biso   1.000  H
  H8       1.0000 0.12160  0.69290  0.10680  Biso   1.000  H
  H9       1.0000 0.19290  0.37840  0.39320  Biso   1.000  H
  H10      1.0000 0.80710  0.62160  0.39320  Biso   1.000  H
  H11      1.0000 0.62160  0.19290  0.39320  Biso   1.000  H
  H12      1.0000 0.37840  0.80710  0.39320  Biso   1.000  H
  H13      1.0000 0.69290  0.87840  0.89320  Biso   1.000  H
  H14      1.0000 0.30710  0.12160  0.89320  Biso   1.000  H
  H15      1.0000 0.12160  0.69290  0.89320  Biso   1.000  H
  H16      1.0000 0.87840  0.30710  0.89320  Biso   1.000  H
  C41      1.0000 0.73140  0.61920  0.55870  Biso   1.000  C
  C42      1.0000 0.26860  0.38080  0.55870  Biso   1.000  C
  C43      1.0000 0.38080  0.73140  0.55870  Biso   1.000  C
  C44      1.0000 0.61920  0.26860  0.55870  Biso   1.000  C
  C45      1.0000 0.23140  0.11920  0.05870  Biso   1.000  C
  C46      1.0000 0.76860  0.88080  0.05870  Biso   1.000  C
  C47      1.0000 0.88080  0.23140  0.05870  Biso   1.000  C
  C48      1.0000 0.11920  0.76860  0.05870  Biso   1.000  C
  C49      1.0000 0.26860  0.38080  0.44130  Biso   1.000  C
  C50      1.0000 0.73140  0.61920  0.44130  Biso   1.000  C
  C51      1.0000 0.61920  0.26860  0.44130  Biso   1.000  C
  C52      1.0000 0.38080  0.73140  0.44130  Biso   1.000  C
  C53      1.0000 0.76860  0.88080  0.94130  Biso   1.000  C
  C54      1.0000 0.23140  0.11920  0.94130  Biso   1.000  C
  C55      1.0000 0.11920  0.76860  0.94130  Biso   1.000  C
  C56      1.0000 0.88080  0.23140  0.94130  Biso   1.000  C
  C57      1.0000 0.91420  0.67470  0.71480  Biso   1.000  C
  C58      1.0000 0.08580  0.32530  0.71480  Biso   1.000  C
  C59      1.0000 0.32530  0.91420  0.71480  Biso   1.000  C
  C60      1.0000 0.67470  0.08580  0.71480  Biso   1.000  C
  C61      1.0000 0.41420  0.17470  0.21480  Biso   1.000  C
  C62      1.0000 0.58580  0.82530  0.21480  Biso   1.000  C
  C63      1.0000 0.82530  0.41420  0.21480  Biso   1.000  C
  C64      1.0000 0.17470  0.58580  0.21480  Biso   1.000  C
  C65      1.0000 0.08580  0.32530  0.28520  Biso   1.000  C
  C66      1.0000 0.91420  0.67470  0.28520  Biso   1.000  C
  C67      1.0000 0.67470  0.08580  0.28520  Biso   1.000  C
  C68      1.0000 0.32530  0.91420  0.28520  Biso   1.000  C
  C69      1.0000 0.58580  0.82530  0.78520  Biso   1.000  C
  C70      1.0000 0.41420  0.17470  0.78520  Biso   1.000  C
  C71      1.0000 0.17470  0.58580  0.78520  Biso   1.000  C
  C72      1.0000 0.82530  0.41420  0.78520  Biso   1.000  C
  H17      1.0000 0.92530  0.65030  0.70040  Biso   1.000  H
  H18      1.0000 0.07470  0.34970  0.70040  Biso   1.000  H
  H19      1.0000 0.34970  0.92530  0.70040  Biso   1.000  H
  H20      1.0000 0.65030  0.07470  0.70040  Biso   1.000  H
  H21      1.0000 0.42530  0.15030  0.20040  Biso   1.000  H
  H22      1.0000 0.57470  0.84970  0.20040  Biso   1.000  H
  H23      1.0000 0.84970  0.42530  0.20040  Biso   1.000  H
  H24      1.0000 0.15030  0.57470  0.20040  Biso   1.000  H
  H25      1.0000 0.07470  0.34970  0.29960  Biso   1.000  H
  H26      1.0000 0.92530  0.65030  0.29960  Biso   1.000  H
  H27      1.0000 0.65030  0.07470  0.29960  Biso   1.000  H
  H28      1.0000 0.34970  0.92530  0.29960  Biso   1.000  H
  H29      1.0000 0.57470  0.84970  0.79960  Biso   1.000  H
  H30      1.0000 0.42530  0.15030  0.79960  Biso   1.000  H
  H31      1.0000 0.15030  0.57470  0.79960  Biso   1.000  H
  H32      1.0000 0.84970  0.42530  0.79960  Biso   1.000  H
  C73      1.0000 0.72350  0.68140  0.60810  Biso   1.000  C
  C74      1.0000 0.27650  0.31860  0.60810  Biso   1.000  C
  C75      1.0000 0.31860  0.72350  0.60810  Biso   1.000  C
  C76      1.0000 0.68140  0.27650  0.60810  Biso   1.000  C
  C77      1.0000 0.22350  0.18140  0.10810  Biso   1.000  C
  C78      1.0000 0.77650  0.81860  0.10810  Biso   1.000  C
  C79      1.0000 0.81860  0.22350  0.10810  Biso   1.000  C
  C80      1.0000 0.18140  0.77650  0.10810  Biso   1.000  C
  C81      1.0000 0.27650  0.31860  0.39190  Biso   1.000  C
  C82      1.0000 0.72350  0.68140  0.39190  Biso   1.000  C
  C83      1.0000 0.68140  0.27650  0.39190  Biso   1.000  C
  C84      1.0000 0.31860  0.72350  0.39190  Biso   1.000  C
  C85      1.0000 0.77650  0.81860  0.89190  Biso   1.000  C
  C86      1.0000 0.22350  0.18140  0.89190  Biso   1.000  C
  C87      1.0000 0.18140  0.77650  0.89190  Biso   1.000  C
  C88      1.0000 0.81860  0.22350  0.89190  Biso   1.000  C
  H33      1.0000 0.69510  0.69180  0.60050  Biso   1.000  H
  H34      1.0000 0.30490  0.30820  0.60050  Biso   1.000  H
  H35      1.0000 0.30820  0.69510  0.60050  Biso   1.000  H
  H36      1.0000 0.69180  0.30490  0.60050  Biso   1.000  H
  H37      1.0000 0.19510  0.19180  0.10050  Biso   1.000  H
  H38      1.0000 0.80490  0.80820  0.10050  Biso   1.000  H
  H39      1.0000 0.80820  0.19510  0.10050  Biso   1.000  H
  H40      1.0000 0.19180  0.80490  0.10050  Biso   1.000  H
  H41      1.0000 0.30490  0.30820  0.39950  Biso   1.000  H
  H42      1.0000 0.69510  0.69180  0.39950  Biso   1.000  H
  H43      1.0000 0.69180  0.30490  0.39950  Biso   1.000  H
  H44      1.0000 0.30820  0.69510  0.39950  Biso   1.000  H
  H45      1.0000 0.80490  0.80820  0.89950  Biso   1.000  H
  H46      1.0000 0.19510  0.19180  0.89950  Biso   1.000  H
  H47      1.0000 0.19180  0.80490  0.89950  Biso   1.000  H
  H48      1.0000 0.80820  0.19510  0.89950  Biso   1.000  H
  C89      1.0000 0.70010  0.88840  0.76090  Biso   1.000  C
  C90      1.0000 0.29990  0.11160  0.76090  Biso   1.000  C
  C91      1.0000 0.11160  0.70010  0.76090  Biso   1.000  C
  C92      1.0000 0.88840  0.29990  0.76090  Biso   1.000  C
  C93      1.0000 0.20010  0.38840  0.26090  Biso   1.000  C
  C94      1.0000 0.79990  0.61160  0.26090  Biso   1.000  C
  C95      1.0000 0.61160  0.20010  0.26090  Biso   1.000  C
  C96      1.0000 0.38840  0.79990  0.26090  Biso   1.000  C
  C97      1.0000 0.29990  0.11160  0.23910  Biso   1.000  C
  C98      1.0000 0.70010  0.88840  0.23910  Biso   1.000  C
  C99      1.0000 0.88840  0.29990  0.23910  Biso   1.000  C
  C100     1.0000 0.11160  0.70010  0.23910  Biso   1.000  C
  C101     1.0000 0.79990  0.61160  0.73910  Biso   1.000  C
  C102     1.0000 0.20010  0.38840  0.73910  Biso   1.000  C
  C103     1.0000 0.38840  0.79990  0.73910  Biso   1.000  C
  C104     1.0000 0.61160  0.20010  0.73910  Biso   1.000  C
  C105     1.0000 0.93590  0.69380  0.74580  Biso   1.000  C
  C106     1.0000 0.06410  0.30620  0.74580  Biso   1.000  C
  C107     1.0000 0.30620  0.93590  0.74580  Biso   1.000  C
  C108     1.0000 0.69380  0.06410  0.74580  Biso   1.000  C
  C109     1.0000 0.43590  0.19380  0.24580  Biso   1.000  C
  C110     1.0000 0.56410  0.80620  0.24580  Biso   1.000  C
  C111     1.0000 0.80620  0.43590  0.24580  Biso   1.000  C
  C112     1.0000 0.19380  0.56410  0.24580  Biso   1.000  C
  C113     1.0000 0.06410  0.30620  0.25420  Biso   1.000  C
  C114     1.0000 0.93590  0.69380  0.25420  Biso   1.000  C
  C115     1.0000 0.69380  0.06410  0.25420  Biso   1.000  C
  C116     1.0000 0.30620  0.93590  0.25420  Biso   1.000  C
  C117     1.0000 0.56410  0.80620  0.75420  Biso   1.000  C
  C118     1.0000 0.43590  0.19380  0.75420  Biso   1.000  C
  C119     1.0000 0.19380  0.56410  0.75420  Biso   1.000  C
  C120     1.0000 0.80620  0.43590  0.75420  Biso   1.000  C
  C121     1.0000 0.76350  0.83450  0.75480  Biso   1.000  C
  C122     1.0000 0.23650  0.16550  0.75480  Biso   1.000  C
  C123     1.0000 0.16550  0.76350  0.75480  Biso   1.000  C
  C124     1.0000 0.83450  0.23650  0.75480  Biso   1.000  C
  C125     1.0000 0.26350  0.33450  0.25480  Biso   1.000  C
  C126     1.0000 0.73650  0.66550  0.25480  Biso   1.000  C
  C127     1.0000 0.66550  0.26350  0.25480  Biso   1.000  C
  C128     1.0000 0.33450  0.73650  0.25480  Biso   1.000  C
  C129     1.0000 0.23650  0.16550  0.24520  Biso   1.000  C
  C130     1.0000 0.76350  0.83450  0.24520  Biso   1.000  C
  C131     1.0000 0.83450  0.23650  0.24520  Biso   1.000  C
  C132     1.0000 0.16550  0.76350  0.24520  Biso   1.000  C
  C133     1.0000 0.73650  0.66550  0.74520  Biso   1.000  C
  C134     1.0000 0.26350  0.33450  0.74520  Biso   1.000  C
  C135     1.0000 0.33450  0.73650  0.74520  Biso   1.000  C
  C136     1.0000 0.66550  0.26350  0.74520  Biso   1.000  C
  H49      1.0000 0.78030  0.84560  0.77600  Biso   1.000  H
  H50      1.0000 0.21970  0.15440  0.77600  Biso   1.000  H
  H51      1.0000 0.15440  0.78030  0.77600  Biso   1.000  H
  H52      1.0000 0.84560  0.21970  0.77600  Biso   1.000  H
  H53      1.0000 0.28030  0.34560  0.27600  Biso   1.000  H
  H54      1.0000 0.71970  0.65440  0.27600  Biso   1.000  H
  H55      1.0000 0.65440  0.28030  0.27600  Biso   1.000  H
  H56      1.0000 0.34560  0.71970  0.27600  Biso   1.000  H
  H57      1.0000 0.21970  0.15440  0.22400  Biso   1.000  H
  H58      1.0000 0.78030  0.84560  0.22400  Biso   1.000  H
  H59      1.0000 0.84560  0.21970  0.22400  Biso   1.000  H
  H60      1.0000 0.15440  0.78030  0.22400  Biso   1.000  H
  H61      1.0000 0.71970  0.65440  0.72400  Biso   1.000  H
  H62      1.0000 0.28030  0.34560  0.72400  Biso   1.000  H
  H63      1.0000 0.34560  0.71970  0.72400  Biso   1.000  H
  H64      1.0000 0.65440  0.28030  0.72400  Biso   1.000  H
  C137     1.0000 0.72280  0.85100  0.74200  Biso   1.000  C
  C138     1.0000 0.27720  0.14900  0.74200  Biso   1.000  C
  C139     1.0000 0.14900  0.72280  0.74200  Biso   1.000  C
  C140     1.0000 0.85100  0.27720  0.74200  Biso   1.000  C
  C141     1.0000 0.22280  0.35100  0.24200  Biso   1.000  C
  C142     1.0000 0.77720  0.64900  0.24200  Biso   1.000  C
  C143     1.0000 0.64900  0.22280  0.24200  Biso   1.000  C
  C144     1.0000 0.35100  0.77720  0.24200  Biso   1.000  C
  C145     1.0000 0.27720  0.14900  0.25800  Biso   1.000  C
  C146     1.0000 0.72280  0.85100  0.25800  Biso   1.000  C
  C147     1.0000 0.85100  0.27720  0.25800  Biso   1.000  C
  C148     1.0000 0.14900  0.72280  0.25800  Biso   1.000  C
  C149     1.0000 0.77720  0.64900  0.75800  Biso   1.000  C
  C150     1.0000 0.22280  0.35100  0.75800  Biso   1.000  C
  C151     1.0000 0.35100  0.77720  0.75800  Biso   1.000  C
  C152     1.0000 0.64900  0.22280  0.75800  Biso   1.000  C
  C153     1.0000 0.70820  0.82340  0.71260  Biso   1.000  C
  C154     1.0000 0.29180  0.17660  0.71260  Biso   1.000  C
  C155     1.0000 0.17660  0.70820  0.71260  Biso   1.000  C
  C156     1.0000 0.82340  0.29180  0.71260  Biso   1.000  C
  C157     1.0000 0.20820  0.32340  0.21260  Biso   1.000  C
  C158     1.0000 0.79180  0.67660  0.21260  Biso   1.000  C
  C159     1.0000 0.67660  0.20820  0.21260  Biso   1.000  C
  C160     1.0000 0.32340  0.79180  0.21260  Biso   1.000  C
  C161     1.0000 0.29180  0.17660  0.28740  Biso   1.000  C
  C162     1.0000 0.70820  0.82340  0.28740  Biso   1.000  C
  C163     1.0000 0.82340  0.29180  0.28740  Biso   1.000  C
  C164     1.0000 0.17660  0.70820  0.28740  Biso   1.000  C
  C165     1.0000 0.79180  0.67660  0.78740  Biso   1.000  C
  C166     1.0000 0.20820  0.32340  0.78740  Biso   1.000  C
  C167     1.0000 0.32340  0.79180  0.78740  Biso   1.000  C
  C168     1.0000 0.67660  0.20820  0.78740  Biso   1.000  C
  H65      1.0000 0.68060  0.82610  0.69950  Biso   1.000  H
  H66      1.0000 0.31940  0.17390  0.69950  Biso   1.000  H
  H67      1.0000 0.17390  0.68060  0.69950  Biso   1.000  H
  H68      1.0000 0.82610  0.31940  0.69950  Biso   1.000  H
  H69      1.0000 0.18060  0.32610  0.19950  Biso   1.000  H
  H70      1.0000 0.81940  0.67390  0.19950  Biso   1.000  H
  H71      1.0000 0.67390  0.18060  0.19950  Biso   1.000  H
  H72      1.0000 0.32610  0.81940  0.19950  Biso   1.000  H
  H73      1.0000 0.31940  0.17390  0.30050  Biso   1.000  H
  H74      1.0000 0.68060  0.82610  0.30050  Biso   1.000  H
  H75      1.0000 0.82610  0.31940  0.30050  Biso   1.000  H
  H76      1.0000 0.17390  0.68060  0.30050  Biso   1.000  H
  H77      1.0000 0.81940  0.67390  0.80050  Biso   1.000  H
  H78      1.0000 0.18060  0.32610  0.80050  Biso   1.000  H
  H79      1.0000 0.32610  0.81940  0.80050  Biso   1.000  H
  H80      1.0000 0.67390  0.18060  0.80050  Biso   1.000  H
  C169     1.0000 0.90860  0.72920  0.75580  Biso   1.000  C
  C170     1.0000 0.09140  0.27080  0.75580  Biso   1.000  C
  C171     1.0000 0.27080  0.90860  0.75580  Biso   1.000  C
  C172     1.0000 0.72920  0.09140  0.75580  Biso   1.000  C
  C173     1.0000 0.40860  0.22920  0.25580  Biso   1.000  C
  C174     1.0000 0.59140  0.77080  0.25580  Biso   1.000  C
  C175     1.0000 0.77080  0.40860  0.25580  Biso   1.000  C
  C176     1.0000 0.22920  0.59140  0.25580  Biso   1.000  C
  C177     1.0000 0.09140  0.27080  0.24420  Biso   1.000  C
  C178     1.0000 0.90860  0.72920  0.24420  Biso   1.000  C
  C179     1.0000 0.72920  0.09140  0.24420  Biso   1.000  C
  C180     1.0000 0.27080  0.90860  0.24420  Biso   1.000  C
  C181     1.0000 0.59140  0.77080  0.74420  Biso   1.000  C
  C182     1.0000 0.40860  0.22920  0.74420  Biso   1.000  C
  C183     1.0000 0.22920  0.59140  0.74420  Biso   1.000  C
  C184     1.0000 0.77080  0.40860  0.74420  Biso   1.000  C
  H81      1.0000 0.91480  0.75020  0.77570  Biso   1.000  H
  H82      1.0000 0.08520  0.24980  0.77570  Biso   1.000  H
  H83      1.0000 0.24980  0.91480  0.77570  Biso   1.000  H
  H84      1.0000 0.75020  0.08520  0.77570  Biso   1.000  H
  H85      1.0000 0.41480  0.25020  0.27570  Biso   1.000  H
  H86      1.0000 0.58520  0.74980  0.27570  Biso   1.000  H
  H87      1.0000 0.74980  0.41480  0.27570  Biso   1.000  H
  H88      1.0000 0.25020  0.58520  0.27570  Biso   1.000  H
  H89      1.0000 0.08520  0.24980  0.22430  Biso   1.000  H
  H90      1.0000 0.91480  0.75020  0.22430  Biso   1.000  H
  H91      1.0000 0.75020  0.08520  0.22430  Biso   1.000  H
  H92      1.0000 0.24980  0.91480  0.22430  Biso   1.000  H
  H93      1.0000 0.58520  0.74980  0.72430  Biso   1.000  H
  H94      1.0000 0.41480  0.25020  0.72430  Biso   1.000  H
  H95      1.0000 0.25020  0.58520  0.72430  Biso   1.000  H
  H96      1.0000 0.74980  0.41480  0.72430  Biso   1.000  H
  O17      1.0000 0.75830  0.59150  0.54490  Biso   1.000  O
  O18      1.0000 0.24170  0.40850  0.54490  Biso   1.000  O
  O19      1.0000 0.40850  0.75830  0.54490  Biso   1.000  O
  O20      1.0000 0.59150  0.24170  0.54490  Biso   1.000  O
  O21      1.0000 0.25830  0.09150  0.04490  Biso   1.000  O
  O22      1.0000 0.74170  0.90850  0.04490  Biso   1.000  O
  O23      1.0000 0.90850  0.25830  0.04490  Biso   1.000  O
  O24      1.0000 0.09150  0.74170  0.04490  Biso   1.000  O
  O25      1.0000 0.24170  0.40850  0.45510  Biso   1.000  O
  O26      1.0000 0.75830  0.59150  0.45510  Biso   1.000  O
  O27      1.0000 0.59150  0.24170  0.45510  Biso   1.000  O
  O28      1.0000 0.40850  0.75830  0.45510  Biso   1.000  O
  O29      1.0000 0.74170  0.90850  0.95510  Biso   1.000  O
  O30      1.0000 0.25830  0.09150  0.95510  Biso   1.000  O
  O31      1.0000 0.09150  0.74170  0.95510  Biso   1.000  O
  O32      1.0000 0.90850  0.25830  0.95510  Biso   1.000  O
  O33      1.0000 0.69260  0.62630  0.54450  Biso   1.000  O
  O34      1.0000 0.30740  0.37370  0.54450  Biso   1.000  O
  O35      1.0000 0.37370  0.69260  0.54450  Biso   1.000  O
  O36      1.0000 0.62630  0.30740  0.54450  Biso   1.000  O
  O37      1.0000 0.19260  0.12630  0.04450  Biso   1.000  O
  O38      1.0000 0.80740  0.87370  0.04450  Biso   1.000  O
  O39      1.0000 0.87370  0.19260  0.04450  Biso   1.000  O
  O40      1.0000 0.12630  0.80740  0.04450  Biso   1.000  O
  O41      1.0000 0.30740  0.37370  0.45550  Biso   1.000  O
  O42      1.0000 0.69260  0.62630  0.45550  Biso   1.000  O
  O43      1.0000 0.62630  0.30740  0.45550  Biso   1.000  O
  O44      1.0000 0.37370  0.69260  0.45550  Biso   1.000  O
  O45      1.0000 0.80740  0.87370  0.95550  Biso   1.000  O
  O46      1.0000 0.19260  0.12630  0.95550  Biso   1.000  O
  O47      1.0000 0.12630  0.80740  0.95550  Biso   1.000  O
  O48      1.0000 0.87370  0.19260  0.95550  Biso   1.000  O
  O49      1.0000 0.72270  0.90970  0.78680  Biso   1.000  O
  O50      1.0000 0.27730  0.09030  0.78680  Biso   1.000  O
  O51      1.0000 0.09030  0.72270  0.78680  Biso   1.000  O
  O52      1.0000 0.90970  0.27730  0.78680  Biso   1.000  O
  O53      1.0000 0.22270  0.40970  0.28680  Biso   1.000  O
  O54      1.0000 0.77730  0.59030  0.28680  Biso   1.000  O
  O55      1.0000 0.59030  0.22270  0.28680  Biso   1.000  O
  O56      1.0000 0.40970  0.77730  0.28680  Biso   1.000  O
  O57      1.0000 0.27730  0.09030  0.21320  Biso   1.000  O
  O58      1.0000 0.72270  0.90970  0.21320  Biso   1.000  O
  O59      1.0000 0.90970  0.27730  0.21320  Biso   1.000  O
  O60      1.0000 0.09030  0.72270  0.21320  Biso   1.000  O
  O61      1.0000 0.77730  0.59030  0.71320  Biso   1.000  O
  O62      1.0000 0.22270  0.40970  0.71320  Biso   1.000  O
  O63      1.0000 0.40970  0.77730  0.71320  Biso   1.000  O
  O64      1.0000 0.59030  0.22270  0.71320  Biso   1.000  O
  O65      1.0000 0.66260  0.89910  0.74770  Biso   1.000  O
  O66      1.0000 0.33740  0.10090  0.74770  Biso   1.000  O
  O67      1.0000 0.10090  0.66260  0.74770  Biso   1.000  O
  O68      1.0000 0.89910  0.33740  0.74770  Biso   1.000  O
  O69      1.0000 0.16260  0.39910  0.24770  Biso   1.000  O
  O70      1.0000 0.83740  0.60090  0.24770  Biso   1.000  O
  O71      1.0000 0.60090  0.16260  0.24770  Biso   1.000  O
  O72      1.0000 0.39910  0.83740  0.24770  Biso   1.000  O
  O73      1.0000 0.33740  0.10090  0.25230  Biso   1.000  O
  O74      1.0000 0.66260  0.89910  0.25230  Biso   1.000  O
  O75      1.0000 0.89910  0.33740  0.25230  Biso   1.000  O
  O76      1.0000 0.10090  0.66260  0.25230  Biso   1.000  O
  O77      1.0000 0.83740  0.60090  0.75230  Biso   1.000  O
  O78      1.0000 0.16260  0.39910  0.75230  Biso   1.000  O
  O79      1.0000 0.39910  0.83740  0.75230  Biso   1.000  O
  O80      1.0000 0.60090  0.16260  0.75230  Biso   1.000  O
  O81      1.0000 0.60280  0.93950  0.81570  Biso   1.000  O
  O82      1.0000 0.39720  0.06050  0.81570  Biso   1.000  O
  O83      1.0000 0.06050  0.60280  0.81570  Biso   1.000  O
  O84      1.0000 0.93950  0.39720  0.81570  Biso   1.000  O
  O85      1.0000 0.10280  0.43950  0.31570  Biso   1.000  O
  O86      1.0000 0.89720  0.56050  0.31570  Biso   1.000  O
  O87      1.0000 0.56050  0.10280  0.31570  Biso   1.000  O
  O88      1.0000 0.43950  0.89720  0.31570  Biso   1.000  O
  O89      1.0000 0.39720  0.06050  0.18430  Biso   1.000  O
  O90      1.0000 0.60280  0.93950  0.18430  Biso   1.000  O
  O91      1.0000 0.93950  0.39720  0.18430  Biso   1.000  O
  O92      1.0000 0.06050  0.60280  0.18430  Biso   1.000  O
  O93      1.0000 0.89720  0.56050  0.68430  Biso   1.000  O
  O94      1.0000 0.10280  0.43950  0.68430  Biso   1.000  O
  O95      1.0000 0.43950  0.89720  0.68430  Biso   1.000  O
  O96      1.0000 0.56050  0.10280  0.68430  Biso   1.000  O
  O97      1.0000 0.00180  0.64970  0.74980  Biso   1.000  O
  O98      1.0000 0.99820  0.35030  0.74980  Biso   1.000  O
  O99      1.0000 0.35030  0.00180  0.74980  Biso   1.000  O
  O100     1.0000 0.64970  0.99820  0.74980  Biso   1.000  O
  O101     1.0000 0.50180  0.14970  0.24980  Biso   1.000  O
  O102     1.0000 0.49820  0.85030  0.24980  Biso   1.000  O
  O103     1.0000 0.85030  0.50180  0.24980  Biso   1.000  O
  O104     1.0000 0.14970  0.49820  0.24980  Biso   1.000  O
  O105     1.0000 0.99820  0.35030  0.25020  Biso   1.000  O
  O106     1.0000 0.00180  0.64970  0.25020  Biso   1.000  O
  O107     1.0000 0.64970  0.99820  0.25020  Biso   1.000  O
  O108     1.0000 0.35030  0.00180  0.25020  Biso   1.000  O
  O109     1.0000 0.49820  0.85030  0.75020  Biso   1.000  O
  O110     1.0000 0.50180  0.14970  0.75020  Biso   1.000  O
  O111     1.0000 0.14970  0.49820  0.75020  Biso   1.000  O
  O112     1.0000 0.85030  0.50180  0.75020  Biso   1.000  O
  O113     1.0000 0.99150  0.70610  0.79220  Biso   1.000  O
  O114     1.0000 0.00850  0.29390  0.79220  Biso   1.000  O
  O115     1.0000 0.29390  0.99150  0.79220  Biso   1.000  O
  O116     1.0000 0.70610  0.00850  0.79220  Biso   1.000  O
  O117     1.0000 0.49150  0.20610  0.29220  Biso   1.000  O
  O118     1.0000 0.50850  0.79390  0.29220  Biso   1.000  O
  O119     1.0000 0.79390  0.49150  0.29220  Biso   1.000  O
  O120     1.0000 0.20610  0.50850  0.29220  Biso   1.000  O
  O121     1.0000 0.00850  0.29390  0.20780  Biso   1.000  O
  O122     1.0000 0.99150  0.70610  0.20780  Biso   1.000  O
  O123     1.0000 0.70610  0.00850  0.20780  Biso   1.000  O
  O124     1.0000 0.29390  0.99150  0.20780  Biso   1.000  O
  O125     1.0000 0.50850  0.79390  0.70780  Biso   1.000  O
  O126     1.0000 0.49150  0.20610  0.70780  Biso   1.000  O
  O127     1.0000 0.20610  0.50850  0.70780  Biso   1.000  O
  O128     1.0000 0.79390  0.49150  0.70780  Biso   1.000  O
  O129     1.0000 0.66390  0.94040  0.85300  Biso   1.000  O
  O130     1.0000 0.33610  0.05960  0.85300  Biso   1.000  O
  O131     1.0000 0.05960  0.66390  0.85300  Biso   1.000  O
  O132     1.0000 0.94040  0.33610  0.85300  Biso   1.000  O
  O133     1.0000 0.16390  0.44040  0.35300  Biso   1.000  O
  O134     1.0000 0.83610  0.55960  0.35300  Biso   1.000  O
  O135     1.0000 0.55960  0.16390  0.35300  Biso   1.000  O
  O136     1.0000 0.44040  0.83610  0.35300  Biso   1.000  O
  O137     1.0000 0.33610  0.05960  0.14700  Biso   1.000  O
  O138     1.0000 0.66390  0.94040  0.14700  Biso   1.000  O
  O139     1.0000 0.94040  0.33610  0.14700  Biso   1.000  O
  O140     1.0000 0.05960  0.66390  0.14700  Biso   1.000  O
  O141     1.0000 0.83610  0.55960  0.64700  Biso   1.000  O
  O142     1.0000 0.16390  0.44040  0.64700  Biso   1.000  O
  O143     1.0000 0.44040  0.83610  0.64700  Biso   1.000  O
  O144     1.0000 0.55960  0.16390  0.64700  Biso   1.000  O
  C185     1.0000 0.62330  0.93880  0.84900  Biso   1.000  C
  C186     1.0000 0.37670  0.06120  0.84900  Biso   1.000  C
  C187     1.0000 0.06120  0.62330  0.84900  Biso   1.000  C
  C188     1.0000 0.93880  0.37670  0.84900  Biso   1.000  C
  C189     1.0000 0.12330  0.43880  0.34900  Biso   1.000  C
  C190     1.0000 0.87670  0.56120  0.34900  Biso   1.000  C
  C191     1.0000 0.56120  0.12330  0.34900  Biso   1.000  C
  C192     1.0000 0.43880  0.87670  0.34900  Biso   1.000  C
  C193     1.0000 0.37670  0.06120  0.15100  Biso   1.000  C
  C194     1.0000 0.62330  0.93880  0.15100  Biso   1.000  C
  C195     1.0000 0.93880  0.37670  0.15100  Biso   1.000  C
  C196     1.0000 0.06120  0.62330  0.15100  Biso   1.000  C
  C197     1.0000 0.87670  0.56120  0.65100  Biso   1.000  C
  C198     1.0000 0.12330  0.43880  0.65100  Biso   1.000  C
  C199     1.0000 0.43880  0.87670  0.65100  Biso   1.000  C
  C200     1.0000 0.56120  0.12330  0.65100  Biso   1.000  C
  C201     1.0000 0.59580  0.93420  0.88480  Biso   1.000  C
  C202     1.0000 0.40420  0.06580  0.88480  Biso   1.000  C
  C203     1.0000 0.06580  0.59580  0.88480  Biso   1.000  C
  C204     1.0000 0.93420  0.40420  0.88480  Biso   1.000  C
  C205     1.0000 0.09580  0.43420  0.38480  Biso   1.000  C
  C206     1.0000 0.90420  0.56580  0.38480  Biso   1.000  C
  C207     1.0000 0.56580  0.09580  0.38480  Biso   1.000  C
  C208     1.0000 0.43420  0.90420  0.38480  Biso   1.000  C
  C209     1.0000 0.40420  0.06580  0.11520  Biso   1.000  C
  C210     1.0000 0.59580  0.93420  0.11520  Biso   1.000  C
  C211     1.0000 0.93420  0.40420  0.11520  Biso   1.000  C
  C212     1.0000 0.06580  0.59580  0.11520  Biso   1.000  C
  C213     1.0000 0.90420  0.56580  0.61520  Biso   1.000  C
  C214     1.0000 0.09580  0.43420  0.61520  Biso   1.000  C
  C215     1.0000 0.43420  0.90420  0.61520  Biso   1.000  C
  C216     1.0000 0.56580  0.09580  0.61520  Biso   1.000  C
  C217     1.0000 0.60980  0.92900  0.92160  Biso   1.000  C
  C218     1.0000 0.39020  0.07100  0.92160  Biso   1.000  C
  C219     1.0000 0.07100  0.60980  0.92160  Biso   1.000  C
  C220     1.0000 0.92900  0.39020  0.92160  Biso   1.000  C
  C221     1.0000 0.10980  0.42900  0.42160  Biso   1.000  C
  C222     1.0000 0.89020  0.57100  0.42160  Biso   1.000  C
  C223     1.0000 0.57100  0.10980  0.42160  Biso   1.000  C
  C224     1.0000 0.42900  0.89020  0.42160  Biso   1.000  C
  C225     1.0000 0.39020  0.07100  0.07840  Biso   1.000  C
  C226     1.0000 0.60980  0.92900  0.07840  Biso   1.000  C
  C227     1.0000 0.92900  0.39020  0.07840  Biso   1.000  C
  C228     1.0000 0.07100  0.60980  0.07840  Biso   1.000  C
  C229     1.0000 0.89020  0.57100  0.57840  Biso   1.000  C
  C230     1.0000 0.10980  0.42900  0.57840  Biso   1.000  C
  C231     1.0000 0.42900  0.89020  0.57840  Biso   1.000  C
  C232     1.0000 0.57100  0.10980  0.57840  Biso   1.000  C
  H97      1.0000 0.64000  0.92640  0.92880  Biso   1.000  H
  H98      1.0000 0.36000  0.07360  0.92880  Biso   1.000  H
  H99      1.0000 0.07360  0.64000  0.92880  Biso   1.000  H
  H100     1.0000 0.92640  0.36000  0.92880  Biso   1.000  H
  H101     1.0000 0.14000  0.42640  0.42880  Biso   1.000  H
  H102     1.0000 0.86000  0.57360  0.42880  Biso   1.000  H
  H103     1.0000 0.57360  0.14000  0.42880  Biso   1.000  H
  H104     1.0000 0.42640  0.86000  0.42880  Biso   1.000  H
  H105     1.0000 0.36000  0.07360  0.07120  Biso   1.000  H
  H106     1.0000 0.64000  0.92640  0.07120  Biso   1.000  H
  H107     1.0000 0.92640  0.36000  0.07120  Biso   1.000  H
  H108     1.0000 0.07360  0.64000  0.07120  Biso   1.000  H
  H109     1.0000 0.86000  0.57360  0.57120  Biso   1.000  H
  H110     1.0000 0.14000  0.42640  0.57120  Biso   1.000  H
  H111     1.0000 0.42640  0.86000  0.57120  Biso   1.000  H
  H112     1.0000 0.57360  0.14000  0.57120  Biso   1.000  H
  C233     1.0000 0.97960  0.68210  0.76450  Biso   1.000  C
  C234     1.0000 0.02040  0.31790  0.76450  Biso   1.000  C
  C235     1.0000 0.31790  0.97960  0.76450  Biso   1.000  C
  C236     1.0000 0.68210  0.02040  0.76450  Biso   1.000  C
  C237     1.0000 0.47960  0.18210  0.26450  Biso   1.000  C
  C238     1.0000 0.52040  0.81790  0.26450  Biso   1.000  C
  C239     1.0000 0.81790  0.47960  0.26450  Biso   1.000  C
  C240     1.0000 0.18210  0.52040  0.26450  Biso   1.000  C
  C241     1.0000 0.02040  0.31790  0.23550  Biso   1.000  C
  C242     1.0000 0.97960  0.68210  0.23550  Biso   1.000  C
  C243     1.0000 0.68210  0.02040  0.23550  Biso   1.000  C
  C244     1.0000 0.31790  0.97960  0.23550  Biso   1.000  C
  C245     1.0000 0.52040  0.81790  0.73550  Biso   1.000  C
  C246     1.0000 0.47960  0.18210  0.73550  Biso   1.000  C
  C247     1.0000 0.18210  0.52040  0.73550  Biso   1.000  C
  C248     1.0000 0.81790  0.47960  0.73550  Biso   1.000  C
  C249     1.0000 0.54860  0.93570  0.88910  Biso   1.000  C
  C250     1.0000 0.45140  0.06430  0.88910  Biso   1.000  C
  C251     1.0000 0.06430  0.54860  0.88910  Biso   1.000  C
  C252     1.0000 0.93570  0.45140  0.88910  Biso   1.000  C
  C253     1.0000 0.04860  0.43570  0.38910  Biso   1.000  C
  C254     1.0000 0.95140  0.56430  0.38910  Biso   1.000  C
  C255     1.0000 0.56430  0.04860  0.38910  Biso   1.000  C
  C256     1.0000 0.43570  0.95140  0.38910  Biso   1.000  C
  C257     1.0000 0.45140  0.06430  0.11090  Biso   1.000  C
  C258     1.0000 0.54860  0.93570  0.11090  Biso   1.000  C
  C259     1.0000 0.93570  0.45140  0.11090  Biso   1.000  C
  C260     1.0000 0.06430  0.54860  0.11090  Biso   1.000  C
  C261     1.0000 0.95140  0.56430  0.61090  Biso   1.000  C
  C262     1.0000 0.04860  0.43570  0.61090  Biso   1.000  C
  C263     1.0000 0.43570  0.95140  0.61090  Biso   1.000  C
  C264     1.0000 0.56430  0.04860  0.61090  Biso   1.000  C
  H113     1.0000 0.52810  0.93780  0.86820  Biso   1.000  H
  H114     1.0000 0.47190  0.06220  0.86820  Biso   1.000  H
  H115     1.0000 0.06220  0.52810  0.86820  Biso   1.000  H
  H116     1.0000 0.93780  0.47190  0.86820  Biso   1.000  H
  H117     1.0000 0.02810  0.43780  0.36820  Biso   1.000  H
  H118     1.0000 0.97190  0.56220  0.36820  Biso   1.000  H
  H119     1.0000 0.56220  0.02810  0.36820  Biso   1.000  H
  H120     1.0000 0.43780  0.97190  0.36820  Biso   1.000  H
  H121     1.0000 0.47190  0.06220  0.13180  Biso   1.000  H
  H122     1.0000 0.52810  0.93780  0.13180  Biso   1.000  H
  H123     1.0000 0.93780  0.47190  0.13180  Biso   1.000  H
  H124     1.0000 0.06220  0.52810  0.13180  Biso   1.000  H
  H125     1.0000 0.97190  0.56220  0.63180  Biso   1.000  H
  H126     1.0000 0.02810  0.43780  0.63180  Biso   1.000  H
  H127     1.0000 0.43780  0.97190  0.63180  Biso   1.000  H
  H128     1.0000 0.56220  0.02810  0.63180  Biso   1.000  H
  N97      1.0000 0.57550  0.92790  0.94780  Biso   1.000  N
  N98      1.0000 0.42450  0.07210  0.94780  Biso   1.000  N
  N99      1.0000 0.07210  0.57550  0.94780  Biso   1.000  N
  N100     1.0000 0.92790  0.42450  0.94780  Biso   1.000  N
  N101     1.0000 0.07550  0.42790  0.44780  Biso   1.000  N
  N102     1.0000 0.92450  0.57210  0.44780  Biso   1.000  N
  N103     1.0000 0.57210  0.07550  0.44780  Biso   1.000  N
  N104     1.0000 0.42790  0.92450  0.44780  Biso   1.000  N
  N105     1.0000 0.42450  0.07210  0.05220  Biso   1.000  N
  N106     1.0000 0.57550  0.92790  0.05220  Biso   1.000  N
  N107     1.0000 0.92790  0.42450  0.05220  Biso   1.000  N
  N108     1.0000 0.07210  0.57550  0.05220  Biso   1.000  N
  N109     1.0000 0.92450  0.57210  0.55220  Biso   1.000  N
  N110     1.0000 0.07550  0.42790  0.55220  Biso   1.000  N
  N111     1.0000 0.42790  0.92450  0.55220  Biso   1.000  N
  N112     1.0000 0.57210  0.07550  0.55220  Biso   1.000  N
  N113     1.0000 0.53820  0.93380  0.92510  Biso   1.000  N
  N114     1.0000 0.46180  0.06620  0.92510  Biso   1.000  N
  N115     1.0000 0.06620  0.53820  0.92510  Biso   1.000  N
  N116     1.0000 0.93380  0.46180  0.92510  Biso   1.000  N
  N117     1.0000 0.03820  0.43380  0.42510  Biso   1.000  N
  N118     1.0000 0.96180  0.56620  0.42510  Biso   1.000  N
  N119     1.0000 0.56620  0.03820  0.42510  Biso   1.000  N
  N120     1.0000 0.43380  0.96180  0.42510  Biso   1.000  N
  N121     1.0000 0.46180  0.06620  0.07490  Biso   1.000  N
  N122     1.0000 0.53820  0.93380  0.07490  Biso   1.000  N
  N123     1.0000 0.93380  0.46180  0.07490  Biso   1.000  N
  N124     1.0000 0.06620  0.53820  0.07490  Biso   1.000  N
  N125     1.0000 0.96180  0.56620  0.57490  Biso   1.000  N
  N126     1.0000 0.03820  0.43380  0.57490  Biso   1.000  N
  N127     1.0000 0.43380  0.96180  0.57490  Biso   1.000  N
  N128     1.0000 0.56620  0.03820  0.57490  Biso   1.000  N
  C265     1.0000 0.53310  0.64900  0.50000  Biso   1.000  C
  C266     1.0000 0.46690  0.35100  0.50000  Biso   1.000  C
  C267     1.0000 0.35100  0.53310  0.50000  Biso   1.000  C
  C268     1.0000 0.64900  0.46690  0.50000  Biso   1.000  C
  C269     1.0000 0.03310  0.14900  0.00000  Biso   1.000  C
  C270     1.0000 0.96690  0.85100  0.00000  Biso   1.000  C
  C271     1.0000 0.85100  0.03310  0.00000  Biso   1.000  C
  C272     1.0000 0.14900  0.96690  0.00000  Biso   1.000  C
  O145     1.0000 0.61080  0.64580  0.50000  Biso   1.000  O
  O146     1.0000 0.38920  0.35420  0.50000  Biso   1.000  O
  O147     1.0000 0.35420  0.61080  0.50000  Biso   1.000  O
  O148     1.0000 0.64580  0.38920  0.50000  Biso   1.000  O
  O149     1.0000 0.11080  0.14580  0.00000  Biso   1.000  O
  O150     1.0000 0.88920  0.85420  0.00000  Biso   1.000  O
  O151     1.0000 0.85420  0.11080  0.00000  Biso   1.000  O
  O152     1.0000 0.14580  0.88920  0.00000  Biso   1.000  O
  C273     1.0000 0.52680  0.69240  0.50000  Biso   1.000  C
  C274     1.0000 0.47320  0.30760  0.50000  Biso   1.000  C
  C275     1.0000 0.30760  0.52680  0.50000  Biso   1.000  C
  C276     1.0000 0.69240  0.47320  0.50000  Biso   1.000  C
  C277     1.0000 0.02680  0.19240  0.00000  Biso   1.000  C
  C278     1.0000 0.97320  0.80760  0.00000  Biso   1.000  C
  C279     1.0000 0.80760  0.02680  0.00000  Biso   1.000  C
  C280     1.0000 0.19240  0.97320  0.00000  Biso   1.000  C
  H129     1.0000 0.55000  0.71370  0.50000  Biso   1.000  H
  H130     1.0000 0.45000  0.28630  0.50000  Biso   1.000  H
  H131     1.0000 0.28630  0.55000  0.50000  Biso   1.000  H
  H132     1.0000 0.71370  0.45000  0.50000  Biso   1.000  H
  H133     1.0000 0.05000  0.21370  0.00000  Biso   1.000  H
  H134     1.0000 0.95000  0.78630  0.00000  Biso   1.000  H
  H135     1.0000 0.78630  0.05000  0.00000  Biso   1.000  H
  H136     1.0000 0.21370  0.95000  0.00000  Biso   1.000  H
  N129     1.0000 0.48310  0.70270  0.50000  Biso   1.000  N
  N130     1.0000 0.51690  0.29730  0.50000  Biso   1.000  N
  N131     1.0000 0.29730  0.48310  0.50000  Biso   1.000  N
  N132     1.0000 0.70270  0.51690  0.50000  Biso   1.000  N
  N133     1.0000 0.98310  0.20270  0.00000  Biso   1.000  N
  N134     1.0000 0.01690  0.79730  0.00000  Biso   1.000  N
  N135     1.0000 0.79730  0.98310  0.00000  Biso   1.000  N
  N136     1.0000 0.20270  0.01690  0.00000  Biso   1.000  N
  C281     1.0000 0.49200  0.63070  0.50000  Biso   1.000  C
  C282     1.0000 0.50800  0.36930  0.50000  Biso   1.000  C
  C283     1.0000 0.36930  0.49200  0.50000  Biso   1.000  C
  C284     1.0000 0.63070  0.50800  0.50000  Biso   1.000  C
  C285     1.0000 0.99200  0.13070  0.00000  Biso   1.000  C
  C286     1.0000 0.00800  0.86930  0.00000  Biso   1.000  C
  C287     1.0000 0.86930  0.99200  0.00000  Biso   1.000  C
  C288     1.0000 0.13070  0.00800  0.00000  Biso   1.000  C
  H137     1.0000 0.48620  0.59980  0.50000  Biso   1.000  H
  H138     1.0000 0.51380  0.40020  0.50000  Biso   1.000  H
  H139     1.0000 0.40020  0.48620  0.50000  Biso   1.000  H
  H140     1.0000 0.59980  0.51380  0.50000  Biso   1.000  H
  H141     1.0000 0.98620  0.09980  0.00000  Biso   1.000  H
  H142     1.0000 0.01380  0.90020  0.00000  Biso   1.000  H
  H143     1.0000 0.90020  0.98620  0.00000  Biso   1.000  H
  H144     1.0000 0.09980  0.01380  0.00000  Biso   1.000  H
  N137     1.0000 0.46110  0.66190  0.50000  Biso   1.000  N
  N138     1.0000 0.53890  0.33810  0.50000  Biso   1.000  N
  N139     1.0000 0.33810  0.46110  0.50000  Biso   1.000  N
  N140     1.0000 0.66190  0.53890  0.50000  Biso   1.000  N
  N141     1.0000 0.96110  0.16190  0.00000  Biso   1.000  N
  N142     1.0000 0.03890  0.83810  0.00000  Biso   1.000  N
  N143     1.0000 0.83810  0.96110  0.00000  Biso   1.000  N
  N144     1.0000 0.16190  0.03890  0.00000  Biso   1.000  N
  O153     1.0000 0.76800  0.95770  0.85180  Biso   1.000  O
  O154     1.0000 0.23200  0.04230  0.85180  Biso   1.000  O
  O155     1.0000 0.04230  0.76800  0.85180  Biso   1.000  O
  O156     1.0000 0.95770  0.23200  0.85180  Biso   1.000  O
  O157     1.0000 0.26800  0.45770  0.35180  Biso   1.000  O
  O158     1.0000 0.73200  0.54230  0.35180  Biso   1.000  O
  O159     1.0000 0.54230  0.26800  0.35180  Biso   1.000  O
  O160     1.0000 0.45770  0.73200  0.35180  Biso   1.000  O
  O161     1.0000 0.23200  0.04230  0.14820  Biso   1.000  O
  O162     1.0000 0.76800  0.95770  0.14820  Biso   1.000  O
  O163     1.0000 0.95770  0.23200  0.14820  Biso   1.000  O
  O164     1.0000 0.04230  0.76800  0.14820  Biso   1.000  O
  O165     1.0000 0.73200  0.54230  0.64820  Biso   1.000  O
  O166     1.0000 0.26800  0.45770  0.64820  Biso   1.000  O
  O167     1.0000 0.45770  0.73200  0.64820  Biso   1.000  O
  O168     1.0000 0.54230  0.26800  0.64820  Biso   1.000  O
  O169     1.0000 0.57350  0.94140  0.72800  Biso   1.000  O
  O170     1.0000 0.42650  0.05860  0.72800  Biso   1.000  O
  O171     1.0000 0.05860  0.57350  0.72800  Biso   1.000  O
  O172     1.0000 0.94140  0.42650  0.72800  Biso   1.000  O
  O173     1.0000 0.07350  0.44140  0.22800  Biso   1.000  O
  O174     1.0000 0.92650  0.55860  0.22800  Biso   1.000  O
  O175     1.0000 0.55860  0.07350  0.22800  Biso   1.000  O
  O176     1.0000 0.44140  0.92650  0.22800  Biso   1.000  O
  O177     1.0000 0.42650  0.05860  0.27200  Biso   1.000  O
  O178     1.0000 0.57350  0.94140  0.27200  Biso   1.000  O
  O179     1.0000 0.94140  0.42650  0.27200  Biso   1.000  O
  O180     1.0000 0.05860  0.57350  0.27200  Biso   1.000  O
  O181     1.0000 0.92650  0.55860  0.77200  Biso   1.000  O
  O182     1.0000 0.07350  0.44140  0.77200  Biso   1.000  O
  O183     1.0000 0.44140  0.92650  0.77200  Biso   1.000  O
  O184     1.0000 0.55860  0.07350  0.77200  Biso   1.000  O
  N145     1.0000 0.43560  0.95560  0.98020  Biso   1.000  N
  N146     1.0000 0.56440  0.04440  0.98020  Biso   1.000  N
  N147     1.0000 0.04440  0.43560  0.98020  Biso   1.000  N
  N148     1.0000 0.95560  0.56440  0.98020  Biso   1.000  N
  N149     1.0000 0.93560  0.45560  0.48020  Biso   1.000  N
  N150     1.0000 0.06440  0.54440  0.48020  Biso   1.000  N
  N151     1.0000 0.54440  0.93560  0.48020  Biso   1.000  N
  N152     1.0000 0.45560  0.06440  0.48020  Biso   1.000  N
  N153     1.0000 0.56440  0.04440  0.01980  Biso   1.000  N
  N154     1.0000 0.43560  0.95560  0.01980  Biso   1.000  N
  N155     1.0000 0.95560  0.56440  0.01980  Biso   1.000  N
  N156     1.0000 0.04440  0.43560  0.01980  Biso   1.000  N
  N157     1.0000 0.06440  0.54440  0.51980  Biso   1.000  N
  N158     1.0000 0.93560  0.45560  0.51980  Biso   1.000  N
  N159     1.0000 0.45560  0.06440  0.51980  Biso   1.000  N
  N160     1.0000 0.54440  0.93560  0.51980  Biso   1.000  N
  C289     1.0000 0.39580  0.97040  0.96900  Biso   1.000  C
  C290     1.0000 0.60420  0.02960  0.96900  Biso   1.000  C
  C291     1.0000 0.02960  0.39580  0.96900  Biso   1.000  C
  C292     1.0000 0.97040  0.60420  0.96900  Biso   1.000  C
  C293     1.0000 0.89580  0.47040  0.46900  Biso   1.000  C
  C294     1.0000 0.10420  0.52960  0.46900  Biso   1.000  C
  C295     1.0000 0.52960  0.89580  0.46900  Biso   1.000  C
  C296     1.0000 0.47040  0.10420  0.46900  Biso   1.000  C
  C297     1.0000 0.60420  0.02960  0.03100  Biso   1.000  C
  C298     1.0000 0.39580  0.97040  0.03100  Biso   1.000  C
  C299     1.0000 0.97040  0.60420  0.03100  Biso   1.000  C
  C300     1.0000 0.02960  0.39580  0.03100  Biso   1.000  C
  C301     1.0000 0.10420  0.52960  0.53100  Biso   1.000  C
  C302     1.0000 0.89580  0.47040  0.53100  Biso   1.000  C
  C303     1.0000 0.47040  0.10420  0.53100  Biso   1.000  C
  C304     1.0000 0.52960  0.89580  0.53100  Biso   1.000  C
  H145     1.0000 0.38690  0.97460  0.94280  Biso   1.000  H
  H146     1.0000 0.61310  0.02540  0.94280  Biso   1.000  H
  H147     1.0000 0.02540  0.38690  0.94280  Biso   1.000  H
  H148     1.0000 0.97460  0.61310  0.94280  Biso   1.000  H
  H149     1.0000 0.88690  0.47460  0.44280  Biso   1.000  H
  H150     1.0000 0.11310  0.52540  0.44280  Biso   1.000  H
  H151     1.0000 0.52540  0.88690  0.44280  Biso   1.000  H
  H152     1.0000 0.47460  0.11310  0.44280  Biso   1.000  H
  H153     1.0000 0.61310  0.02540  0.05720  Biso   1.000  H
  H154     1.0000 0.38690  0.97460  0.05720  Biso   1.000  H
  H155     1.0000 0.97460  0.61310  0.05720  Biso   1.000  H
  H156     1.0000 0.02540  0.38690  0.05720  Biso   1.000  H
  H157     1.0000 0.11310  0.52540  0.55720  Biso   1.000  H
  H158     1.0000 0.88690  0.47460  0.55720  Biso   1.000  H
  H159     1.0000 0.47460  0.11310  0.55720  Biso   1.000  H
  H160     1.0000 0.52540  0.88690  0.55720  Biso   1.000  H
  C305     1.0000 0.37060  0.97830  0.00000  Biso   1.000  C
  C306     1.0000 0.62940  0.02170  0.00000  Biso   1.000  C
  C307     1.0000 0.02170  0.37060  0.00000  Biso   1.000  C
  C308     1.0000 0.97830  0.62940  0.00000  Biso   1.000  C
  C309     1.0000 0.87060  0.47830  0.50000  Biso   1.000  C
  C310     1.0000 0.12940  0.52170  0.50000  Biso   1.000  C
  C311     1.0000 0.52170  0.87060  0.50000  Biso   1.000  C
  C312     1.0000 0.47830  0.12940  0.50000  Biso   1.000  C
  C313     1.0000 0.57630  0.62820  0.50000  Biso   1.000  C
  C314     1.0000 0.42370  0.37180  0.50000  Biso   1.000  C
  C315     1.0000 0.37180  0.57630  0.50000  Biso   1.000  C
  C316     1.0000 0.62820  0.42370  0.50000  Biso   1.000  C
  C317     1.0000 0.07630  0.12820  0.00000  Biso   1.000  C
  C318     1.0000 0.92370  0.87180  0.00000  Biso   1.000  C
  C319     1.0000 0.87180  0.07630  0.00000  Biso   1.000  C
  C320     1.0000 0.12820  0.92370  0.00000  Biso   1.000  C
  O185     1.0000 0.57620  0.59080  0.51690  Biso   1.000  O
  O186     1.0000 0.42380  0.40920  0.51690  Biso   1.000  O
  O187     1.0000 0.40920  0.57620  0.51690  Biso   1.000  O
  O188     1.0000 0.59080  0.42380  0.51690  Biso   1.000  O
  O189     1.0000 0.07620  0.09080  0.01690  Biso   1.000  O
  O190     1.0000 0.92380  0.90920  0.01690  Biso   1.000  O
  O191     1.0000 0.90920  0.07620  0.01690  Biso   1.000  O
  O192     1.0000 0.09080  0.92380  0.01690  Biso   1.000  O
  O193     1.0000 0.42380  0.40920  0.48310  Biso   1.000  O
  O194     1.0000 0.57620  0.59080  0.48310  Biso   1.000  O
  O195     1.0000 0.59080  0.42380  0.48310  Biso   1.000  O
  O196     1.0000 0.40920  0.57620  0.48310  Biso   1.000  O
  O197     1.0000 0.92380  0.90920  0.98310  Biso   1.000  O
  O198     1.0000 0.07620  0.09080  0.98310  Biso   1.000  O
  O199     1.0000 0.09080  0.92380  0.98310  Biso   1.000  O
  O200     1.0000 0.90920  0.07620  0.98310  Biso   1.000  O
