data_image0
_cell_length_a       28.121
_cell_length_b       16.396
_cell_length_c       30.667
_cell_angle_alpha    90
_cell_angle_beta     114.524
_cell_angle_gamma    90

_symmetry_space_group_name_H-M    "P 1"
_symmetry_int_tables_number       1

loop_
  _symmetry_equiv_pos_as_xyz
  'x, y, z'

loop_
  _atom_site_label
  _atom_site_occupancy
  _atom_site_fract_x
  _atom_site_fract_y
  _atom_site_fract_z
  _atom_site_thermal_displace_type
  _atom_site_B_iso_or_equiv
  _atom_site_type_symbol
  Cu1      1.0000 0.38018  0.12478  0.64955  Biso   1.000  Cu
  Cu2      1.0000 0.11982  0.62478  0.35045  Biso   1.000  Cu
  Cu3      1.0000 0.61982  0.87522  0.35045  Biso   1.000  Cu
  Cu4      1.0000 0.88018  0.37522  0.64955  Biso   1.000  Cu
  Cu5      1.0000 0.40678  0.11695  0.57916  Biso   1.000  Cu
  Cu6      1.0000 0.09322  0.61695  0.42084  Biso   1.000  Cu
  Cu7      1.0000 0.59322  0.88305  0.42084  Biso   1.000  Cu
  Cu8      1.0000 0.90678  0.38305  0.57916  Biso   1.000  Cu
  P1       1.0000 0.44954  0.19807  0.64637  Biso   1.000  P
  P2       1.0000 0.05046  0.69807  0.35363  Biso   1.000  P
  P3       1.0000 0.55046  0.80193  0.35363  Biso   1.000  P
  P4       1.0000 0.94954  0.30193  0.64637  Biso   1.000  P
  P5       1.0000 0.40268  0.99388  0.67024  Biso   1.000  P
  P6       1.0000 0.09732  0.49388  0.32976  Biso   1.000  P
  P7       1.0000 0.59732  0.00612  0.32976  Biso   1.000  P
  P8       1.0000 0.90268  0.50612  0.67024  Biso   1.000  P
  N1       1.0000 0.38710  0.20020  0.70478  Biso   1.000  N
  N2       1.0000 0.11290  0.70020  0.29522  Biso   1.000  N
  N3       1.0000 0.61290  0.79980  0.29522  Biso   1.000  N
  N4       1.0000 0.88710  0.29980  0.70478  Biso   1.000  N
  N5       1.0000 0.47610  0.11830  0.57209  Biso   1.000  N
  N6       1.0000 0.02390  0.61830  0.42791  Biso   1.000  N
  N7       1.0000 0.52390  0.88170  0.42791  Biso   1.000  N
  N8       1.0000 0.97610  0.38170  0.57209  Biso   1.000  N
  N9       1.0000 0.36780  0.01030  0.55138  Biso   1.000  N
  N10      1.0000 0.13220  0.51030  0.44862  Biso   1.000  N
  N11      1.0000 0.63220  0.98970  0.44862  Biso   1.000  N
  N12      1.0000 0.86780  0.48970  0.55138  Biso   1.000  N
  N13      1.0000 0.43790  0.03760  0.76861  Biso   1.000  N
  N14      1.0000 0.06210  0.53760  0.23139  Biso   1.000  N
  N15      1.0000 0.56210  0.96240  0.23139  Biso   1.000  N
  N16      1.0000 0.93790  0.46240  0.76861  Biso   1.000  N
  N17      1.0000 0.30460  0.12980  0.60532  Biso   1.000  N
  N18      1.0000 0.19540  0.62980  0.39468  Biso   1.000  N
  N19      1.0000 0.69540  0.87020  0.39468  Biso   1.000  N
  N20      1.0000 0.80460  0.37020  0.60532  Biso   1.000  N
  N21      1.0000 0.13960  0.69920  0.47065  Biso   1.000  N
  N22      1.0000 0.36040  0.19920  0.52935  Biso   1.000  N
  N23      1.0000 0.86040  0.30080  0.52935  Biso   1.000  N
  N24      1.0000 0.63960  0.80080  0.47065  Biso   1.000  N
  C1       1.0000 0.47440  0.21100  0.71167  Biso   1.000  C
  C2       1.0000 0.02560  0.71100  0.28833  Biso   1.000  C
  C3       1.0000 0.52560  0.78900  0.28833  Biso   1.000  C
  C4       1.0000 0.97440  0.28900  0.71167  Biso   1.000  C
  C5       1.0000 0.52590  0.19420  0.73330  Biso   1.000  C
  C6       1.0000 0.97410  0.69420  0.26670  Biso   1.000  C
  C7       1.0000 0.47410  0.80580  0.26670  Biso   1.000  C
  C8       1.0000 0.02590  0.30580  0.73330  Biso   1.000  C
  C9       1.0000 0.55810  0.19350  0.78710  Biso   1.000  C
  C10      1.0000 0.94190  0.69350  0.21290  Biso   1.000  C
  C11      1.0000 0.44190  0.80650  0.21290  Biso   1.000  C
  C12      1.0000 0.05810  0.30650  0.78710  Biso   1.000  C
  H1       1.0000 0.55660  0.24740  0.79950  Biso   1.000  H
  H2       1.0000 0.94340  0.74740  0.20050  Biso   1.000  H
  H3       1.0000 0.44340  0.75260  0.20050  Biso   1.000  H
  H4       1.0000 0.05660  0.25260  0.79950  Biso   1.000  H
  H5       1.0000 0.54210  0.15580  0.80140  Biso   1.000  H
  H6       1.0000 0.95790  0.65580  0.19860  Biso   1.000  H
  H7       1.0000 0.45790  0.84420  0.19860  Biso   1.000  H
  H8       1.0000 0.04210  0.34420  0.80140  Biso   1.000  H
  C13      1.0000 0.61430  0.17020  0.80310  Biso   1.000  C
  C14      1.0000 0.88570  0.67020  0.19690  Biso   1.000  C
  C15      1.0000 0.38570  0.82980  0.19690  Biso   1.000  C
  C16      1.0000 0.11430  0.32980  0.80310  Biso   1.000  C
  H9       1.0000 0.63460  0.21950  0.80640  Biso   1.000  H
  H10      1.0000 0.86540  0.71950  0.19360  Biso   1.000  H
  H11      1.0000 0.36540  0.78050  0.19360  Biso   1.000  H
  H12      1.0000 0.13460  0.28050  0.80640  Biso   1.000  H
  H13      1.0000 0.62630  0.14540  0.83460  Biso   1.000  H
  H14      1.0000 0.87370  0.64540  0.16540  Biso   1.000  H
  H15      1.0000 0.37370  0.85460  0.16540  Biso   1.000  H
  H16      1.0000 0.12630  0.35460  0.83460  Biso   1.000  H
  C17      1.0000 0.62460  0.11770  0.77340  Biso   1.000  C
  C18      1.0000 0.87540  0.61770  0.22660  Biso   1.000  C
  C19      1.0000 0.37540  0.88230  0.22660  Biso   1.000  C
  C20      1.0000 0.12460  0.38230  0.77340  Biso   1.000  C
  H17      1.0000 0.61060  0.06480  0.77600  Biso   1.000  H
  H18      1.0000 0.88940  0.56480  0.22400  Biso   1.000  H
  H19      1.0000 0.38940  0.93520  0.22400  Biso   1.000  H
  H20      1.0000 0.11060  0.43520  0.77600  Biso   1.000  H
  H21      1.0000 0.66230  0.11170  0.78570  Biso   1.000  H
  H22      1.0000 0.83770  0.61170  0.21430  Biso   1.000  H
  H23      1.0000 0.33770  0.88830  0.21430  Biso   1.000  H
  H24      1.0000 0.16230  0.38830  0.78570  Biso   1.000  H
  C21      1.0000 0.60380  0.13930  0.71950  Biso   1.000  C
  C22      1.0000 0.89620  0.63930  0.28050  Biso   1.000  C
  C23      1.0000 0.39620  0.86070  0.28050  Biso   1.000  C
  C24      1.0000 0.10380  0.36070  0.71950  Biso   1.000  C
  H25      1.0000 0.62580  0.18120  0.71510  Biso   1.000  H
  H26      1.0000 0.87420  0.68120  0.28490  Biso   1.000  H
  H27      1.0000 0.37420  0.81880  0.28490  Biso   1.000  H
  H28      1.0000 0.12580  0.31880  0.71510  Biso   1.000  H
  H29      1.0000 0.60580  0.09140  0.70170  Biso   1.000  H
  H30      1.0000 0.89420  0.59140  0.29830  Biso   1.000  H
  H31      1.0000 0.39420  0.90860  0.29830  Biso   1.000  H
  H32      1.0000 0.10580  0.40860  0.70170  Biso   1.000  H
  C25      1.0000 0.54890  0.16890  0.70000  Biso   1.000  C
  C26      1.0000 0.95110  0.66890  0.30000  Biso   1.000  C
  C27      1.0000 0.45110  0.83110  0.30000  Biso   1.000  C
  C28      1.0000 0.04890  0.33110  0.70000  Biso   1.000  C
  C29      1.0000 0.51420  0.16960  0.65250  Biso   1.000  C
  C30      1.0000 0.98580  0.66960  0.34750  Biso   1.000  C
  C31      1.0000 0.48580  0.83040  0.34750  Biso   1.000  C
  C32      1.0000 0.01420  0.33040  0.65250  Biso   1.000  C
  C33      1.0000 0.52180  0.14670  0.60910  Biso   1.000  C
  C34      1.0000 0.97820  0.64670  0.39090  Biso   1.000  C
  C35      1.0000 0.47820  0.85330  0.39090  Biso   1.000  C
  C36      1.0000 0.02180  0.35330  0.60910  Biso   1.000  C
  C37      1.0000 0.56840  0.15320  0.60330  Biso   1.000  C
  C38      1.0000 0.93160  0.65320  0.39670  Biso   1.000  C
  C39      1.0000 0.43160  0.84680  0.39670  Biso   1.000  C
  C40      1.0000 0.06840  0.34680  0.60330  Biso   1.000  C
  H33      1.0000 0.59840  0.17270  0.62830  Biso   1.000  H
  H34      1.0000 0.90160  0.67270  0.37170  Biso   1.000  H
  H35      1.0000 0.40160  0.82730  0.37170  Biso   1.000  H
  H36      1.0000 0.09840  0.32730  0.62830  Biso   1.000  H
  C41      1.0000 0.57000  0.13150  0.56170  Biso   1.000  C
  C42      1.0000 0.93000  0.63150  0.43830  Biso   1.000  C
  C43      1.0000 0.43000  0.86850  0.43830  Biso   1.000  C
  C44      1.0000 0.07000  0.36850  0.56170  Biso   1.000  C
  H37      1.0000 0.60100  0.13550  0.55780  Biso   1.000  H
  H38      1.0000 0.89900  0.63550  0.44220  Biso   1.000  H
  H39      1.0000 0.39900  0.86450  0.44220  Biso   1.000  H
  H40      1.0000 0.10100  0.36450  0.55780  Biso   1.000  H
  C45      1.0000 0.52490  0.10310  0.52470  Biso   1.000  C
  C46      1.0000 0.97510  0.60310  0.47530  Biso   1.000  C
  C47      1.0000 0.47510  0.89690  0.47530  Biso   1.000  C
  C48      1.0000 0.02490  0.39690  0.52470  Biso   1.000  C
  H41      1.0000 0.52520  0.08790  0.49570  Biso   1.000  H
  H42      1.0000 0.97480  0.58790  0.50430  Biso   1.000  H
  H43      1.0000 0.47480  0.91210  0.50430  Biso   1.000  H
  H44      1.0000 0.02520  0.41210  0.49570  Biso   1.000  H
  C49      1.0000 0.47990  0.09770  0.53130  Biso   1.000  C
  C50      1.0000 0.02010  0.59770  0.46870  Biso   1.000  C
  C51      1.0000 0.52010  0.90230  0.46870  Biso   1.000  C
  C52      1.0000 0.97990  0.40230  0.53130  Biso   1.000  C
  H45      1.0000 0.45000  0.07850  0.50600  Biso   1.000  H
  H46      1.0000 0.05000  0.57850  0.49400  Biso   1.000  H
  H47      1.0000 0.55000  0.92150  0.49400  Biso   1.000  H
  H48      1.0000 0.95000  0.42150  0.50600  Biso   1.000  H
  C53      1.0000 0.43620  0.22960  0.73118  Biso   1.000  C
  C54      1.0000 0.06380  0.72960  0.26882  Biso   1.000  C
  C55      1.0000 0.56380  0.77040  0.26882  Biso   1.000  C
  C56      1.0000 0.93620  0.27040  0.73118  Biso   1.000  C
  C57      1.0000 0.44690  0.27560  0.77290  Biso   1.000  C
  C58      1.0000 0.05310  0.77560  0.22710  Biso   1.000  C
  C59      1.0000 0.55310  0.72440  0.22710  Biso   1.000  C
  C60      1.0000 0.94690  0.22440  0.77290  Biso   1.000  C
  H49      1.0000 0.48010  0.29720  0.79030  Biso   1.000  H
  H50      1.0000 0.01990  0.79720  0.20970  Biso   1.000  H
  H51      1.0000 0.51990  0.70280  0.20970  Biso   1.000  H
  H52      1.0000 0.98010  0.20280  0.79030  Biso   1.000  H
  C61      1.0000 0.40770  0.28810  0.78750  Biso   1.000  C
  C62      1.0000 0.09230  0.78810  0.21250  Biso   1.000  C
  C63      1.0000 0.59230  0.71190  0.21250  Biso   1.000  C
  C64      1.0000 0.90770  0.21190  0.78750  Biso   1.000  C
  H53      1.0000 0.41430  0.31760  0.81530  Biso   1.000  H
  H54      1.0000 0.08570  0.81760  0.18470  Biso   1.000  H
  H55      1.0000 0.58570  0.68240  0.18470  Biso   1.000  H
  H56      1.0000 0.91430  0.18240  0.81530  Biso   1.000  H
  C65      1.0000 0.35790  0.25680  0.76090  Biso   1.000  C
  C66      1.0000 0.14210  0.75680  0.23910  Biso   1.000  C
  C67      1.0000 0.64210  0.74320  0.23910  Biso   1.000  C
  C68      1.0000 0.85790  0.24320  0.76090  Biso   1.000  C
  H57      1.0000 0.33120  0.26510  0.77070  Biso   1.000  H
  H58      1.0000 0.16880  0.76510  0.22930  Biso   1.000  H
  H59      1.0000 0.66880  0.73490  0.22930  Biso   1.000  H
  H60      1.0000 0.83120  0.23490  0.77070  Biso   1.000  H
  C69      1.0000 0.34910  0.21380  0.72030  Biso   1.000  C
  C70      1.0000 0.15090  0.71380  0.27970  Biso   1.000  C
  C71      1.0000 0.65090  0.78620  0.27970  Biso   1.000  C
  C72      1.0000 0.84910  0.28620  0.72030  Biso   1.000  C
  H61      1.0000 0.31580  0.19310  0.70260  Biso   1.000  H
  H62      1.0000 0.18420  0.69310  0.29740  Biso   1.000  H
  H63      1.0000 0.68420  0.80690  0.29740  Biso   1.000  H
  H64      1.0000 0.81580  0.30690  0.70260  Biso   1.000  H
  C73      1.0000 0.43700  0.30340  0.62415  Biso   1.000  C
  C74      1.0000 0.06300  0.80340  0.37585  Biso   1.000  C
  C75      1.0000 0.56300  0.69660  0.37585  Biso   1.000  C
  C76      1.0000 0.93700  0.19660  0.62415  Biso   1.000  C
  C77      1.0000 0.39210  0.34100  0.61990  Biso   1.000  C
  C78      1.0000 0.10790  0.84100  0.38010  Biso   1.000  C
  C79      1.0000 0.60790  0.65900  0.38010  Biso   1.000  C
  C80      1.0000 0.89210  0.15900  0.61990  Biso   1.000  C
  H65      1.0000 0.36830  0.31340  0.62830  Biso   1.000  H
  H66      1.0000 0.13170  0.81340  0.37170  Biso   1.000  H
  H67      1.0000 0.63170  0.68660  0.37170  Biso   1.000  H
  H68      1.0000 0.86830  0.18660  0.62830  Biso   1.000  H
  C81      1.0000 0.38170  0.42100  0.60280  Biso   1.000  C
  C82      1.0000 0.11830  0.92100  0.39720  Biso   1.000  C
  C83      1.0000 0.61830  0.57900  0.39720  Biso   1.000  C
  C84      1.0000 0.88170  0.07900  0.60280  Biso   1.000  C
  H69      1.0000 0.35090  0.44620  0.60000  Biso   1.000  H
  H70      1.0000 0.14910  0.94620  0.40000  Biso   1.000  H
  H71      1.0000 0.64910  0.55380  0.40000  Biso   1.000  H
  H72      1.0000 0.85090  0.05380  0.60000  Biso   1.000  H
  C85      1.0000 0.41630  0.46260  0.59010  Biso   1.000  C
  C86      1.0000 0.08370  0.96260  0.40990  Biso   1.000  C
  C87      1.0000 0.58370  0.53740  0.40990  Biso   1.000  C
  C88      1.0000 0.91630  0.03740  0.59010  Biso   1.000  C
  H73      1.0000 0.40940  0.51610  0.57930  Biso   1.000  H
  H74      1.0000 0.09060  0.01610  0.42070  Biso   1.000  H
  H75      1.0000 0.59060  0.48390  0.42070  Biso   1.000  H
  H76      1.0000 0.90940  0.98390  0.57930  Biso   1.000  H
  C89      1.0000 0.46050  0.42520  0.59330  Biso   1.000  C
  C90      1.0000 0.03950  0.92520  0.40670  Biso   1.000  C
  C91      1.0000 0.53950  0.57480  0.40670  Biso   1.000  C
  C92      1.0000 0.96050  0.07480  0.59330  Biso   1.000  C
  H77      1.0000 0.48350  0.45310  0.58400  Biso   1.000  H
  H78      1.0000 0.01650  0.95310  0.41600  Biso   1.000  H
  H79      1.0000 0.51650  0.54690  0.41600  Biso   1.000  H
  H80      1.0000 0.98350  0.04690  0.58400  Biso   1.000  H
  C93      1.0000 0.47230  0.34500  0.61060  Biso   1.000  C
  C94      1.0000 0.02770  0.84500  0.38940  Biso   1.000  C
  C95      1.0000 0.52770  0.65500  0.38940  Biso   1.000  C
  C96      1.0000 0.97230  0.15500  0.61060  Biso   1.000  C
  H81      1.0000 0.50300  0.31990  0.61290  Biso   1.000  H
  H82      1.0000 0.99700  0.81990  0.38710  Biso   1.000  H
  H83      1.0000 0.49700  0.68010  0.38710  Biso   1.000  H
  H84      1.0000 0.00300  0.18010  0.61290  Biso   1.000  H
  C97      1.0000 0.41850  0.94170  0.62560  Biso   1.000  C
  C98      1.0000 0.08150  0.44170  0.37440  Biso   1.000  C
  C99      1.0000 0.58150  0.05830  0.37440  Biso   1.000  C
  C100     1.0000 0.91850  0.55830  0.62560  Biso   1.000  C
  C101     1.0000 0.46790  0.91540  0.64500  Biso   1.000  C
  C102     1.0000 0.03210  0.41540  0.35500  Biso   1.000  C
  C103     1.0000 0.53210  0.08460  0.35500  Biso   1.000  C
  C104     1.0000 0.96790  0.58460  0.64500  Biso   1.000  C
  C105     1.0000 0.49580  0.88240  0.61640  Biso   1.000  C
  C106     1.0000 0.00420  0.38240  0.38360  Biso   1.000  C
  C107     1.0000 0.50420  0.11760  0.38360  Biso   1.000  C
  C108     1.0000 0.99580  0.61760  0.61640  Biso   1.000  C
  H85      1.0000 0.47360  0.84230  0.59380  Biso   1.000  H
  H86      1.0000 0.02640  0.34230  0.40620  Biso   1.000  H
  H87      1.0000 0.52640  0.15770  0.40620  Biso   1.000  H
  H88      1.0000 0.97360  0.65770  0.59380  Biso   1.000  H
  H89      1.0000 0.50150  0.92650  0.59800  Biso   1.000  H
  H90      1.0000 0.99850  0.42650  0.40200  Biso   1.000  H
  H91      1.0000 0.49850  0.07350  0.40200  Biso   1.000  H
  H92      1.0000 0.00150  0.57350  0.59800  Biso   1.000  H
  C109     1.0000 0.54660  0.84410  0.64600  Biso   1.000  C
  C110     1.0000 0.95340  0.34410  0.35400  Biso   1.000  C
  C111     1.0000 0.45340  0.15590  0.35400  Biso   1.000  C
  C112     1.0000 0.04660  0.65590  0.64600  Biso   1.000  C
  H93      1.0000 0.54000  0.78870  0.65310  Biso   1.000  H
  H94      1.0000 0.96000  0.28870  0.34690  Biso   1.000  H
  H95      1.0000 0.46000  0.21130  0.34690  Biso   1.000  H
  H96      1.0000 0.04000  0.71130  0.65310  Biso   1.000  H
  H97      1.0000 0.56680  0.84090  0.62700  Biso   1.000  H
  H98      1.0000 0.93320  0.34090  0.37300  Biso   1.000  H
  H99      1.0000 0.43320  0.15910  0.37300  Biso   1.000  H
  H100     1.0000 0.06680  0.65910  0.62700  Biso   1.000  H
  C113     1.0000 0.57760  0.88300  0.68970  Biso   1.000  C
  C114     1.0000 0.92240  0.38300  0.31030  Biso   1.000  C
  C115     1.0000 0.42240  0.11700  0.31030  Biso   1.000  C
  C116     1.0000 0.07760  0.61700  0.68970  Biso   1.000  C
  H101     1.0000 0.59080  0.93340  0.68230  Biso   1.000  H
  H102     1.0000 0.90920  0.43340  0.31770  Biso   1.000  H
  H103     1.0000 0.40920  0.06660  0.31770  Biso   1.000  H
  H104     1.0000 0.09080  0.56660  0.68230  Biso   1.000  H
  H105     1.0000 0.60760  0.84840  0.70690  Biso   1.000  H
  H106     1.0000 0.89240  0.34840  0.29310  Biso   1.000  H
  H107     1.0000 0.39240  0.15160  0.29310  Biso   1.000  H
  H108     1.0000 0.10760  0.65160  0.70690  Biso   1.000  H
  C117     1.0000 0.55190  0.90330  0.72340  Biso   1.000  C
  C118     1.0000 0.94810  0.40330  0.27660  Biso   1.000  C
  C119     1.0000 0.44810  0.09670  0.27660  Biso   1.000  C
  C120     1.0000 0.05190  0.59670  0.72340  Biso   1.000  C
  H109     1.0000 0.57160  0.94650  0.74490  Biso   1.000  H
  H110     1.0000 0.92840  0.44650  0.25510  Biso   1.000  H
  H111     1.0000 0.42840  0.05350  0.25510  Biso   1.000  H
  H112     1.0000 0.07160  0.55350  0.74490  Biso   1.000  H
  H113     1.0000 0.55360  0.85560  0.74270  Biso   1.000  H
  H114     1.0000 0.94640  0.35560  0.25730  Biso   1.000  H
  H115     1.0000 0.44640  0.14440  0.25730  Biso   1.000  H
  H116     1.0000 0.05360  0.64440  0.74270  Biso   1.000  H
  C121     1.0000 0.49460  0.93010  0.69770  Biso   1.000  C
  C122     1.0000 0.00540  0.43010  0.30230  Biso   1.000  C
  C123     1.0000 0.50540  0.06990  0.30230  Biso   1.000  C
  C124     1.0000 0.99460  0.56990  0.69770  Biso   1.000  C
  C125     1.0000 0.46550  0.96640  0.71700  Biso   1.000  C
  C126     1.0000 0.03450  0.46640  0.28300  Biso   1.000  C
  C127     1.0000 0.53450  0.03360  0.28300  Biso   1.000  C
  C128     1.0000 0.96550  0.53360  0.71700  Biso   1.000  C
  C129     1.0000 0.47650  0.99180  0.76620  Biso   1.000  C
  C130     1.0000 0.02350  0.49180  0.23380  Biso   1.000  C
  C131     1.0000 0.52350  0.00820  0.23380  Biso   1.000  C
  C132     1.0000 0.97650  0.50820  0.76620  Biso   1.000  C
  C133     1.0000 0.52050  0.97170  0.80690  Biso   1.000  C
  C134     1.0000 0.97950  0.47170  0.19310  Biso   1.000  C
  C135     1.0000 0.47950  0.02830  0.19310  Biso   1.000  C
  C136     1.0000 0.02050  0.52830  0.80690  Biso   1.000  C
  H117     1.0000 0.54540  0.93670  0.80480  Biso   1.000  H
  H118     1.0000 0.95460  0.43670  0.19520  Biso   1.000  H
  H119     1.0000 0.45460  0.06330  0.19520  Biso   1.000  H
  H120     1.0000 0.04540  0.56330  0.80480  Biso   1.000  H
  C137     1.0000 0.52720  0.00370  0.85050  Biso   1.000  C
  C138     1.0000 0.97280  0.50370  0.14950  Biso   1.000  C
  C139     1.0000 0.47280  0.99630  0.14950  Biso   1.000  C
  C140     1.0000 0.02720  0.49630  0.85050  Biso   1.000  C
  H121     1.0000 0.55760  0.99260  0.87760  Biso   1.000  H
  H122     1.0000 0.94240  0.49260  0.12240  Biso   1.000  H
  H123     1.0000 0.44240  0.00740  0.12240  Biso   1.000  H
  H124     1.0000 0.05760  0.50740  0.87760  Biso   1.000  H
  C141     1.0000 0.48980  0.05120  0.85380  Biso   1.000  C
  C142     1.0000 0.01020  0.55120  0.14620  Biso   1.000  C
  C143     1.0000 0.51020  0.94880  0.14620  Biso   1.000  C
  C144     1.0000 0.98980  0.44880  0.85380  Biso   1.000  C
  H125     1.0000 0.49360  0.07280  0.88310  Biso   1.000  H
  H126     1.0000 0.00640  0.57280  0.11690  Biso   1.000  H
  H127     1.0000 0.50640  0.92720  0.11690  Biso   1.000  H
  H128     1.0000 0.99360  0.42720  0.88310  Biso   1.000  H
  C145     1.0000 0.44530  0.06690  0.81200  Biso   1.000  C
  C146     1.0000 0.05470  0.56690  0.18800  Biso   1.000  C
  C147     1.0000 0.55470  0.93310  0.18800  Biso   1.000  C
  C148     1.0000 0.94530  0.43310  0.81200  Biso   1.000  C
  H129     1.0000 0.41920  0.09950  0.81420  Biso   1.000  H
  H130     1.0000 0.08080  0.59950  0.18580  Biso   1.000  H
  H131     1.0000 0.58080  0.90050  0.18580  Biso   1.000  H
  H132     1.0000 0.91920  0.40050  0.81420  Biso   1.000  H
  C149     1.0000 0.38230  0.93920  0.57440  Biso   1.000  C
  C150     1.0000 0.11770  0.43920  0.42560  Biso   1.000  C
  C151     1.0000 0.61770  0.06080  0.42560  Biso   1.000  C
  C152     1.0000 0.88230  0.56080  0.57440  Biso   1.000  C
  C153     1.0000 0.36240  0.86500  0.55180  Biso   1.000  C
  C154     1.0000 0.13760  0.36500  0.44820  Biso   1.000  C
  C155     1.0000 0.63760  0.13500  0.44820  Biso   1.000  C
  C156     1.0000 0.86240  0.63500  0.55180  Biso   1.000  C
  H133     1.0000 0.37280  0.81600  0.56830  Biso   1.000  H
  H134     1.0000 0.12720  0.31600  0.43170  Biso   1.000  H
  H135     1.0000 0.62720  0.18400  0.43170  Biso   1.000  H
  H136     1.0000 0.87280  0.68400  0.56830  Biso   1.000  H
  C157     1.0000 0.32720  0.86610  0.50450  Biso   1.000  C
  C158     1.0000 0.17280  0.36610  0.49550  Biso   1.000  C
  C159     1.0000 0.67280  0.13390  0.49550  Biso   1.000  C
  C160     1.0000 0.82720  0.63390  0.50450  Biso   1.000  C
  H137     1.0000 0.31400  0.81740  0.48850  Biso   1.000  H
  H138     1.0000 0.18600  0.31740  0.51150  Biso   1.000  H
  H139     1.0000 0.68600  0.18260  0.51150  Biso   1.000  H
  H140     1.0000 0.81400  0.68260  0.48850  Biso   1.000  H
  C161     1.0000 0.31140  0.93950  0.48080  Biso   1.000  C
  C162     1.0000 0.18860  0.43950  0.51920  Biso   1.000  C
  C163     1.0000 0.68860  0.06050  0.51920  Biso   1.000  C
  C164     1.0000 0.81140  0.56050  0.48080  Biso   1.000  C
  H141     1.0000 0.28700  0.94140  0.44910  Biso   1.000  H
  H142     1.0000 0.21300  0.44140  0.55090  Biso   1.000  H
  H143     1.0000 0.71300  0.05860  0.55090  Biso   1.000  H
  H144     1.0000 0.78700  0.55860  0.44910  Biso   1.000  H
  C165     1.0000 0.33300  0.00930  0.50560  Biso   1.000  C
  C166     1.0000 0.16700  0.50930  0.49440  Biso   1.000  C
  C167     1.0000 0.66700  0.99070  0.49440  Biso   1.000  C
  C168     1.0000 0.83300  0.49070  0.50560  Biso   1.000  C
  H145     1.0000 0.32290  0.05890  0.48970  Biso   1.000  H
  H146     1.0000 0.17710  0.55890  0.51030  Biso   1.000  H
  H147     1.0000 0.67710  0.94110  0.51030  Biso   1.000  H
  H148     1.0000 0.82290  0.44110  0.48970  Biso   1.000  H
  C169     1.0000 0.35280  0.93320  0.67840  Biso   1.000  C
  C170     1.0000 0.14720  0.43320  0.32160  Biso   1.000  C
  C171     1.0000 0.64720  0.06680  0.32160  Biso   1.000  C
  C172     1.0000 0.85280  0.56680  0.67840  Biso   1.000  C
  C173     1.0000 0.34700  0.85040  0.66760  Biso   1.000  C
  C174     1.0000 0.15300  0.35040  0.33240  Biso   1.000  C
  C175     1.0000 0.65300  0.14960  0.33240  Biso   1.000  C
  C176     1.0000 0.84700  0.64960  0.66760  Biso   1.000  C
  H149     1.0000 0.36760  0.82470  0.65460  Biso   1.000  H
  H150     1.0000 0.13240  0.32470  0.34540  Biso   1.000  H
  H151     1.0000 0.63240  0.17530  0.34540  Biso   1.000  H
  H152     1.0000 0.86760  0.67530  0.65460  Biso   1.000  H
  C177     1.0000 0.30970  0.80710  0.67660  Biso   1.000  C
  C178     1.0000 0.19030  0.30710  0.32340  Biso   1.000  C
  C179     1.0000 0.69030  0.19290  0.32340  Biso   1.000  C
  C180     1.0000 0.80970  0.69290  0.67660  Biso   1.000  C
  H153     1.0000 0.30760  0.75080  0.67250  Biso   1.000  H
  H154     1.0000 0.19240  0.25080  0.32750  Biso   1.000  H
  H155     1.0000 0.69240  0.24920  0.32750  Biso   1.000  H
  H156     1.0000 0.80760  0.74920  0.67250  Biso   1.000  H
  C181     1.0000 0.27640  0.84580  0.69130  Biso   1.000  C
  C182     1.0000 0.22360  0.34580  0.30870  Biso   1.000  C
  C183     1.0000 0.72360  0.15420  0.30870  Biso   1.000  C
  C184     1.0000 0.77640  0.65420  0.69130  Biso   1.000  C
  H157     1.0000 0.24940  0.81740  0.69440  Biso   1.000  H
  H158     1.0000 0.25060  0.31740  0.30560  Biso   1.000  H
  H159     1.0000 0.75060  0.18260  0.30560  Biso   1.000  H
  H160     1.0000 0.74940  0.68260  0.69440  Biso   1.000  H
  C185     1.0000 0.28320  0.92700  0.70160  Biso   1.000  C
  C186     1.0000 0.21680  0.42700  0.29840  Biso   1.000  C
  C187     1.0000 0.71680  0.07300  0.29840  Biso   1.000  C
  C188     1.0000 0.78320  0.57300  0.70160  Biso   1.000  C
  H161     1.0000 0.26220  0.95270  0.71420  Biso   1.000  H
  H162     1.0000 0.23780  0.45270  0.28580  Biso   1.000  H
  H163     1.0000 0.73780  0.04730  0.28580  Biso   1.000  H
  H164     1.0000 0.76220  0.54730  0.71420  Biso   1.000  H
  C189     1.0000 0.31980  0.97120  0.69380  Biso   1.000  C
  C190     1.0000 0.18020  0.47120  0.30620  Biso   1.000  C
  C191     1.0000 0.68020  0.02880  0.30620  Biso   1.000  C
  C192     1.0000 0.81980  0.52880  0.69380  Biso   1.000  C
  H165     1.0000 0.32220  0.02720  0.69910  Biso   1.000  H
  H166     1.0000 0.17780  0.52720  0.30090  Biso   1.000  H
  H167     1.0000 0.67780  0.97280  0.30090  Biso   1.000  H
  H168     1.0000 0.82220  0.47280  0.69910  Biso   1.000  H
  C193     1.0000 0.26150  0.12450  0.58150  Biso   1.000  C
  C194     1.0000 0.23850  0.62450  0.41850  Biso   1.000  C
  C195     1.0000 0.73850  0.87550  0.41850  Biso   1.000  C
  C196     1.0000 0.76150  0.37550  0.58150  Biso   1.000  C
  C197     1.0000 0.20710  0.11600  0.55060  Biso   1.000  C
  C198     1.0000 0.29290  0.61600  0.44940  Biso   1.000  C
  C199     1.0000 0.79290  0.88400  0.44940  Biso   1.000  C
  C200     1.0000 0.70710  0.38400  0.55060  Biso   1.000  C
  H169     1.0000 0.20170  0.13150  0.51830  Biso   1.000  H
  H170     1.0000 0.29830  0.63150  0.48170  Biso   1.000  H
  H171     1.0000 0.79830  0.86850  0.48170  Biso   1.000  H
  H172     1.0000 0.70170  0.36850  0.51830  Biso   1.000  H
  H173     1.0000 0.18730  0.15360  0.56100  Biso   1.000  H
  H174     1.0000 0.31270  0.65360  0.43900  Biso   1.000  H
  H175     1.0000 0.81270  0.84640  0.43900  Biso   1.000  H
  H176     1.0000 0.68730  0.34640  0.56100  Biso   1.000  H
  C201     1.0000 0.18630  0.03310  0.54920  Biso   1.000  C
  C202     1.0000 0.31370  0.53310  0.45080  Biso   1.000  C
  C203     1.0000 0.81370  0.96690  0.45080  Biso   1.000  C
  C204     1.0000 0.68630  0.46690  0.54920  Biso   1.000  C
  H177     1.0000 0.18630  0.02230  0.58030  Biso   1.000  H
  H178     1.0000 0.31370  0.52230  0.41970  Biso   1.000  H
  H179     1.0000 0.81370  0.97770  0.41970  Biso   1.000  H
  H180     1.0000 0.68630  0.47770  0.58030  Biso   1.000  H
  H181     1.0000 0.15020  0.03310  0.52600  Biso   1.000  H
  H182     1.0000 0.34980  0.53310  0.47400  Biso   1.000  H
  H183     1.0000 0.84980  0.96690  0.47400  Biso   1.000  H
  H184     1.0000 0.65020  0.46690  0.52600  Biso   1.000  H
  C205     1.0000 0.16630  0.75110  0.48880  Biso   1.000  C
  C206     1.0000 0.33370  0.25110  0.51120  Biso   1.000  C
  C207     1.0000 0.83370  0.24890  0.51120  Biso   1.000  C
  C208     1.0000 0.66630  0.74890  0.48880  Biso   1.000  C
  C209     1.0000 0.20450  0.82240  0.50940  Biso   1.000  C
  C210     1.0000 0.29550  0.32240  0.49060  Biso   1.000  C
  C211     1.0000 0.79550  0.17760  0.49060  Biso   1.000  C
  C212     1.0000 0.70450  0.67760  0.50940  Biso   1.000  C
  H185     1.0000 0.23680  0.80250  0.53430  Biso   1.000  H
  H186     1.0000 0.26320  0.30250  0.46570  Biso   1.000  H
  H187     1.0000 0.76320  0.19750  0.46570  Biso   1.000  H
  H188     1.0000 0.73680  0.69750  0.53430  Biso   1.000  H
  H189     1.0000 0.21260  0.84620  0.48420  Biso   1.000  H
  H190     1.0000 0.28740  0.34620  0.51580  Biso   1.000  H
  H191     1.0000 0.78740  0.15380  0.51580  Biso   1.000  H
  H192     1.0000 0.71260  0.65380  0.48420  Biso   1.000  H
  C213     1.0000 0.18180  0.88440  0.52900  Biso   1.000  C
  C214     1.0000 0.31820  0.38440  0.47100  Biso   1.000  C
  C215     1.0000 0.81820  0.11560  0.47100  Biso   1.000  C
  C216     1.0000 0.68180  0.61560  0.52900  Biso   1.000  C
  H193     1.0000 0.18220  0.86470  0.55900  Biso   1.000  H
  H194     1.0000 0.31780  0.36470  0.44100  Biso   1.000  H
  H195     1.0000 0.81780  0.13530  0.44100  Biso   1.000  H
  H196     1.0000 0.68220  0.63530  0.55900  Biso   1.000  H
  H197     1.0000 0.14560  0.89300  0.50700  Biso   1.000  H
  H198     1.0000 0.35440  0.39300  0.49300  Biso   1.000  H
  H199     1.0000 0.85440  0.10700  0.49300  Biso   1.000  H
  H200     1.0000 0.64560  0.60700  0.50700  Biso   1.000  H
  C217     1.0000 0.21150  0.96770  0.53820  Biso   1.000  C
  C218     1.0000 0.28850  0.46770  0.46180  Biso   1.000  C
  C219     1.0000 0.78850  0.03230  0.46180  Biso   1.000  C
  C220     1.0000 0.71150  0.53230  0.53820  Biso   1.000  C
  H201     1.0000 0.24560  0.96070  0.56440  Biso   1.000  H
  H202     1.0000 0.25440  0.46070  0.43560  Biso   1.000  H
  H203     1.0000 0.75440  0.03930  0.43560  Biso   1.000  H
  H204     1.0000 0.74560  0.53930  0.56440  Biso   1.000  H
  H205     1.0000 0.21690  0.98180  0.50990  Biso   1.000  H
  H206     1.0000 0.28310  0.48180  0.49010  Biso   1.000  H
  H207     1.0000 0.78310  0.01820  0.49010  Biso   1.000  H
  H208     1.0000 0.71690  0.51820  0.50990  Biso   1.000  H
  Cu9      1.0000 0.61879  0.56822  0.85609  Biso   1.000  Cu
  Cu10     1.0000 0.88121  0.06822  0.14391  Biso   1.000  Cu
  Cu11     1.0000 0.38121  0.43178  0.14391  Biso   1.000  Cu
  Cu12     1.0000 0.11879  0.93178  0.85609  Biso   1.000  Cu
  Cu13     1.0000 0.60131  0.57333  0.93162  Biso   1.000  Cu
  Cu14     1.0000 0.89869  0.07333  0.06838  Biso   1.000  Cu
  Cu15     1.0000 0.39869  0.42667  0.06838  Biso   1.000  Cu
  Cu16     1.0000 0.10131  0.92667  0.93162  Biso   1.000  Cu
  P9       1.0000 0.55423  0.49183  0.86578  Biso   1.000  P
  P10      1.0000 0.94577  0.99183  0.13422  Biso   1.000  P
  P11      1.0000 0.44577  0.50817  0.13422  Biso   1.000  P
  P12      1.0000 0.05423  0.00817  0.86578  Biso   1.000  P
  P13      1.0000 0.59322  0.69930  0.83900  Biso   1.000  P
  P14      1.0000 0.90678  0.19930  0.16100  Biso   1.000  P
  P15      1.0000 0.40678  0.30070  0.16100  Biso   1.000  P
  P16      1.0000 0.09322  0.80070  0.83900  Biso   1.000  P
  N25      1.0000 0.60640  0.49200  0.79946  Biso   1.000  N
  N26      1.0000 0.89360  0.99200  0.20054  Biso   1.000  N
  N27      1.0000 0.39360  0.50800  0.20054  Biso   1.000  N
  N28      1.0000 0.10640  0.00800  0.79946  Biso   1.000  N
  N29      1.0000 0.53412  0.58070  0.94146  Biso   1.000  N
  N30      1.0000 0.96588  0.08070  0.05854  Biso   1.000  N
  N31      1.0000 0.46588  0.41930  0.05854  Biso   1.000  N
  N32      1.0000 0.03412  0.91930  0.94146  Biso   1.000  N
  N33      1.0000 0.64363  0.67660  0.95801  Biso   1.000  N
  N34      1.0000 0.85637  0.17660  0.04199  Biso   1.000  N
  N35      1.0000 0.35637  0.32340  0.04199  Biso   1.000  N
  N36      1.0000 0.14363  0.82340  0.95801  Biso   1.000  N
  N37      1.0000 0.54510  0.65440  0.74070  Biso   1.000  N
  N38      1.0000 0.95490  0.15440  0.25930  Biso   1.000  N
  N39      1.0000 0.45490  0.34560  0.25930  Biso   1.000  N
  N40      1.0000 0.04510  0.84560  0.74070  Biso   1.000  N
  N41      1.0000 0.69600  0.56460  0.89198  Biso   1.000  N
  N42      1.0000 0.80400  0.06460  0.10802  Biso   1.000  N
  N43      1.0000 0.30400  0.43540  0.10802  Biso   1.000  N
  N44      1.0000 0.19600  0.93540  0.89198  Biso   1.000  N
  N45      1.0000 0.85338  0.98840  0.01870  Biso   1.000  N
  N46      1.0000 0.64662  0.48840  0.98130  Biso   1.000  N
  N47      1.0000 0.14662  0.01160  0.98130  Biso   1.000  N
  N48      1.0000 0.35338  0.51160  0.01870  Biso   1.000  N
  C221     1.0000 0.52460  0.47650  0.80092  Biso   1.000  C
  C222     1.0000 0.97540  0.97650  0.19908  Biso   1.000  C
  C223     1.0000 0.47540  0.52350  0.19908  Biso   1.000  C
  C224     1.0000 0.02460  0.02350  0.80092  Biso   1.000  C
  C225     1.0000 0.47230  0.49050  0.78290  Biso   1.000  C
  C226     1.0000 0.02770  0.99050  0.21710  Biso   1.000  C
  C227     1.0000 0.52770  0.50950  0.21710  Biso   1.000  C
  C228     1.0000 0.97230  0.00950  0.78290  Biso   1.000  C
  C229     1.0000 0.43530  0.48860  0.73000  Biso   1.000  C
  C230     1.0000 0.06470  0.98860  0.27000  Biso   1.000  C
  C231     1.0000 0.56470  0.51140  0.27000  Biso   1.000  C
  C232     1.0000 0.93530  0.01140  0.73000  Biso   1.000  C
  H209     1.0000 0.44460  0.53250  0.71380  Biso   1.000  H
  H210     1.0000 0.05540  0.03250  0.28620  Biso   1.000  H
  H211     1.0000 0.55540  0.46750  0.28620  Biso   1.000  H
  H212     1.0000 0.94460  0.96750  0.71380  Biso   1.000  H
  H213     1.0000 0.44010  0.43760  0.71640  Biso   1.000  H
  H214     1.0000 0.05990  0.93760  0.28360  Biso   1.000  H
  H215     1.0000 0.55990  0.56240  0.28360  Biso   1.000  H
  H216     1.0000 0.94010  0.06240  0.71640  Biso   1.000  H
  C233     1.0000 0.37840  0.49710  0.72030  Biso   1.000  C
  C234     1.0000 0.12160  0.99710  0.27970  Biso   1.000  C
  C235     1.0000 0.62160  0.50290  0.27970  Biso   1.000  C
  C236     1.0000 0.87840  0.00290  0.72030  Biso   1.000  C
  H217     1.0000 0.35860  0.51180  0.68700  Biso   1.000  H
  H218     1.0000 0.14140  0.01180  0.31300  Biso   1.000  H
  H219     1.0000 0.64140  0.48820  0.31300  Biso   1.000  H
  H220     1.0000 0.85860  0.98820  0.68700  Biso   1.000  H
  H221     1.0000 0.36540  0.44510  0.72590  Biso   1.000  H
  H222     1.0000 0.13460  0.94510  0.27410  Biso   1.000  H
  H223     1.0000 0.63460  0.55490  0.27410  Biso   1.000  H
  H224     1.0000 0.86540  0.05490  0.72590  Biso   1.000  H
  C237     1.0000 0.37050  0.55980  0.75130  Biso   1.000  C
  C238     1.0000 0.12950  0.05980  0.24870  Biso   1.000  C
  C239     1.0000 0.62950  0.44020  0.24870  Biso   1.000  C
  C240     1.0000 0.87050  0.94020  0.75130  Biso   1.000  C
  H225     1.0000 0.33330  0.56590  0.74230  Biso   1.000  H
  H226     1.0000 0.16670  0.06590  0.25770  Biso   1.000  H
  H227     1.0000 0.66670  0.43410  0.25770  Biso   1.000  H
  H228     1.0000 0.83330  0.93410  0.74230  Biso   1.000  H
  H229     1.0000 0.38360  0.61150  0.74550  Biso   1.000  H
  H230     1.0000 0.11640  0.11150  0.25450  Biso   1.000  H
  H231     1.0000 0.61640  0.38850  0.25450  Biso   1.000  H
  H232     1.0000 0.88360  0.88850  0.74550  Biso   1.000  H
  C241     1.0000 0.39710  0.54070  0.80430  Biso   1.000  C
  C242     1.0000 0.10290  0.04070  0.19570  Biso   1.000  C
  C243     1.0000 0.60290  0.45930  0.19570  Biso   1.000  C
  C244     1.0000 0.89710  0.95930  0.80430  Biso   1.000  C
  H233     1.0000 0.39550  0.58840  0.82240  Biso   1.000  H
  H234     1.0000 0.10450  0.08840  0.17760  Biso   1.000  H
  H235     1.0000 0.60450  0.41160  0.17760  Biso   1.000  H
  H236     1.0000 0.89550  0.91160  0.82240  Biso   1.000  H
  H237     1.0000 0.37840  0.49690  0.81160  Biso   1.000  H
  H238     1.0000 0.12160  0.99690  0.18840  Biso   1.000  H
  H239     1.0000 0.62160  0.50310  0.18840  Biso   1.000  H
  H240     1.0000 0.87840  0.00310  0.81160  Biso   1.000  H
  C245     1.0000 0.45310  0.51620  0.81940  Biso   1.000  C
  C246     1.0000 0.04690  0.01620  0.18060  Biso   1.000  C
  C247     1.0000 0.54690  0.48380  0.18060  Biso   1.000  C
  C248     1.0000 0.95310  0.98380  0.81940  Biso   1.000  C
  C249     1.0000 0.49120  0.51710  0.86510  Biso   1.000  C
  C250     1.0000 0.00880  0.01710  0.13490  Biso   1.000  C
  C251     1.0000 0.50880  0.48290  0.13490  Biso   1.000  C
  C252     1.0000 0.99120  0.98290  0.86510  Biso   1.000  C
  C253     1.0000 0.48910  0.54540  0.90890  Biso   1.000  C
  C254     1.0000 0.01090  0.04540  0.09110  Biso   1.000  C
  C255     1.0000 0.51090  0.45460  0.09110  Biso   1.000  C
  C256     1.0000 0.98910  0.95460  0.90890  Biso   1.000  C
  C257     1.0000 0.44530  0.54000  0.91940  Biso   1.000  C
  C258     1.0000 0.05470  0.04000  0.08060  Biso   1.000  C
  C259     1.0000 0.55470  0.46000  0.08060  Biso   1.000  C
  C260     1.0000 0.94530  0.96000  0.91940  Biso   1.000  C
  H241     1.0000 0.41540  0.51340  0.89830  Biso   1.000  H
  H242     1.0000 0.08460  0.01340  0.10170  Biso   1.000  H
  H243     1.0000 0.58460  0.48660  0.10170  Biso   1.000  H
  H244     1.0000 0.91540  0.98660  0.89830  Biso   1.000  H
  C261     1.0000 0.44620  0.57360  0.96070  Biso   1.000  C
  C262     1.0000 0.05380  0.07360  0.03930  Biso   1.000  C
  C263     1.0000 0.55380  0.42640  0.03930  Biso   1.000  C
  C264     1.0000 0.94620  0.92640  0.96070  Biso   1.000  C
  H245     1.0000 0.41690  0.56960  0.96730  Biso   1.000  H
  H246     1.0000 0.08310  0.06960  0.03270  Biso   1.000  H
  H247     1.0000 0.58310  0.43040  0.03270  Biso   1.000  H
  H248     1.0000 0.91690  0.93040  0.96730  Biso   1.000  H
  C265     1.0000 0.48970  0.61280  0.99200  Biso   1.000  C
  C266     1.0000 0.01030  0.11280  0.00800  Biso   1.000  C
  C267     1.0000 0.51030  0.38720  0.00800  Biso   1.000  C
  C268     1.0000 0.98970  0.88720  0.99200  Biso   1.000  C
  H249     1.0000 0.49020  0.63860  0.01920  Biso   1.000  H
  H250     1.0000 0.00980  0.13860  0.98080  Biso   1.000  H
  H251     1.0000 0.50980  0.36140  0.98080  Biso   1.000  H
  H252     1.0000 0.99020  0.86140  0.01920  Biso   1.000  H
  C269     1.0000 0.53370  0.61260  0.98140  Biso   1.000  C
  C270     1.0000 0.96630  0.11260  0.01860  Biso   1.000  C
  C271     1.0000 0.46630  0.38740  0.01860  Biso   1.000  C
  C272     1.0000 0.03370  0.88740  0.98140  Biso   1.000  C
  H253     1.0000 0.56430  0.63610  0.00350  Biso   1.000  H
  H254     1.0000 0.93570  0.13610  0.99650  Biso   1.000  H
  H255     1.0000 0.43570  0.36390  0.99650  Biso   1.000  H
  H256     1.0000 0.06430  0.86390  0.00350  Biso   1.000  H
  C273     1.0000 0.55890  0.45790  0.77790  Biso   1.000  C
  C274     1.0000 0.94110  0.95790  0.22210  Biso   1.000  C
  C275     1.0000 0.44110  0.54210  0.22210  Biso   1.000  C
  C276     1.0000 0.05890  0.04210  0.77790  Biso   1.000  C
  C277     1.0000 0.54630  0.40970  0.73750  Biso   1.000  C
  C278     1.0000 0.95370  0.90970  0.26250  Biso   1.000  C
  C279     1.0000 0.45370  0.59030  0.26250  Biso   1.000  C
  C280     1.0000 0.04630  0.09030  0.73750  Biso   1.000  C
  H257     1.0000 0.51320  0.38660  0.72260  Biso   1.000  H
  H258     1.0000 0.98680  0.88660  0.27740  Biso   1.000  H
  H259     1.0000 0.48680  0.61340  0.27740  Biso   1.000  H
  H260     1.0000 0.01320  0.11340  0.72260  Biso   1.000  H
  C281     1.0000 0.58300  0.39630  0.71960  Biso   1.000  C
  C282     1.0000 0.91700  0.89630  0.28040  Biso   1.000  C
  C283     1.0000 0.41700  0.60370  0.28040  Biso   1.000  C
  C284     1.0000 0.08300  0.10370  0.71960  Biso   1.000  C
  H261     1.0000 0.57450  0.36460  0.69220  Biso   1.000  H
  H262     1.0000 0.92550  0.86460  0.30780  Biso   1.000  H
  H263     1.0000 0.42550  0.63540  0.30780  Biso   1.000  H
  H264     1.0000 0.07450  0.13540  0.69220  Biso   1.000  H
  C285     1.0000 0.63240  0.42930  0.74190  Biso   1.000  C
  C286     1.0000 0.86760  0.92930  0.25810  Biso   1.000  C
  C287     1.0000 0.36760  0.57070  0.25810  Biso   1.000  C
  C288     1.0000 0.13240  0.07070  0.74190  Biso   1.000  C
  H265     1.0000 0.65820  0.41970  0.73110  Biso   1.000  H
  H266     1.0000 0.84180  0.91970  0.26890  Biso   1.000  H
  H267     1.0000 0.34180  0.58030  0.26890  Biso   1.000  H
  H268     1.0000 0.15820  0.08030  0.73110  Biso   1.000  H
  C289     1.0000 0.64100  0.47860  0.78210  Biso   1.000  C
  C290     1.0000 0.85900  0.97860  0.21790  Biso   1.000  C
  C291     1.0000 0.35900  0.52140  0.21790  Biso   1.000  C
  C292     1.0000 0.14100  0.02140  0.78210  Biso   1.000  C
  H269     1.0000 0.67360  0.50330  0.79730  Biso   1.000  H
  H270     1.0000 0.82640  0.00330  0.20270  Biso   1.000  H
  H271     1.0000 0.32640  0.49670  0.20270  Biso   1.000  H
  H272     1.0000 0.17360  0.99670  0.79730  Biso   1.000  H
  C293     1.0000 0.56890  0.38670  0.88719  Biso   1.000  C
  C294     1.0000 0.93110  0.88670  0.11281  Biso   1.000  C
  C295     1.0000 0.43110  0.61330  0.11281  Biso   1.000  C
  C296     1.0000 0.06890  0.11330  0.88719  Biso   1.000  C
  C297     1.0000 0.53270  0.33840  0.89579  Biso   1.000  C
  C298     1.0000 0.96730  0.83840  0.10421  Biso   1.000  C
  C299     1.0000 0.46730  0.66160  0.10421  Biso   1.000  C
  C300     1.0000 0.03270  0.16160  0.89579  Biso   1.000  C
  H273     1.0000 0.50020  0.35920  0.89120  Biso   1.000  H
  H274     1.0000 0.99980  0.85920  0.10880  Biso   1.000  H
  H275     1.0000 0.49980  0.64080  0.10880  Biso   1.000  H
  H276     1.0000 0.00020  0.14080  0.89120  Biso   1.000  H
  C301     1.0000 0.54650  0.25800  0.91150  Biso   1.000  C
  C302     1.0000 0.95350  0.75800  0.08850  Biso   1.000  C
  C303     1.0000 0.45350  0.74200  0.08850  Biso   1.000  C
  C304     1.0000 0.04650  0.24200  0.91150  Biso   1.000  C
  H277     1.0000 0.52330  0.22620  0.91870  Biso   1.000  H
  H278     1.0000 0.97670  0.72620  0.08130  Biso   1.000  H
  H279     1.0000 0.47670  0.77380  0.08130  Biso   1.000  H
  H280     1.0000 0.02330  0.27380  0.91870  Biso   1.000  H
  C305     1.0000 0.59210  0.22590  0.91650  Biso   1.000  C
  C306     1.0000 0.90790  0.72590  0.08350  Biso   1.000  C
  C307     1.0000 0.40790  0.77410  0.08350  Biso   1.000  C
  C308     1.0000 0.09210  0.27410  0.91650  Biso   1.000  C
  H281     1.0000 0.59970  0.17160  0.92540  Biso   1.000  H
  H282     1.0000 0.90030  0.67160  0.07460  Biso   1.000  H
  H283     1.0000 0.40030  0.82840  0.07460  Biso   1.000  H
  H284     1.0000 0.09970  0.32840  0.92540  Biso   1.000  H
  C309     1.0000 0.62790  0.27380  0.90840  Biso   1.000  C
  C310     1.0000 0.87210  0.77380  0.09160  Biso   1.000  C
  C311     1.0000 0.37210  0.72620  0.09160  Biso   1.000  C
  C312     1.0000 0.12790  0.22620  0.90840  Biso   1.000  C
  H285     1.0000 0.66010  0.25190  0.91270  Biso   1.000  H
  H286     1.0000 0.83990  0.75190  0.08730  Biso   1.000  H
  H287     1.0000 0.33990  0.74810  0.08730  Biso   1.000  H
  H288     1.0000 0.16010  0.24810  0.91270  Biso   1.000  H
  C313     1.0000 0.61670  0.35320  0.89410  Biso   1.000  C
  C314     1.0000 0.88330  0.85320  0.10590  Biso   1.000  C
  C315     1.0000 0.38330  0.64680  0.10590  Biso   1.000  C
  C316     1.0000 0.11670  0.14680  0.89410  Biso   1.000  C
  H289     1.0000 0.64130  0.38490  0.88890  Biso   1.000  H
  H290     1.0000 0.85870  0.88490  0.11110  Biso   1.000  H
  H291     1.0000 0.35870  0.61510  0.11110  Biso   1.000  H
  H292     1.0000 0.14130  0.11510  0.88890  Biso   1.000  H
  C317     1.0000 0.58470  0.74820  0.88770  Biso   1.000  C
  C318     1.0000 0.91530  0.24820  0.11230  Biso   1.000  C
  C319     1.0000 0.41530  0.25180  0.11230  Biso   1.000  C
  C320     1.0000 0.08470  0.75180  0.88770  Biso   1.000  C
  C321     1.0000 0.53520  0.77350  0.87410  Biso   1.000  C
  C322     1.0000 0.96480  0.27350  0.12590  Biso   1.000  C
  C323     1.0000 0.46480  0.22650  0.12590  Biso   1.000  C
  C324     1.0000 0.03520  0.72650  0.87410  Biso   1.000  C
  C325     1.0000 0.51190  0.80450  0.90710  Biso   1.000  C
  C326     1.0000 0.98810  0.30450  0.09290  Biso   1.000  C
  C327     1.0000 0.48810  0.19550  0.09290  Biso   1.000  C
  C328     1.0000 0.01190  0.69550  0.90710  Biso   1.000  C
  H293     1.0000 0.51770  0.86280  0.91140  Biso   1.000  H
  H294     1.0000 0.98230  0.36280  0.08860  Biso   1.000  H
  H295     1.0000 0.48230  0.13720  0.08860  Biso   1.000  H
  H296     1.0000 0.01770  0.63720  0.91140  Biso   1.000  H
  H297     1.0000 0.52930  0.77870  0.93820  Biso   1.000  H
  H298     1.0000 0.97070  0.27870  0.06180  Biso   1.000  H
  H299     1.0000 0.47070  0.22130  0.06180  Biso   1.000  H
  H300     1.0000 0.02930  0.72130  0.93820  Biso   1.000  H
  C329     1.0000 0.45290  0.78700  0.88720  Biso   1.000  C
  C330     1.0000 0.04710  0.28700  0.11280  Biso   1.000  C
  C331     1.0000 0.54710  0.21300  0.11280  Biso   1.000  C
  C332     1.0000 0.95290  0.71300  0.88720  Biso   1.000  C
  H301     1.0000 0.44700  0.72850  0.88560  Biso   1.000  H
  H302     1.0000 0.05300  0.22850  0.11440  Biso   1.000  H
  H303     1.0000 0.55300  0.27150  0.11440  Biso   1.000  H
  H304     1.0000 0.94700  0.77150  0.88560  Biso   1.000  H
  H305     1.0000 0.43870  0.81020  0.90840  Biso   1.000  H
  H306     1.0000 0.06130  0.31020  0.09160  Biso   1.000  H
  H307     1.0000 0.56130  0.18980  0.09160  Biso   1.000  H
  H308     1.0000 0.93870  0.68980  0.90840  Biso   1.000  H
  C333     1.0000 0.42610  0.82330  0.83840  Biso   1.000  C
  C334     1.0000 0.07390  0.32330  0.16160  Biso   1.000  C
  C335     1.0000 0.57390  0.17670  0.16160  Biso   1.000  C
  C336     1.0000 0.92610  0.67670  0.83840  Biso   1.000  C
  H309     1.0000 0.43360  0.88120  0.84000  Biso   1.000  H
  H310     1.0000 0.06640  0.38120  0.16000  Biso   1.000  H
  H311     1.0000 0.56640  0.11880  0.16000  Biso   1.000  H
  H312     1.0000 0.93360  0.61880  0.84000  Biso   1.000  H
  H313     1.0000 0.38860  0.81680  0.82730  Biso   1.000  H
  H314     1.0000 0.11140  0.31680  0.17270  Biso   1.000  H
  H315     1.0000 0.61140  0.18320  0.17270  Biso   1.000  H
  H316     1.0000 0.88860  0.68320  0.82730  Biso   1.000  H
  C337     1.0000 0.44340  0.78370  0.80240  Biso   1.000  C
  C338     1.0000 0.05660  0.28370  0.19760  Biso   1.000  C
  C339     1.0000 0.55660  0.21630  0.19760  Biso   1.000  C
  C340     1.0000 0.94340  0.71630  0.80240  Biso   1.000  C
  H317     1.0000 0.43610  0.82080  0.77580  Biso   1.000  H
  H318     1.0000 0.06390  0.32080  0.22420  Biso   1.000  H
  H319     1.0000 0.56390  0.17920  0.22420  Biso   1.000  H
  H320     1.0000 0.93610  0.67920  0.77580  Biso   1.000  H
  H321     1.0000 0.42280  0.73480  0.78990  Biso   1.000  H
  H322     1.0000 0.07720  0.23480  0.21010  Biso   1.000  H
  H323     1.0000 0.57720  0.26520  0.21010  Biso   1.000  H
  H324     1.0000 0.92280  0.76520  0.78990  Biso   1.000  H
  C341     1.0000 0.50160  0.76070  0.82310  Biso   1.000  C
  C342     1.0000 0.99840  0.26070  0.17690  Biso   1.000  C
  C343     1.0000 0.49840  0.23930  0.17690  Biso   1.000  C
  C344     1.0000 0.00160  0.73930  0.82310  Biso   1.000  C
  C345     1.0000 0.52620  0.72620  0.79810  Biso   1.000  C
  C346     1.0000 0.97380  0.22620  0.20190  Biso   1.000  C
  C347     1.0000 0.47380  0.27380  0.20190  Biso   1.000  C
  C348     1.0000 0.02620  0.77380  0.79810  Biso   1.000  C
  C349     1.0000 0.50860  0.69820  0.74840  Biso   1.000  C
  C350     1.0000 0.99140  0.19820  0.25160  Biso   1.000  C
  C351     1.0000 0.49140  0.30180  0.25160  Biso   1.000  C
  C352     1.0000 0.00860  0.80180  0.74840  Biso   1.000  C
  C353     1.0000 0.46060  0.71570  0.71110  Biso   1.000  C
  C354     1.0000 0.03940  0.21570  0.28890  Biso   1.000  C
  C355     1.0000 0.53940  0.28430  0.28890  Biso   1.000  C
  C356     1.0000 0.96060  0.78430  0.71110  Biso   1.000  C
  H325     1.0000 0.43610  0.74740  0.71650  Biso   1.000  H
  H326     1.0000 0.06390  0.24740  0.28350  Biso   1.000  H
  H327     1.0000 0.56390  0.25260  0.28350  Biso   1.000  H
  H328     1.0000 0.93610  0.75260  0.71650  Biso   1.000  H
  C357     1.0000 0.44960  0.68550  0.66600  Biso   1.000  C
  C358     1.0000 0.05040  0.18550  0.33400  Biso   1.000  C
  C359     1.0000 0.55040  0.31450  0.33400  Biso   1.000  C
  C360     1.0000 0.94960  0.81450  0.66600  Biso   1.000  C
  H329     1.0000 0.41740  0.69690  0.64110  Biso   1.000  H
  H330     1.0000 0.08260  0.19690  0.35890  Biso   1.000  H
  H331     1.0000 0.58260  0.30310  0.35890  Biso   1.000  H
  H332     1.0000 0.91740  0.80310  0.64110  Biso   1.000  H
  C361     1.0000 0.48490  0.63910  0.65670  Biso   1.000  C
  C362     1.0000 0.01510  0.13910  0.34330  Biso   1.000  C
  C363     1.0000 0.51510  0.36090  0.34330  Biso   1.000  C
  C364     1.0000 0.98490  0.86090  0.65670  Biso   1.000  C
  H333     1.0000 0.47720  0.61850  0.62620  Biso   1.000  H
  H334     1.0000 0.02280  0.11850  0.37380  Biso   1.000  H
  H335     1.0000 0.52280  0.38150  0.37380  Biso   1.000  H
  H336     1.0000 0.97720  0.88150  0.62620  Biso   1.000  H
  C365     1.0000 0.53340  0.62430  0.69550  Biso   1.000  C
  C366     1.0000 0.96660  0.12430  0.30450  Biso   1.000  C
  C367     1.0000 0.46660  0.37570  0.30450  Biso   1.000  C
  C368     1.0000 0.03340  0.87570  0.69550  Biso   1.000  C
  H337     1.0000 0.55820  0.59320  0.69040  Biso   1.000  H
  H338     1.0000 0.94180  0.09320  0.30960  Biso   1.000  H
  H339     1.0000 0.44180  0.40680  0.30960  Biso   1.000  H
  H340     1.0000 0.05820  0.90680  0.69040  Biso   1.000  H
  C369     1.0000 0.62590  0.74990  0.93660  Biso   1.000  C
  C370     1.0000 0.87410  0.24990  0.06340  Biso   1.000  C
  C371     1.0000 0.37410  0.25010  0.06340  Biso   1.000  C
  C372     1.0000 0.12590  0.75010  0.93660  Biso   1.000  C
  C373     1.0000 0.64790  0.82260  0.95960  Biso   1.000  C
  C374     1.0000 0.85210  0.32260  0.04040  Biso   1.000  C
  C375     1.0000 0.35210  0.17740  0.04040  Biso   1.000  C
  C376     1.0000 0.14790  0.67740  0.95960  Biso   1.000  C
  H341     1.0000 0.63550  0.87230  0.94460  Biso   1.000  H
  H342     1.0000 0.86450  0.37230  0.05540  Biso   1.000  H
  H343     1.0000 0.36450  0.12770  0.05540  Biso   1.000  H
  H344     1.0000 0.13550  0.62770  0.94460  Biso   1.000  H
  C377     1.0000 0.68830  0.82060  0.00490  Biso   1.000  C
  C378     1.0000 0.81170  0.32060  0.99510  Biso   1.000  C
  C379     1.0000 0.31170  0.17940  0.99510  Biso   1.000  C
  C380     1.0000 0.18830  0.67940  0.00490  Biso   1.000  C
  H345     1.0000 0.70250  0.86860  0.02130  Biso   1.000  H
  H346     1.0000 0.79750  0.36860  0.97870  Biso   1.000  H
  H347     1.0000 0.29750  0.13140  0.97870  Biso   1.000  H
  H348     1.0000 0.20250  0.63140  0.02130  Biso   1.000  H
  C381     1.0000 0.70710  0.74630  0.02510  Biso   1.000  C
  C382     1.0000 0.79290  0.24630  0.97490  Biso   1.000  C
  C383     1.0000 0.29290  0.25370  0.97490  Biso   1.000  C
  C384     1.0000 0.20710  0.75370  0.02510  Biso   1.000  C
  H349     1.0000 0.73510  0.74330  0.05500  Biso   1.000  H
  H350     1.0000 0.76490  0.24330  0.94500  Biso   1.000  H
  H351     1.0000 0.26490  0.25670  0.94500  Biso   1.000  H
  H352     1.0000 0.23510  0.75670  0.05500  Biso   1.000  H
  C385     1.0000 0.68400  0.67590  0.00080  Biso   1.000  C
  C386     1.0000 0.81600  0.17590  0.99920  Biso   1.000  C
  C387     1.0000 0.31600  0.32410  0.99920  Biso   1.000  C
  C388     1.0000 0.18400  0.82410  0.00080  Biso   1.000  C
  H353     1.0000 0.69730  0.62580  0.01490  Biso   1.000  H
  H354     1.0000 0.80270  0.12580  0.98510  Biso   1.000  H
  H355     1.0000 0.30270  0.37420  0.98510  Biso   1.000  H
  H356     1.0000 0.19730  0.87420  0.01490  Biso   1.000  H
  C389     1.0000 0.63910  0.76100  0.82630  Biso   1.000  C
  C390     1.0000 0.86090  0.26100  0.17370  Biso   1.000  C
  C391     1.0000 0.36090  0.23900  0.17370  Biso   1.000  C
  C392     1.0000 0.13910  0.73900  0.82630  Biso   1.000  C
  C393     1.0000 0.66640  0.72590  0.80290  Biso   1.000  C
  C394     1.0000 0.83360  0.22590  0.19710  Biso   1.000  C
  C395     1.0000 0.33360  0.27410  0.19710  Biso   1.000  C
  C396     1.0000 0.16640  0.77410  0.80290  Biso   1.000  C
  H357     1.0000 0.65890  0.67200  0.79290  Biso   1.000  H
  H358     1.0000 0.84110  0.17200  0.20710  Biso   1.000  H
  H359     1.0000 0.34110  0.32800  0.20710  Biso   1.000  H
  H360     1.0000 0.15890  0.82800  0.79290  Biso   1.000  H
  C397     1.0000 0.70440  0.76610  0.79340  Biso   1.000  C
  C398     1.0000 0.79560  0.26610  0.20660  Biso   1.000  C
  C399     1.0000 0.29560  0.23390  0.20660  Biso   1.000  C
  C400     1.0000 0.20440  0.73390  0.79340  Biso   1.000  C
  H361     1.0000 0.72240  0.73970  0.77800  Biso   1.000  H
  H362     1.0000 0.77760  0.23970  0.22200  Biso   1.000  H
  H363     1.0000 0.27760  0.26030  0.22200  Biso   1.000  H
  H364     1.0000 0.22240  0.76030  0.77800  Biso   1.000  H
  C401     1.0000 0.71480  0.84700  0.80760  Biso   1.000  C
  C402     1.0000 0.78520  0.34700  0.19240  Biso   1.000  C
  C403     1.0000 0.28520  0.15300  0.19240  Biso   1.000  C
  C404     1.0000 0.21480  0.65300  0.80760  Biso   1.000  C
  H365     1.0000 0.73960  0.87620  0.80130  Biso   1.000  H
  H366     1.0000 0.76040  0.37620  0.19870  Biso   1.000  H
  H367     1.0000 0.26040  0.12380  0.19870  Biso   1.000  H
  H368     1.0000 0.23960  0.62380  0.80130  Biso   1.000  H
  C405     1.0000 0.68810  0.88350  0.83100  Biso   1.000  C
  C406     1.0000 0.81190  0.38350  0.16900  Biso   1.000  C
  C407     1.0000 0.31190  0.11650  0.16900  Biso   1.000  C
  C408     1.0000 0.18810  0.61650  0.83100  Biso   1.000  C
  H369     1.0000 0.69530  0.93760  0.84080  Biso   1.000  H
  H370     1.0000 0.80470  0.43760  0.15920  Biso   1.000  H
  H371     1.0000 0.30470  0.06240  0.15920  Biso   1.000  H
  H372     1.0000 0.19530  0.56240  0.84080  Biso   1.000  H
  C409     1.0000 0.65000  0.84060  0.84050  Biso   1.000  C
  C410     1.0000 0.85000  0.34060  0.15950  Biso   1.000  C
  C411     1.0000 0.35000  0.15940  0.15950  Biso   1.000  C
  C412     1.0000 0.15000  0.65940  0.84050  Biso   1.000  C
  H373     1.0000 0.63220  0.86630  0.85630  Biso   1.000  H
  H374     1.0000 0.86780  0.36630  0.14370  Biso   1.000  H
  H375     1.0000 0.36780  0.13370  0.14370  Biso   1.000  H
  H376     1.0000 0.13220  0.63370  0.85630  Biso   1.000  H
  C413     1.0000 0.73960  0.56910  0.90960  Biso   1.000  C
  C414     1.0000 0.76040  0.06910  0.09040  Biso   1.000  C
  C415     1.0000 0.26040  0.43090  0.09040  Biso   1.000  C
  C416     1.0000 0.23960  0.93090  0.90960  Biso   1.000  C
  C417     1.0000 0.79710  0.57540  0.93310  Biso   1.000  C
  C418     1.0000 0.70290  0.07540  0.06690  Biso   1.000  C
  C419     1.0000 0.20290  0.42460  0.06690  Biso   1.000  C
  C420     1.0000 0.29710  0.92460  0.93310  Biso   1.000  C
  H377     1.0000 0.81200  0.53680  0.91830  Biso   1.000  H
  H378     1.0000 0.68800  0.03680  0.08170  Biso   1.000  H
  H379     1.0000 0.18800  0.46320  0.08170  Biso   1.000  H
  H380     1.0000 0.31200  0.96320  0.91830  Biso   1.000  H
  H381     1.0000 0.80890  0.56030  0.96660  Biso   1.000  H
  H382     1.0000 0.69110  0.06030  0.03340  Biso   1.000  H
  H383     1.0000 0.19110  0.43970  0.03340  Biso   1.000  H
  H384     1.0000 0.30890  0.93970  0.96660  Biso   1.000  H
  C421     1.0000 0.81690  0.65880  0.93020  Biso   1.000  C
  C422     1.0000 0.68310  0.15880  0.06980  Biso   1.000  C
  C423     1.0000 0.18310  0.34120  0.06980  Biso   1.000  C
  C424     1.0000 0.31690  0.84120  0.93020  Biso   1.000  C
  H385     1.0000 0.85430  0.65970  0.94970  Biso   1.000  H
  H386     1.0000 0.64570  0.15970  0.05030  Biso   1.000  H
  H387     1.0000 0.14570  0.34030  0.05030  Biso   1.000  H
  H388     1.0000 0.35430  0.84030  0.94970  Biso   1.000  H
  H389     1.0000 0.81150  0.66860  0.89730  Biso   1.000  H
  H390     1.0000 0.68850  0.16860  0.10270  Biso   1.000  H
  H391     1.0000 0.18850  0.33140  0.10270  Biso   1.000  H
  H392     1.0000 0.31150  0.83140  0.89730  Biso   1.000  H
  C425     1.0000 0.79380  0.72450  0.94510  Biso   1.000  C
  C426     1.0000 0.70620  0.22450  0.05490  Biso   1.000  C
  C427     1.0000 0.20620  0.27550  0.05490  Biso   1.000  C
  C428     1.0000 0.29380  0.77550  0.94510  Biso   1.000  C
  H393     1.0000 0.78970  0.70750  0.97370  Biso   1.000  H
  H394     1.0000 0.71030  0.20750  0.02630  Biso   1.000  H
  H395     1.0000 0.21030  0.29250  0.02630  Biso   1.000  H
  H396     1.0000 0.28970  0.79250  0.97370  Biso   1.000  H
  H397     1.0000 0.75900  0.73400  0.92030  Biso   1.000  H
  H398     1.0000 0.74100  0.23400  0.07970  Biso   1.000  H
  H399     1.0000 0.24100  0.26600  0.07970  Biso   1.000  H
  H400     1.0000 0.25900  0.76600  0.92030  Biso   1.000  H
  C429     1.0000 0.82770  0.93710  0.99720  Biso   1.000  C
  C430     1.0000 0.67230  0.43710  0.00280  Biso   1.000  C
  C431     1.0000 0.17230  0.06290  0.00280  Biso   1.000  C
  C432     1.0000 0.32770  0.56290  0.99720  Biso   1.000  C
  C433     1.0000 0.79560  0.86780  0.97230  Biso   1.000  C
  C434     1.0000 0.70440  0.36780  0.02770  Biso   1.000  C
  C435     1.0000 0.20440  0.13220  0.02770  Biso   1.000  C
  C436     1.0000 0.29560  0.63220  0.97230  Biso   1.000  C
  H401     1.0000 0.76570  0.88780  0.94470  Biso   1.000  H
  H402     1.0000 0.73430  0.38780  0.05530  Biso   1.000  H
  H403     1.0000 0.23430  0.11220  0.05530  Biso   1.000  H
  H404     1.0000 0.26570  0.61220  0.94470  Biso   1.000  H
  H405     1.0000 0.78240  0.84200  0.99360  Biso   1.000  H
  H406     1.0000 0.71760  0.34200  0.00640  Biso   1.000  H
  H407     1.0000 0.21760  0.15800  0.00640  Biso   1.000  H
  H408     1.0000 0.28240  0.65800  0.99360  Biso   1.000  H
  C437     1.0000 0.82320  0.80380  0.95570  Biso   1.000  C
  C438     1.0000 0.67680  0.30380  0.04430  Biso   1.000  C
  C439     1.0000 0.17680  0.19620  0.04430  Biso   1.000  C
  C440     1.0000 0.32320  0.69620  0.95570  Biso   1.000  C
  H409     1.0000 0.82620  0.82300  0.92700  Biso   1.000  H
  H410     1.0000 0.67380  0.32300  0.07300  Biso   1.000  H
  H411     1.0000 0.17380  0.17700  0.07300  Biso   1.000  H
  H412     1.0000 0.32620  0.67700  0.92700  Biso   1.000  H
  H413     1.0000 0.85820  0.79530  0.98030  Biso   1.000  H
  H414     1.0000 0.64180  0.29530  0.01970  Biso   1.000  H
  H415     1.0000 0.14180  0.20470  0.01970  Biso   1.000  H
  H416     1.0000 0.35820  0.70470  0.98030  Biso   1.000  H
  B1       1.0000 0.59140  0.75400  0.08810  Biso   1.000  B
  B2       1.0000 0.90860  0.25400  0.91190  Biso   1.000  B
  B3       1.0000 0.40860  0.24600  0.91190  Biso   1.000  B
  B4       1.0000 0.09140  0.74600  0.08810  Biso   1.000  B
  F1       1.0000 0.58548  0.67370  0.10017  Biso   1.000  F
  F2       1.0000 0.91452  0.17370  0.89983  Biso   1.000  F
  F3       1.0000 0.41452  0.32630  0.89983  Biso   1.000  F
  F4       1.0000 0.08548  0.82630  0.10017  Biso   1.000  F
  F5       1.0000 0.59600  0.80380  0.12330  Biso   1.000  F
  F6       1.0000 0.90400  0.30380  0.87670  Biso   1.000  F
  F7       1.0000 0.40400  0.19620  0.87670  Biso   1.000  F
  F8       1.0000 0.09600  0.69620  0.12330  Biso   1.000  F
  F9       1.0000 0.63080  0.75930  0.07520  Biso   1.000  F
  F10      1.0000 0.86920  0.25930  0.92480  Biso   1.000  F
  F11      1.0000 0.36920  0.24070  0.92480  Biso   1.000  F
  F12      1.0000 0.13080  0.74070  0.07520  Biso   1.000  F
  F13      1.0000 0.54850  0.77550  0.04810  Biso   1.000  F
  F14      1.0000 0.95150  0.27550  0.95190  Biso   1.000  F
  F15      1.0000 0.45150  0.22450  0.95190  Biso   1.000  F
  F16      1.0000 0.04850  0.72450  0.04810  Biso   1.000  F
  B5       1.0000 0.19750  0.13730  0.42160  Biso   1.000  B
  B6       1.0000 0.30250  0.63730  0.57840  Biso   1.000  B
  B7       1.0000 0.80250  0.86270  0.57840  Biso   1.000  B
  B8       1.0000 0.69750  0.36270  0.42160  Biso   1.000  B
  F17      1.0000 0.17820  0.13010  0.36930  Biso   1.000  F
  F18      1.0000 0.32180  0.63010  0.63070  Biso   1.000  F
  F19      1.0000 0.82180  0.86990  0.63070  Biso   1.000  F
  F20      1.0000 0.67820  0.36990  0.36930  Biso   1.000  F
  F21      1.0000 0.16720  0.17370  0.42950  Biso   1.000  F
  F22      1.0000 0.33280  0.67370  0.57050  Biso   1.000  F
  F23      1.0000 0.83280  0.82630  0.57050  Biso   1.000  F
  F24      1.0000 0.66720  0.32630  0.42950  Biso   1.000  F
  F25      1.0000 0.24320  0.16740  0.44260  Biso   1.000  F
  F26      1.0000 0.25680  0.66740  0.55740  Biso   1.000  F
  F27      1.0000 0.75680  0.83260  0.55740  Biso   1.000  F
  F28      1.0000 0.74320  0.33260  0.44260  Biso   1.000  F
  F29      1.0000 0.20880  0.06270  0.43100  Biso   1.000  F
  F30      1.0000 0.29120  0.56270  0.56900  Biso   1.000  F
  F31      1.0000 0.79120  0.93730  0.56900  Biso   1.000  F
  F32      1.0000 0.70880  0.43730  0.43100  Biso   1.000  F
  B9       1.0000 0.82960  0.82550  0.34960  Biso   1.000  B
  B10      1.0000 0.67040  0.32550  0.65040  Biso   1.000  B
  B11      1.0000 0.17040  0.17450  0.65040  Biso   1.000  B
  B12      1.0000 0.32960  0.67450  0.34960  Biso   1.000  B
  F33      1.0000 0.83470  0.77280  0.38650  Biso   1.000  F
  F34      1.0000 0.66530  0.27280  0.61350  Biso   1.000  F
  F35      1.0000 0.16530  0.22720  0.61350  Biso   1.000  F
  F36      1.0000 0.33470  0.72720  0.38650  Biso   1.000  F
  F37      1.0000 0.87510  0.86810  0.36640  Biso   1.000  F
  F38      1.0000 0.62490  0.36810  0.63360  Biso   1.000  F
  F39      1.0000 0.12490  0.13190  0.63360  Biso   1.000  F
  F40      1.0000 0.37510  0.63190  0.36640  Biso   1.000  F
  F41      1.0000 0.79200  0.87680  0.33830  Biso   1.000  F
  F42      1.0000 0.70800  0.37680  0.66170  Biso   1.000  F
  F43      1.0000 0.20800  0.12320  0.66170  Biso   1.000  F
  F44      1.0000 0.29200  0.62320  0.33830  Biso   1.000  F
  F45      1.0000 0.82730  0.78290  0.31090  Biso   1.000  F
  F46      1.0000 0.67270  0.28290  0.68910  Biso   1.000  F
  F47      1.0000 0.17270  0.21710  0.68910  Biso   1.000  F
  F48      1.0000 0.32730  0.71710  0.31090  Biso   1.000  F
  B13      1.0000 0.80730  0.54180  0.06110  Biso   1.000  B
  B14      1.0000 0.69270  0.04180  0.93890  Biso   1.000  B
  B15      1.0000 0.19270  0.45820  0.93890  Biso   1.000  B
  B16      1.0000 0.30730  0.95820  0.06110  Biso   1.000  B
  F49      1.0000 0.84830  0.50970  0.09320  Biso   1.000  F
  F50      1.0000 0.65170  0.00970  0.90680  Biso   1.000  F
  F51      1.0000 0.15170  0.49030  0.90680  Biso   1.000  F
  F52      1.0000 0.34830  0.99030  0.09320  Biso   1.000  F
  F53      1.0000 0.80560  0.61820  0.05270  Biso   1.000  F
  F54      1.0000 0.69440  0.11820  0.94730  Biso   1.000  F
  F55      1.0000 0.19440  0.38180  0.94730  Biso   1.000  F
  F56      1.0000 0.30560  0.88180  0.05270  Biso   1.000  F
  F57      1.0000 0.77883  0.49760  0.02253  Biso   1.000  F
  F58      1.0000 0.72117  0.99760  0.97747  Biso   1.000  F
  F59      1.0000 0.22117  0.50240  0.97747  Biso   1.000  F
  F60      1.0000 0.27883  0.00240  0.02253  Biso   1.000  F
  F61      1.0000 0.77210  0.54300  0.08390  Biso   1.000  F
  F62      1.0000 0.72790  0.04300  0.91610  Biso   1.000  F
  F63      1.0000 0.22790  0.45700  0.91610  Biso   1.000  F
  F64      1.0000 0.27210  0.95700  0.08390  Biso   1.000  F
