data_image0
_cell_length_a       35.7496
_cell_length_b       35.7496
_cell_length_c       12.2967
_cell_angle_alpha    90
_cell_angle_beta     90
_cell_angle_gamma    120

_symmetry_space_group_name_H-M    "P 1"
_symmetry_int_tables_number       1

loop_
  _symmetry_equiv_pos_as_xyz
  'x, y, z'

loop_
  _atom_site_label
  _atom_site_occupancy
  _atom_site_fract_x
  _atom_site_fract_y
  _atom_site_fract_z
  _atom_site_thermal_displace_type
  _atom_site_B_iso_or_equiv
  _atom_site_type_symbol
  Hg1      1.0000 0.44735  0.17845  0.61717  Biso   1.000  Hg
  Hg2      1.0000 0.82155  0.26890  0.61717  Biso   1.000  Hg
  Hg3      1.0000 0.73110  0.55265  0.61717  Biso   1.000  Hg
  Hg4      1.0000 0.11402  0.51178  0.95050  Biso   1.000  Hg
  Hg5      1.0000 0.48822  0.60223  0.95050  Biso   1.000  Hg
  Hg6      1.0000 0.39777  0.88598  0.95050  Biso   1.000  Hg
  Hg7      1.0000 0.78068  0.84512  0.28384  Biso   1.000  Hg
  Hg8      1.0000 0.15488  0.93557  0.28384  Biso   1.000  Hg
  Hg9      1.0000 0.06443  0.21932  0.28384  Biso   1.000  Hg
  Hg10     1.0000 0.55265  0.82155  0.38283  Biso   1.000  Hg
  Hg11     1.0000 0.17845  0.73110  0.38283  Biso   1.000  Hg
  Hg12     1.0000 0.26890  0.44735  0.38283  Biso   1.000  Hg
  Hg13     1.0000 0.21932  0.15488  0.71616  Biso   1.000  Hg
  Hg14     1.0000 0.84512  0.06443  0.71616  Biso   1.000  Hg
  Hg15     1.0000 0.93557  0.78068  0.71616  Biso   1.000  Hg
  Hg16     1.0000 0.88598  0.48822  0.04950  Biso   1.000  Hg
  Hg17     1.0000 0.51178  0.39777  0.04950  Biso   1.000  Hg
  Hg18     1.0000 0.60223  0.11402  0.04950  Biso   1.000  Hg
  Cu1      1.0000 0.42977  0.18302  0.94961  Biso   1.000  Cu
  Cu2      1.0000 0.81698  0.24675  0.94961  Biso   1.000  Cu
  Cu3      1.0000 0.75325  0.57023  0.94961  Biso   1.000  Cu
  Cu4      1.0000 0.09644  0.51635  0.28294  Biso   1.000  Cu
  Cu5      1.0000 0.48365  0.58008  0.28294  Biso   1.000  Cu
  Cu6      1.0000 0.41992  0.90356  0.28294  Biso   1.000  Cu
  Cu7      1.0000 0.76310  0.84969  0.61628  Biso   1.000  Cu
  Cu8      1.0000 0.15031  0.91342  0.61628  Biso   1.000  Cu
  Cu9      1.0000 0.08658  0.23690  0.61628  Biso   1.000  Cu
  Cu10     1.0000 0.57023  0.81698  0.05039  Biso   1.000  Cu
  Cu11     1.0000 0.18302  0.75325  0.05039  Biso   1.000  Cu
  Cu12     1.0000 0.24675  0.42977  0.05039  Biso   1.000  Cu
  Cu13     1.0000 0.23690  0.15031  0.38372  Biso   1.000  Cu
  Cu14     1.0000 0.84969  0.08658  0.38372  Biso   1.000  Cu
  Cu15     1.0000 0.91342  0.76310  0.38372  Biso   1.000  Cu
  Cu16     1.0000 0.90356  0.48365  0.71706  Biso   1.000  Cu
  Cu17     1.0000 0.51635  0.41992  0.71706  Biso   1.000  Cu
  Cu18     1.0000 0.58008  0.09644  0.71706  Biso   1.000  Cu
  Cu19     1.0000 0.37558  0.20267  0.69040  Biso   1.000  Cu
  Cu20     1.0000 0.79733  0.17291  0.69040  Biso   1.000  Cu
  Cu21     1.0000 0.82709  0.62442  0.69040  Biso   1.000  Cu
  Cu22     1.0000 0.04225  0.53600  0.02373  Biso   1.000  Cu
  Cu23     1.0000 0.46400  0.50624  0.02373  Biso   1.000  Cu
  Cu24     1.0000 0.49376  0.95775  0.02373  Biso   1.000  Cu
  Cu25     1.0000 0.70891  0.86934  0.35707  Biso   1.000  Cu
  Cu26     1.0000 0.13066  0.83958  0.35707  Biso   1.000  Cu
  Cu27     1.0000 0.16042  0.29109  0.35707  Biso   1.000  Cu
  Cu28     1.0000 0.62442  0.79733  0.30960  Biso   1.000  Cu
  Cu29     1.0000 0.20267  0.82709  0.30960  Biso   1.000  Cu
  Cu30     1.0000 0.17291  0.37558  0.30960  Biso   1.000  Cu
  Cu31     1.0000 0.29109  0.13066  0.64293  Biso   1.000  Cu
  Cu32     1.0000 0.86934  0.16042  0.64293  Biso   1.000  Cu
  Cu33     1.0000 0.83958  0.70891  0.64293  Biso   1.000  Cu
  Cu34     1.0000 0.95775  0.46400  0.97627  Biso   1.000  Cu
  Cu35     1.0000 0.53600  0.49376  0.97627  Biso   1.000  Cu
  Cu36     1.0000 0.50624  0.04225  0.97627  Biso   1.000  Cu
  I1       1.0000 0.49151  0.19646  0.80995  Biso   1.000  I
  I2       1.0000 0.80354  0.29505  0.80995  Biso   1.000  I
  I3       1.0000 0.70495  0.50849  0.80995  Biso   1.000  I
  I4       1.0000 0.15818  0.52979  0.14328  Biso   1.000  I
  I5       1.0000 0.47021  0.62838  0.14328  Biso   1.000  I
  I6       1.0000 0.37162  0.84182  0.14328  Biso   1.000  I
  I7       1.0000 0.82484  0.86313  0.47662  Biso   1.000  I
  I8       1.0000 0.13687  0.96172  0.47662  Biso   1.000  I
  I9       1.0000 0.03828  0.17516  0.47662  Biso   1.000  I
  I10      1.0000 0.50849  0.80354  0.19005  Biso   1.000  I
  I11      1.0000 0.19646  0.70495  0.19005  Biso   1.000  I
  I12      1.0000 0.29505  0.49151  0.19005  Biso   1.000  I
  I13      1.0000 0.17516  0.13687  0.52338  Biso   1.000  I
  I14      1.0000 0.86313  0.03828  0.52338  Biso   1.000  I
  I15      1.0000 0.96172  0.82484  0.52338  Biso   1.000  I
  I16      1.0000 0.84182  0.47021  0.85672  Biso   1.000  I
  I17      1.0000 0.52979  0.37162  0.85672  Biso   1.000  I
  I18      1.0000 0.62838  0.15818  0.85672  Biso   1.000  I
  I19      1.0000 0.35516  0.11795  0.68835  Biso   1.000  I
  I20      1.0000 0.88205  0.23721  0.68835  Biso   1.000  I
  I21      1.0000 0.76279  0.64484  0.68835  Biso   1.000  I
  I22      1.0000 0.02183  0.45128  0.02168  Biso   1.000  I
  I23      1.0000 0.54872  0.57054  0.02168  Biso   1.000  I
  I24      1.0000 0.42946  0.97817  0.02168  Biso   1.000  I
  I25      1.0000 0.68849  0.78462  0.35502  Biso   1.000  I
  I26      1.0000 0.21538  0.90388  0.35502  Biso   1.000  I
  I27      1.0000 0.09612  0.31151  0.35502  Biso   1.000  I
  I28      1.0000 0.64484  0.88205  0.31165  Biso   1.000  I
  I29      1.0000 0.11795  0.76279  0.31165  Biso   1.000  I
  I30      1.0000 0.23721  0.35516  0.31165  Biso   1.000  I
  I31      1.0000 0.31151  0.21538  0.64498  Biso   1.000  I
  I32      1.0000 0.78462  0.09612  0.64498  Biso   1.000  I
  I33      1.0000 0.90388  0.68849  0.64498  Biso   1.000  I
  I34      1.0000 0.97817  0.54872  0.97832  Biso   1.000  I
  I35      1.0000 0.45128  0.42946  0.97832  Biso   1.000  I
  I36      1.0000 0.57054  0.02183  0.97832  Biso   1.000  I
  I37      1.0000 0.43850  0.25040  0.56001  Biso   1.000  I
  I38      1.0000 0.74960  0.18810  0.56001  Biso   1.000  I
  I39      1.0000 0.81190  0.56150  0.56001  Biso   1.000  I
  I40      1.0000 0.10517  0.58373  0.89334  Biso   1.000  I
  I41      1.0000 0.41627  0.52143  0.89334  Biso   1.000  I
  I42      1.0000 0.47857  0.89483  0.89334  Biso   1.000  I
  I43      1.0000 0.77183  0.91707  0.22668  Biso   1.000  I
  I44      1.0000 0.08293  0.85477  0.22668  Biso   1.000  I
  I45      1.0000 0.14523  0.22817  0.22668  Biso   1.000  I
  I46      1.0000 0.56150  0.74960  0.43999  Biso   1.000  I
  I47      1.0000 0.25040  0.81190  0.43999  Biso   1.000  I
  I48      1.0000 0.18810  0.43850  0.43999  Biso   1.000  I
  I49      1.0000 0.22817  0.08293  0.77332  Biso   1.000  I
  I50      1.0000 0.91707  0.14523  0.77332  Biso   1.000  I
  I51      1.0000 0.85477  0.77183  0.77332  Biso   1.000  I
  I52      1.0000 0.89483  0.41627  0.10666  Biso   1.000  I
  I53      1.0000 0.58373  0.47857  0.10666  Biso   1.000  I
  I54      1.0000 0.52143  0.10517  0.10666  Biso   1.000  I
  I55      1.0000 0.45776  0.13541  0.45283  Biso   1.000  I
  I56      1.0000 0.86459  0.32235  0.45283  Biso   1.000  I
  I57      1.0000 0.67765  0.54224  0.45283  Biso   1.000  I
  I58      1.0000 0.12443  0.46874  0.78616  Biso   1.000  I
  I59      1.0000 0.53126  0.65568  0.78616  Biso   1.000  I
  I60      1.0000 0.34432  0.87557  0.78616  Biso   1.000  I
  I61      1.0000 0.79109  0.80208  0.11950  Biso   1.000  I
  I62      1.0000 0.19792  0.98902  0.11950  Biso   1.000  I
  I63      1.0000 0.01098  0.20891  0.11950  Biso   1.000  I
  I64      1.0000 0.54224  0.86459  0.54717  Biso   1.000  I
  I65      1.0000 0.13541  0.67765  0.54717  Biso   1.000  I
  I66      1.0000 0.32235  0.45776  0.54717  Biso   1.000  I
  I67      1.0000 0.20891  0.19792  0.88050  Biso   1.000  I
  I68      1.0000 0.80208  0.01098  0.88050  Biso   1.000  I
  I69      1.0000 0.98902  0.79109  0.88050  Biso   1.000  I
  I70      1.0000 0.87557  0.53126  0.21384  Biso   1.000  I
  I71      1.0000 0.46874  0.34432  0.21384  Biso   1.000  I
  I72      1.0000 0.65568  0.12443  0.21384  Biso   1.000  I
  S1       1.0000 0.39036  0.21038  0.87440  Biso   1.000  S
  S2       1.0000 0.78962  0.17998  0.87440  Biso   1.000  S
  S3       1.0000 0.82002  0.60964  0.87440  Biso   1.000  S
  S4       1.0000 0.05703  0.54371  0.20773  Biso   1.000  S
  S5       1.0000 0.45629  0.51331  0.20773  Biso   1.000  S
  S6       1.0000 0.48669  0.94297  0.20773  Biso   1.000  S
  S7       1.0000 0.72369  0.87705  0.54107  Biso   1.000  S
  S8       1.0000 0.12295  0.84665  0.54107  Biso   1.000  S
  S9       1.0000 0.15335  0.27631  0.54107  Biso   1.000  S
  S10      1.0000 0.60964  0.78962  0.12560  Biso   1.000  S
  S11      1.0000 0.21038  0.82002  0.12560  Biso   1.000  S
  S12      1.0000 0.17998  0.39036  0.12560  Biso   1.000  S
  S13      1.0000 0.27631  0.12295  0.45893  Biso   1.000  S
  S14      1.0000 0.87705  0.15335  0.45893  Biso   1.000  S
  S15      1.0000 0.84665  0.72369  0.45893  Biso   1.000  S
  S16      1.0000 0.94297  0.45629  0.79227  Biso   1.000  S
  S17      1.0000 0.54371  0.48669  0.79227  Biso   1.000  S
  S18      1.0000 0.51331  0.05703  0.79227  Biso   1.000  S
  S19      1.0000 0.27749  0.22237  0.33950  Biso   1.000  S
  S20      1.0000 0.77763  0.05512  0.33950  Biso   1.000  S
  S21      1.0000 0.94488  0.72251  0.33950  Biso   1.000  S
  S22      1.0000 0.94416  0.55570  0.67283  Biso   1.000  S
  S23      1.0000 0.44430  0.38845  0.67283  Biso   1.000  S
  S24      1.0000 0.61155  0.05584  0.67283  Biso   1.000  S
  S25      1.0000 0.61082  0.88904  0.00617  Biso   1.000  S
  S26      1.0000 0.11096  0.72179  0.00617  Biso   1.000  S
  S27      1.0000 0.27821  0.38918  0.00617  Biso   1.000  S
  S28      1.0000 0.72251  0.77763  0.66050  Biso   1.000  S
  S29      1.0000 0.22237  0.94488  0.66050  Biso   1.000  S
  S30      1.0000 0.05512  0.27749  0.66050  Biso   1.000  S
  S31      1.0000 0.38918  0.11096  0.99383  Biso   1.000  S
  S32      1.0000 0.88904  0.27821  0.99383  Biso   1.000  S
  S33      1.0000 0.72179  0.61082  0.99383  Biso   1.000  S
  S34      1.0000 0.05584  0.44430  0.32717  Biso   1.000  S
  S35      1.0000 0.55570  0.61155  0.32717  Biso   1.000  S
  S36      1.0000 0.38845  0.94416  0.32717  Biso   1.000  S
  O1       1.0000 0.35680  0.27830  0.93460  Biso   1.000  O
  O2       1.0000 0.72170  0.07850  0.93460  Biso   1.000  O
  O3       1.0000 0.92150  0.64320  0.93460  Biso   1.000  O
  O4       1.0000 0.02347  0.61163  0.26793  Biso   1.000  O
  O5       1.0000 0.38837  0.41183  0.26793  Biso   1.000  O
  O6       1.0000 0.58817  0.97653  0.26793  Biso   1.000  O
  O7       1.0000 0.69013  0.94497  0.60127  Biso   1.000  O
  O8       1.0000 0.05503  0.74517  0.60127  Biso   1.000  O
  O9       1.0000 0.25483  0.30987  0.60127  Biso   1.000  O
  O10      1.0000 0.64320  0.72170  0.06540  Biso   1.000  O
  O11      1.0000 0.27830  0.92150  0.06540  Biso   1.000  O
  O12      1.0000 0.07850  0.35680  0.06540  Biso   1.000  O
  O13      1.0000 0.30987  0.05503  0.39873  Biso   1.000  O
  O14      1.0000 0.94497  0.25483  0.39873  Biso   1.000  O
  O15      1.0000 0.74517  0.69013  0.39873  Biso   1.000  O
  O16      1.0000 0.97653  0.38837  0.73207  Biso   1.000  O
  O17      1.0000 0.61163  0.58817  0.73207  Biso   1.000  O
  O18      1.0000 0.41183  0.02347  0.73207  Biso   1.000  O
  O19      1.0000 0.31440  0.28300  0.12860  Biso   1.000  O
  O20      1.0000 0.71700  0.03140  0.12860  Biso   1.000  O
  O21      1.0000 0.96860  0.68560  0.12860  Biso   1.000  O
  O22      1.0000 0.98107  0.61633  0.46193  Biso   1.000  O
  O23      1.0000 0.38367  0.36473  0.46193  Biso   1.000  O
  O24      1.0000 0.63527  0.01893  0.46193  Biso   1.000  O
  O25      1.0000 0.64773  0.94967  0.79527  Biso   1.000  O
  O26      1.0000 0.05033  0.69807  0.79527  Biso   1.000  O
  O27      1.0000 0.30193  0.35227  0.79527  Biso   1.000  O
  O28      1.0000 0.68560  0.71700  0.87140  Biso   1.000  O
  O29      1.0000 0.28300  0.96860  0.87140  Biso   1.000  O
  O30      1.0000 0.03140  0.31440  0.87140  Biso   1.000  O
  O31      1.0000 0.35227  0.05033  0.20473  Biso   1.000  O
  O32      1.0000 0.94967  0.30193  0.20473  Biso   1.000  O
  O33      1.0000 0.69807  0.64773  0.20473  Biso   1.000  O
  O34      1.0000 0.01893  0.38367  0.53807  Biso   1.000  O
  O35      1.0000 0.61633  0.63527  0.53807  Biso   1.000  O
  O36      1.0000 0.36473  0.98107  0.53807  Biso   1.000  O
  C1       1.0000 0.33240  0.19670  0.23800  Biso   1.000  C
  C2       1.0000 0.80330  0.13570  0.23800  Biso   1.000  C
  C3       1.0000 0.86430  0.66760  0.23800  Biso   1.000  C
  C4       1.0000 0.99907  0.53003  0.57133  Biso   1.000  C
  C5       1.0000 0.46997  0.46903  0.57133  Biso   1.000  C
  C6       1.0000 0.53097  0.00093  0.57133  Biso   1.000  C
  C7       1.0000 0.66573  0.86337  0.90467  Biso   1.000  C
  C8       1.0000 0.13663  0.80237  0.90467  Biso   1.000  C
  C9       1.0000 0.19763  0.33427  0.90467  Biso   1.000  C
  C10      1.0000 0.66760  0.80330  0.76200  Biso   1.000  C
  C11      1.0000 0.19670  0.86430  0.76200  Biso   1.000  C
  C12      1.0000 0.13570  0.33240  0.76200  Biso   1.000  C
  C13      1.0000 0.33427  0.13663  0.09533  Biso   1.000  C
  C14      1.0000 0.86337  0.19763  0.09533  Biso   1.000  C
  C15      1.0000 0.80237  0.66573  0.09533  Biso   1.000  C
  C16      1.0000 0.00093  0.46997  0.42867  Biso   1.000  C
  C17      1.0000 0.53003  0.53097  0.42867  Biso   1.000  C
  C18      1.0000 0.46903  0.99907  0.42867  Biso   1.000  C
  C19      1.0000 0.33480  0.20290  0.12580  Biso   1.000  C
  C20      1.0000 0.79710  0.13190  0.12580  Biso   1.000  C
  C21      1.0000 0.86810  0.66520  0.12580  Biso   1.000  C
  C22      1.0000 0.00147  0.53623  0.45913  Biso   1.000  C
  C23      1.0000 0.46377  0.46523  0.45913  Biso   1.000  C
  C24      1.0000 0.53477  0.99853  0.45913  Biso   1.000  C
  C25      1.0000 0.66813  0.86957  0.79247  Biso   1.000  C
  C26      1.0000 0.13043  0.79857  0.79247  Biso   1.000  C
  C27      1.0000 0.20143  0.33187  0.79247  Biso   1.000  C
  C28      1.0000 0.66520  0.79710  0.87420  Biso   1.000  C
  C29      1.0000 0.20290  0.86810  0.87420  Biso   1.000  C
  C30      1.0000 0.13190  0.33480  0.87420  Biso   1.000  C
  C31      1.0000 0.33187  0.13043  0.20753  Biso   1.000  C
  C32      1.0000 0.86957  0.20143  0.20753  Biso   1.000  C
  C33      1.0000 0.79857  0.66813  0.20753  Biso   1.000  C
  C34      1.0000 0.99853  0.46377  0.54087  Biso   1.000  C
  C35      1.0000 0.53623  0.53477  0.54087  Biso   1.000  C
  C36      1.0000 0.46523  0.00147  0.54087  Biso   1.000  C
  H1       1.0000 0.33600  0.22830  0.09790  Biso   1.000  H
  H2       1.0000 0.77170  0.10770  0.09790  Biso   1.000  H
  H3       1.0000 0.89230  0.66400  0.09790  Biso   1.000  H
  H4       1.0000 0.00267  0.56163  0.43123  Biso   1.000  H
  H5       1.0000 0.43837  0.44103  0.43123  Biso   1.000  H
  H6       1.0000 0.55897  0.99733  0.43123  Biso   1.000  H
  H7       1.0000 0.66933  0.89497  0.76457  Biso   1.000  H
  H8       1.0000 0.10503  0.77437  0.76457  Biso   1.000  H
  H9       1.0000 0.22563  0.33067  0.76457  Biso   1.000  H
  H10      1.0000 0.66400  0.77170  0.90210  Biso   1.000  H
  H11      1.0000 0.22830  0.89230  0.90210  Biso   1.000  H
  H12      1.0000 0.10770  0.33600  0.90210  Biso   1.000  H
  H13      1.0000 0.33067  0.10503  0.23543  Biso   1.000  H
  H14      1.0000 0.89497  0.22563  0.23543  Biso   1.000  H
  H15      1.0000 0.77437  0.66933  0.23543  Biso   1.000  H
  H16      1.0000 0.99733  0.43837  0.56877  Biso   1.000  H
  H17      1.0000 0.56163  0.55897  0.56877  Biso   1.000  H
  H18      1.0000 0.44103  0.00267  0.56877  Biso   1.000  H
  C37      1.0000 0.33550  0.17370  0.05360  Biso   1.000  C
  C38      1.0000 0.82630  0.16180  0.05360  Biso   1.000  C
  C39      1.0000 0.83820  0.66450  0.05360  Biso   1.000  C
  C40      1.0000 0.00217  0.50703  0.38693  Biso   1.000  C
  C41      1.0000 0.49297  0.49513  0.38693  Biso   1.000  C
  C42      1.0000 0.50487  0.99783  0.38693  Biso   1.000  C
  C43      1.0000 0.66883  0.84037  0.72027  Biso   1.000  C
  C44      1.0000 0.15963  0.82847  0.72027  Biso   1.000  C
  C45      1.0000 0.17153  0.33117  0.72027  Biso   1.000  C
  C46      1.0000 0.66450  0.82630  0.94640  Biso   1.000  C
  C47      1.0000 0.17370  0.83820  0.94640  Biso   1.000  C
  C48      1.0000 0.16180  0.33550  0.94640  Biso   1.000  C
  C49      1.0000 0.33117  0.15963  0.27973  Biso   1.000  C
  C50      1.0000 0.84037  0.17153  0.27973  Biso   1.000  C
  C51      1.0000 0.82847  0.66883  0.27973  Biso   1.000  C
  C52      1.0000 0.99783  0.49297  0.61307  Biso   1.000  C
  C53      1.0000 0.50703  0.50487  0.61307  Biso   1.000  C
  C54      1.0000 0.49513  0.00217  0.61307  Biso   1.000  C
  C55      1.0000 0.33590  0.18250  0.93300  Biso   1.000  C
  C56      1.0000 0.81750  0.15340  0.93300  Biso   1.000  C
  C57      1.0000 0.84660  0.66410  0.93300  Biso   1.000  C
  C58      1.0000 0.00257  0.51583  0.26633  Biso   1.000  C
  C59      1.0000 0.48417  0.48673  0.26633  Biso   1.000  C
  C60      1.0000 0.51327  0.99743  0.26633  Biso   1.000  C
  C61      1.0000 0.66923  0.84917  0.59967  Biso   1.000  C
  C62      1.0000 0.15083  0.82007  0.59967  Biso   1.000  C
  C63      1.0000 0.17993  0.33077  0.59967  Biso   1.000  C
  C64      1.0000 0.66410  0.81750  0.06700  Biso   1.000  C
  C65      1.0000 0.18250  0.84660  0.06700  Biso   1.000  C
  C66      1.0000 0.15340  0.33590  0.06700  Biso   1.000  C
  C67      1.0000 0.33077  0.15083  0.40033  Biso   1.000  C
  C68      1.0000 0.84917  0.17993  0.40033  Biso   1.000  C
  C69      1.0000 0.82007  0.66923  0.40033  Biso   1.000  C
  C70      1.0000 0.99743  0.48417  0.73367  Biso   1.000  C
  C71      1.0000 0.51583  0.51327  0.73367  Biso   1.000  C
  C72      1.0000 0.48673  0.00257  0.73367  Biso   1.000  C
  H19      1.0000 0.32220  0.20040  0.92090  Biso   1.000  H
  H20      1.0000 0.79960  0.12180  0.92090  Biso   1.000  H
  H21      1.0000 0.87820  0.67780  0.92090  Biso   1.000  H
  H22      1.0000 0.98887  0.53373  0.25423  Biso   1.000  H
  H23      1.0000 0.46627  0.45513  0.25423  Biso   1.000  H
  H24      1.0000 0.54487  0.01113  0.25423  Biso   1.000  H
  H25      1.0000 0.65553  0.86707  0.58757  Biso   1.000  H
  H26      1.0000 0.13293  0.78847  0.58757  Biso   1.000  H
  H27      1.0000 0.21153  0.34447  0.58757  Biso   1.000  H
  H28      1.0000 0.67780  0.79960  0.07910  Biso   1.000  H
  H29      1.0000 0.20040  0.87820  0.07910  Biso   1.000  H
  H30      1.0000 0.12180  0.32220  0.07910  Biso   1.000  H
  H31      1.0000 0.34447  0.13293  0.41243  Biso   1.000  H
  H32      1.0000 0.86707  0.21153  0.41243  Biso   1.000  H
  H33      1.0000 0.78847  0.65553  0.41243  Biso   1.000  H
  H34      1.0000 0.01113  0.46627  0.74577  Biso   1.000  H
  H35      1.0000 0.53373  0.54487  0.74577  Biso   1.000  H
  H36      1.0000 0.45513  0.98887  0.74577  Biso   1.000  H
  H37      1.0000 0.31840  0.15480  0.89440  Biso   1.000  H
  H38      1.0000 0.84520  0.16360  0.89440  Biso   1.000  H
  H39      1.0000 0.83640  0.68160  0.89440  Biso   1.000  H
  H40      1.0000 0.98507  0.48813  0.22773  Biso   1.000  H
  H41      1.0000 0.51187  0.49693  0.22773  Biso   1.000  H
  H42      1.0000 0.50307  0.01493  0.22773  Biso   1.000  H
  H43      1.0000 0.65173  0.82147  0.56107  Biso   1.000  H
  H44      1.0000 0.17853  0.83027  0.56107  Biso   1.000  H
  H45      1.0000 0.16973  0.34827  0.56107  Biso   1.000  H
  H46      1.0000 0.68160  0.84520  0.10560  Biso   1.000  H
  H47      1.0000 0.15480  0.83640  0.10560  Biso   1.000  H
  H48      1.0000 0.16360  0.31840  0.10560  Biso   1.000  H
  H49      1.0000 0.34827  0.17853  0.43893  Biso   1.000  H
  H50      1.0000 0.82147  0.16973  0.43893  Biso   1.000  H
  H51      1.0000 0.83027  0.65173  0.43893  Biso   1.000  H
  H52      1.0000 0.01493  0.51187  0.77227  Biso   1.000  H
  H53      1.0000 0.48813  0.50307  0.77227  Biso   1.000  H
  H54      1.0000 0.49693  0.98507  0.77227  Biso   1.000  H
  C73      1.0000 0.41580  0.26510  0.92720  Biso   1.000  C
  C74      1.0000 0.73490  0.15070  0.92720  Biso   1.000  C
  C75      1.0000 0.84930  0.58420  0.92720  Biso   1.000  C
  C76      1.0000 0.08247  0.59843  0.26053  Biso   1.000  C
  C77      1.0000 0.40157  0.48403  0.26053  Biso   1.000  C
  C78      1.0000 0.51597  0.91753  0.26053  Biso   1.000  C
  C79      1.0000 0.74913  0.93177  0.59387  Biso   1.000  C
  C80      1.0000 0.06823  0.81737  0.59387  Biso   1.000  C
  C81      1.0000 0.18263  0.25087  0.59387  Biso   1.000  C
  C82      1.0000 0.58420  0.73490  0.07280  Biso   1.000  C
  C83      1.0000 0.26510  0.84930  0.07280  Biso   1.000  C
  C84      1.0000 0.15070  0.41580  0.07280  Biso   1.000  C
  C85      1.0000 0.25087  0.06823  0.40613  Biso   1.000  C
  C86      1.0000 0.93177  0.18263  0.40613  Biso   1.000  C
  C87      1.0000 0.81737  0.74913  0.40613  Biso   1.000  C
  C88      1.0000 0.91753  0.40157  0.73947  Biso   1.000  C
  C89      1.0000 0.59843  0.51597  0.73947  Biso   1.000  C
  C90      1.0000 0.48403  0.08247  0.73947  Biso   1.000  C
  H55      1.0000 0.41360  0.26370  0.00750  Biso   1.000  H
  H56      1.0000 0.73630  0.14990  0.00750  Biso   1.000  H
  H57      1.0000 0.85010  0.58640  0.00750  Biso   1.000  H
  H58      1.0000 0.08027  0.59703  0.34083  Biso   1.000  H
  H59      1.0000 0.40297  0.48323  0.34083  Biso   1.000  H
  H60      1.0000 0.51677  0.91973  0.34083  Biso   1.000  H
  H61      1.0000 0.74693  0.93037  0.67417  Biso   1.000  H
  H62      1.0000 0.06963  0.81657  0.67417  Biso   1.000  H
  H63      1.0000 0.18343  0.25307  0.67417  Biso   1.000  H
  H64      1.0000 0.58640  0.73630  0.99250  Biso   1.000  H
  H65      1.0000 0.26370  0.85010  0.99250  Biso   1.000  H
  H66      1.0000 0.14990  0.41360  0.99250  Biso   1.000  H
  H67      1.0000 0.25307  0.06963  0.32583  Biso   1.000  H
  H68      1.0000 0.93037  0.18343  0.32583  Biso   1.000  H
  H69      1.0000 0.81657  0.74693  0.32583  Biso   1.000  H
  H70      1.0000 0.91973  0.40297  0.65917  Biso   1.000  H
  H71      1.0000 0.59703  0.51677  0.65917  Biso   1.000  H
  H72      1.0000 0.48323  0.08027  0.65917  Biso   1.000  H
  H73      1.0000 0.44690  0.27990  0.90830  Biso   1.000  H
  H74      1.0000 0.72010  0.16700  0.90830  Biso   1.000  H
  H75      1.0000 0.83300  0.55310  0.90830  Biso   1.000  H
  H76      1.0000 0.11357  0.61323  0.24163  Biso   1.000  H
  H77      1.0000 0.38677  0.50033  0.24163  Biso   1.000  H
  H78      1.0000 0.49967  0.88643  0.24163  Biso   1.000  H
  H79      1.0000 0.78023  0.94657  0.57497  Biso   1.000  H
  H80      1.0000 0.05343  0.83367  0.57497  Biso   1.000  H
  H81      1.0000 0.16633  0.21977  0.57497  Biso   1.000  H
  H82      1.0000 0.55310  0.72010  0.09170  Biso   1.000  H
  H83      1.0000 0.27990  0.83300  0.09170  Biso   1.000  H
  H84      1.0000 0.16700  0.44690  0.09170  Biso   1.000  H
  H85      1.0000 0.21977  0.05343  0.42503  Biso   1.000  H
  H86      1.0000 0.94657  0.16633  0.42503  Biso   1.000  H
  H87      1.0000 0.83367  0.78023  0.42503  Biso   1.000  H
  H88      1.0000 0.88643  0.38677  0.75837  Biso   1.000  H
  H89      1.0000 0.61323  0.49967  0.75837  Biso   1.000  H
  H90      1.0000 0.50033  0.11357  0.75837  Biso   1.000  H
  C91      1.0000 0.39730  0.29220  0.88650  Biso   1.000  C
  C92      1.0000 0.70780  0.10510  0.88650  Biso   1.000  C
  C93      1.0000 0.89490  0.60270  0.88650  Biso   1.000  C
  C94      1.0000 0.06397  0.62553  0.21983  Biso   1.000  C
  C95      1.0000 0.37447  0.43843  0.21983  Biso   1.000  C
  C96      1.0000 0.56157  0.93603  0.21983  Biso   1.000  C
  C97      1.0000 0.73063  0.95887  0.55317  Biso   1.000  C
  C98      1.0000 0.04113  0.77177  0.55317  Biso   1.000  C
  C99      1.0000 0.22823  0.26937  0.55317  Biso   1.000  C
  C100     1.0000 0.60270  0.70780  0.11350  Biso   1.000  C
  C101     1.0000 0.29220  0.89490  0.11350  Biso   1.000  C
  C102     1.0000 0.10510  0.39730  0.11350  Biso   1.000  C
  C103     1.0000 0.26937  0.04113  0.44683  Biso   1.000  C
  C104     1.0000 0.95887  0.22823  0.44683  Biso   1.000  C
  C105     1.0000 0.77177  0.73063  0.44683  Biso   1.000  C
  C106     1.0000 0.93603  0.37447  0.78017  Biso   1.000  C
  C107     1.0000 0.62553  0.56157  0.78017  Biso   1.000  C
  C108     1.0000 0.43843  0.06397  0.78017  Biso   1.000  C
  H91      1.0000 0.41710  0.32290  0.90480  Biso   1.000  H
  H92      1.0000 0.67710  0.09420  0.90480  Biso   1.000  H
  H93      1.0000 0.90580  0.58290  0.90480  Biso   1.000  H
  H94      1.0000 0.08377  0.65623  0.23813  Biso   1.000  H
  H95      1.0000 0.34377  0.42753  0.23813  Biso   1.000  H
  H96      1.0000 0.57247  0.91623  0.23813  Biso   1.000  H
  H97      1.0000 0.75043  0.98957  0.57147  Biso   1.000  H
  H98      1.0000 0.01043  0.76087  0.57147  Biso   1.000  H
  H99      1.0000 0.23913  0.24957  0.57147  Biso   1.000  H
  H100     1.0000 0.58290  0.67710  0.09520  Biso   1.000  H
  H101     1.0000 0.32290  0.90580  0.09520  Biso   1.000  H
  H102     1.0000 0.09420  0.41710  0.09520  Biso   1.000  H
  H103     1.0000 0.24957  0.01043  0.42853  Biso   1.000  H
  H104     1.0000 0.98957  0.23913  0.42853  Biso   1.000  H
  H105     1.0000 0.76087  0.75043  0.42853  Biso   1.000  H
  H106     1.0000 0.91623  0.34377  0.76187  Biso   1.000  H
  H107     1.0000 0.65623  0.57247  0.76187  Biso   1.000  H
  H108     1.0000 0.42753  0.08377  0.76187  Biso   1.000  H
  H109     1.0000 0.39410  0.28970  0.80650  Biso   1.000  H
  H110     1.0000 0.71030  0.10440  0.80650  Biso   1.000  H
  H111     1.0000 0.89560  0.60590  0.80650  Biso   1.000  H
  H112     1.0000 0.06077  0.62303  0.13983  Biso   1.000  H
  H113     1.0000 0.37697  0.43773  0.13983  Biso   1.000  H
  H114     1.0000 0.56227  0.93923  0.13983  Biso   1.000  H
  H115     1.0000 0.72743  0.95637  0.47317  Biso   1.000  H
  H116     1.0000 0.04363  0.77107  0.47317  Biso   1.000  H
  H117     1.0000 0.22893  0.27257  0.47317  Biso   1.000  H
  H118     1.0000 0.60590  0.71030  0.19350  Biso   1.000  H
  H119     1.0000 0.28970  0.89560  0.19350  Biso   1.000  H
  H120     1.0000 0.10440  0.39410  0.19350  Biso   1.000  H
  H121     1.0000 0.27257  0.04363  0.52683  Biso   1.000  H
  H122     1.0000 0.95637  0.22893  0.52683  Biso   1.000  H
  H123     1.0000 0.77107  0.72743  0.52683  Biso   1.000  H
  H124     1.0000 0.93923  0.37697  0.86017  Biso   1.000  H
  H125     1.0000 0.62303  0.56227  0.86017  Biso   1.000  H
  H126     1.0000 0.43773  0.06077  0.86017  Biso   1.000  H
  C109     1.0000 0.35900  0.31600  0.98000  Biso   1.000  C
  C110     1.0000 0.68400  0.04300  0.98000  Biso   1.000  C
  C111     1.0000 0.95700  0.64100  0.98000  Biso   1.000  C
  C112     1.0000 0.02567  0.64933  0.31333  Biso   1.000  C
  C113     1.0000 0.35067  0.37633  0.31333  Biso   1.000  C
  C114     1.0000 0.62367  0.97433  0.31333  Biso   1.000  C
  C115     1.0000 0.69233  0.98267  0.64667  Biso   1.000  C
  C116     1.0000 0.01733  0.70967  0.64667  Biso   1.000  C
  C117     1.0000 0.29033  0.30767  0.64667  Biso   1.000  C
  C118     1.0000 0.64100  0.68400  0.02000  Biso   1.000  C
  C119     1.0000 0.31600  0.95700  0.02000  Biso   1.000  C
  C120     1.0000 0.04300  0.35900  0.02000  Biso   1.000  C
  C121     1.0000 0.30767  0.01733  0.35333  Biso   1.000  C
  C122     1.0000 0.98267  0.29033  0.35333  Biso   1.000  C
  C123     1.0000 0.70967  0.69233  0.35333  Biso   1.000  C
  C124     1.0000 0.97433  0.35067  0.68667  Biso   1.000  C
  C125     1.0000 0.64933  0.62367  0.68667  Biso   1.000  C
  C126     1.0000 0.37633  0.02567  0.68667  Biso   1.000  C
  H127     1.0000 0.36690  0.33800  0.92200  Biso   1.000  H
  H128     1.0000 0.66200  0.02890  0.92200  Biso   1.000  H
  H129     1.0000 0.97110  0.63310  0.92200  Biso   1.000  H
  H130     1.0000 0.03357  0.67133  0.25533  Biso   1.000  H
  H131     1.0000 0.32867  0.36223  0.25533  Biso   1.000  H
  H132     1.0000 0.63777  0.96643  0.25533  Biso   1.000  H
  H133     1.0000 0.70023  0.00467  0.58867  Biso   1.000  H
  H134     1.0000 0.99533  0.69557  0.58867  Biso   1.000  H
  H135     1.0000 0.30443  0.29977  0.58867  Biso   1.000  H
  H136     1.0000 0.63310  0.66200  0.07800  Biso   1.000  H
  H137     1.0000 0.33800  0.97110  0.07800  Biso   1.000  H
  H138     1.0000 0.02890  0.36690  0.07800  Biso   1.000  H
  H139     1.0000 0.29977  0.99533  0.41133  Biso   1.000  H
  H140     1.0000 0.00467  0.30443  0.41133  Biso   1.000  H
  H141     1.0000 0.69557  0.70023  0.41133  Biso   1.000  H
  H142     1.0000 0.96643  0.32867  0.74467  Biso   1.000  H
  H143     1.0000 0.67133  0.63777  0.74467  Biso   1.000  H
  H144     1.0000 0.36223  0.03357  0.74467  Biso   1.000  H
  H145     1.0000 0.38160  0.32810  0.03660  Biso   1.000  H
  H146     1.0000 0.67190  0.05350  0.03660  Biso   1.000  H
  H147     1.0000 0.94650  0.61840  0.03660  Biso   1.000  H
  H148     1.0000 0.04827  0.66143  0.36993  Biso   1.000  H
  H149     1.0000 0.33857  0.38683  0.36993  Biso   1.000  H
  H150     1.0000 0.61317  0.95173  0.36993  Biso   1.000  H
  H151     1.0000 0.71493  0.99477  0.70327  Biso   1.000  H
  H152     1.0000 0.00523  0.72017  0.70327  Biso   1.000  H
  H153     1.0000 0.27983  0.28507  0.70327  Biso   1.000  H
  H154     1.0000 0.61840  0.67190  0.96340  Biso   1.000  H
  H155     1.0000 0.32810  0.94650  0.96340  Biso   1.000  H
  H156     1.0000 0.05350  0.38160  0.96340  Biso   1.000  H
  H157     1.0000 0.28507  0.00523  0.29673  Biso   1.000  H
  H158     1.0000 0.99477  0.27983  0.29673  Biso   1.000  H
  H159     1.0000 0.72017  0.71493  0.29673  Biso   1.000  H
  H160     1.0000 0.95173  0.33857  0.63007  Biso   1.000  H
  H161     1.0000 0.66143  0.61317  0.63007  Biso   1.000  H
  H162     1.0000 0.38683  0.04827  0.63007  Biso   1.000  H
  C127     1.0000 0.31760  0.30570  0.02600  Biso   1.000  C
  C128     1.0000 0.69430  0.01190  0.02600  Biso   1.000  C
  C129     1.0000 0.98810  0.68240  0.02600  Biso   1.000  C
  C130     1.0000 0.98427  0.63903  0.35933  Biso   1.000  C
  C131     1.0000 0.36097  0.34523  0.35933  Biso   1.000  C
  C132     1.0000 0.65477  0.01573  0.35933  Biso   1.000  C
  C133     1.0000 0.65093  0.97237  0.69267  Biso   1.000  C
  C134     1.0000 0.02763  0.67857  0.69267  Biso   1.000  C
  C135     1.0000 0.32143  0.34907  0.69267  Biso   1.000  C
  C136     1.0000 0.68240  0.69430  0.97400  Biso   1.000  C
  C137     1.0000 0.30570  0.98810  0.97400  Biso   1.000  C
  C138     1.0000 0.01190  0.31760  0.97400  Biso   1.000  C
  C139     1.0000 0.34907  0.02763  0.30733  Biso   1.000  C
  C140     1.0000 0.97237  0.32143  0.30733  Biso   1.000  C
  C141     1.0000 0.67857  0.65093  0.30733  Biso   1.000  C
  C142     1.0000 0.01573  0.36097  0.64067  Biso   1.000  C
  C143     1.0000 0.63903  0.65477  0.64067  Biso   1.000  C
  C144     1.0000 0.34523  0.98427  0.64067  Biso   1.000  C
  H163     1.0000 0.29370  0.28700  0.97660  Biso   1.000  H
  H164     1.0000 0.71300  0.00670  0.97660  Biso   1.000  H
  H165     1.0000 0.99330  0.70630  0.97660  Biso   1.000  H
  H166     1.0000 0.96037  0.62033  0.30993  Biso   1.000  H
  H167     1.0000 0.37967  0.34003  0.30993  Biso   1.000  H
  H168     1.0000 0.65997  0.03963  0.30993  Biso   1.000  H
  H169     1.0000 0.62703  0.95367  0.64327  Biso   1.000  H
  H170     1.0000 0.04633  0.67337  0.64327  Biso   1.000  H
  H171     1.0000 0.32663  0.37297  0.64327  Biso   1.000  H
  H172     1.0000 0.70630  0.71300  0.02340  Biso   1.000  H
  H173     1.0000 0.28700  0.99330  0.02340  Biso   1.000  H
  H174     1.0000 0.00670  0.29370  0.02340  Biso   1.000  H
  H175     1.0000 0.37297  0.04633  0.35673  Biso   1.000  H
  H176     1.0000 0.95367  0.32663  0.35673  Biso   1.000  H
  H177     1.0000 0.67337  0.62703  0.35673  Biso   1.000  H
  H178     1.0000 0.03963  0.37967  0.69007  Biso   1.000  H
  H179     1.0000 0.62033  0.65997  0.69007  Biso   1.000  H
  H180     1.0000 0.34003  0.96037  0.69007  Biso   1.000  H
  H181     1.0000 0.31640  0.33230  0.04050  Biso   1.000  H
  H182     1.0000 0.66770  0.98410  0.04050  Biso   1.000  H
  H183     1.0000 0.01590  0.68360  0.04050  Biso   1.000  H
  H184     1.0000 0.98307  0.66563  0.37383  Biso   1.000  H
  H185     1.0000 0.33437  0.31743  0.37383  Biso   1.000  H
  H186     1.0000 0.68257  0.01693  0.37383  Biso   1.000  H
  H187     1.0000 0.64973  0.99897  0.70717  Biso   1.000  H
  H188     1.0000 0.00103  0.65077  0.70717  Biso   1.000  H
  H189     1.0000 0.34923  0.35027  0.70717  Biso   1.000  H
  H190     1.0000 0.68360  0.66770  0.95950  Biso   1.000  H
  H191     1.0000 0.33230  0.01590  0.95950  Biso   1.000  H
  H192     1.0000 0.98410  0.31640  0.95950  Biso   1.000  H
  H193     1.0000 0.35027  0.00103  0.29283  Biso   1.000  H
  H194     1.0000 0.99897  0.34923  0.29283  Biso   1.000  H
  H195     1.0000 0.65077  0.64973  0.29283  Biso   1.000  H
  H196     1.0000 0.01693  0.33437  0.62617  Biso   1.000  H
  H197     1.0000 0.66563  0.68257  0.62617  Biso   1.000  H
  H198     1.0000 0.31743  0.98307  0.62617  Biso   1.000  H
  C145     1.0000 0.27060  0.26590  0.15560  Biso   1.000  C
  C146     1.0000 0.73410  0.00470  0.15560  Biso   1.000  C
  C147     1.0000 0.99530  0.72940  0.15560  Biso   1.000  C
  C148     1.0000 0.93727  0.59923  0.48893  Biso   1.000  C
  C149     1.0000 0.40077  0.33803  0.48893  Biso   1.000  C
  C150     1.0000 0.66197  0.06273  0.48893  Biso   1.000  C
  C151     1.0000 0.60393  0.93257  0.82227  Biso   1.000  C
  C152     1.0000 0.06743  0.67137  0.82227  Biso   1.000  C
  C153     1.0000 0.32863  0.39607  0.82227  Biso   1.000  C
  C154     1.0000 0.72940  0.73410  0.84440  Biso   1.000  C
  C155     1.0000 0.26590  0.99530  0.84440  Biso   1.000  C
  C156     1.0000 0.00470  0.27060  0.84440  Biso   1.000  C
  C157     1.0000 0.39607  0.06743  0.17773  Biso   1.000  C
  C158     1.0000 0.93257  0.32863  0.17773  Biso   1.000  C
  C159     1.0000 0.67137  0.60393  0.17773  Biso   1.000  C
  C160     1.0000 0.06273  0.40077  0.51107  Biso   1.000  C
  C161     1.0000 0.59923  0.66197  0.51107  Biso   1.000  C
  C162     1.0000 0.33803  0.93727  0.51107  Biso   1.000  C
  H199     1.0000 0.25370  0.26300  0.08940  Biso   1.000  H
  H200     1.0000 0.73700  0.99070  0.08940  Biso   1.000  H
  H201     1.0000 0.00930  0.74630  0.08940  Biso   1.000  H
  H202     1.0000 0.92037  0.59633  0.42273  Biso   1.000  H
  H203     1.0000 0.40367  0.32403  0.42273  Biso   1.000  H
  H204     1.0000 0.67597  0.07963  0.42273  Biso   1.000  H
  H205     1.0000 0.58703  0.92967  0.75607  Biso   1.000  H
  H206     1.0000 0.07033  0.65737  0.75607  Biso   1.000  H
  H207     1.0000 0.34263  0.41297  0.75607  Biso   1.000  H
  H208     1.0000 0.74630  0.73700  0.91060  Biso   1.000  H
  H209     1.0000 0.26300  0.00930  0.91060  Biso   1.000  H
  H210     1.0000 0.99070  0.25370  0.91060  Biso   1.000  H
  H211     1.0000 0.41297  0.07033  0.24393  Biso   1.000  H
  H212     1.0000 0.92967  0.34263  0.24393  Biso   1.000  H
  H213     1.0000 0.65737  0.58703  0.24393  Biso   1.000  H
  H214     1.0000 0.07963  0.40367  0.57727  Biso   1.000  H
  H215     1.0000 0.59633  0.67597  0.57727  Biso   1.000  H
  H216     1.0000 0.32403  0.92037  0.57727  Biso   1.000  H
  H217     1.0000 0.26740  0.28540  0.20700  Biso   1.000  H
  H218     1.0000 0.71460  0.98200  0.20700  Biso   1.000  H
  H219     1.0000 0.01800  0.73260  0.20700  Biso   1.000  H
  H220     1.0000 0.93407  0.61873  0.54033  Biso   1.000  H
  H221     1.0000 0.38127  0.31533  0.54033  Biso   1.000  H
  H222     1.0000 0.68467  0.06593  0.54033  Biso   1.000  H
  H223     1.0000 0.60073  0.95207  0.87367  Biso   1.000  H
  H224     1.0000 0.04793  0.64867  0.87367  Biso   1.000  H
  H225     1.0000 0.35133  0.39927  0.87367  Biso   1.000  H
  H226     1.0000 0.73260  0.71460  0.79300  Biso   1.000  H
  H227     1.0000 0.28540  0.01800  0.79300  Biso   1.000  H
  H228     1.0000 0.98200  0.26740  0.79300  Biso   1.000  H
  H229     1.0000 0.39927  0.04793  0.12633  Biso   1.000  H
  H230     1.0000 0.95207  0.35133  0.12633  Biso   1.000  H
  H231     1.0000 0.64867  0.60073  0.12633  Biso   1.000  H
  H232     1.0000 0.06593  0.38127  0.45967  Biso   1.000  H
  H233     1.0000 0.61873  0.68467  0.45967  Biso   1.000  H
  H234     1.0000 0.31533  0.93407  0.45967  Biso   1.000  H
  C163     1.0000 0.25450  0.22210  0.20730  Biso   1.000  C
  C164     1.0000 0.77790  0.03240  0.20730  Biso   1.000  C
  C165     1.0000 0.96760  0.74550  0.20730  Biso   1.000  C
  C166     1.0000 0.92117  0.55543  0.54063  Biso   1.000  C
  C167     1.0000 0.44457  0.36573  0.54063  Biso   1.000  C
  C168     1.0000 0.63427  0.07883  0.54063  Biso   1.000  C
  C169     1.0000 0.58783  0.88877  0.87397  Biso   1.000  C
  C170     1.0000 0.11123  0.69907  0.87397  Biso   1.000  C
  C171     1.0000 0.30093  0.41217  0.87397  Biso   1.000  C
  C172     1.0000 0.74550  0.77790  0.79270  Biso   1.000  C
  C173     1.0000 0.22210  0.96760  0.79270  Biso   1.000  C
  C174     1.0000 0.03240  0.25450  0.79270  Biso   1.000  C
  C175     1.0000 0.41217  0.11123  0.12603  Biso   1.000  C
  C176     1.0000 0.88877  0.30093  0.12603  Biso   1.000  C
  C177     1.0000 0.69907  0.58783  0.12603  Biso   1.000  C
  C178     1.0000 0.07883  0.44457  0.45937  Biso   1.000  C
  C179     1.0000 0.55543  0.63427  0.45937  Biso   1.000  C
  C180     1.0000 0.36573  0.92117  0.45937  Biso   1.000  C
  H235     1.0000 0.26060  0.20420  0.15700  Biso   1.000  H
  H236     1.0000 0.79580  0.05640  0.15700  Biso   1.000  H
  H237     1.0000 0.94360  0.73940  0.15700  Biso   1.000  H
  H238     1.0000 0.92727  0.53753  0.49033  Biso   1.000  H
  H239     1.0000 0.46247  0.38973  0.49033  Biso   1.000  H
  H240     1.0000 0.61027  0.07273  0.49033  Biso   1.000  H
  H241     1.0000 0.59393  0.87087  0.82367  Biso   1.000  H
  H242     1.0000 0.12913  0.72307  0.82367  Biso   1.000  H
  H243     1.0000 0.27693  0.40607  0.82367  Biso   1.000  H
  H244     1.0000 0.73940  0.79580  0.84300  Biso   1.000  H
  H245     1.0000 0.20420  0.94360  0.84300  Biso   1.000  H
  H246     1.0000 0.05640  0.26060  0.84300  Biso   1.000  H
  H247     1.0000 0.40607  0.12913  0.17633  Biso   1.000  H
  H248     1.0000 0.87087  0.27693  0.17633  Biso   1.000  H
  H249     1.0000 0.72307  0.59393  0.17633  Biso   1.000  H
  H250     1.0000 0.07273  0.46247  0.50967  Biso   1.000  H
  H251     1.0000 0.53753  0.61027  0.50967  Biso   1.000  H
  H252     1.0000 0.38973  0.92727  0.50967  Biso   1.000  H
  H253     1.0000 0.22270  0.20810  0.21520  Biso   1.000  H
  H254     1.0000 0.79190  0.01460  0.21520  Biso   1.000  H
  H255     1.0000 0.98540  0.77730  0.21520  Biso   1.000  H
  H256     1.0000 0.88937  0.54143  0.54853  Biso   1.000  H
  H257     1.0000 0.45857  0.34793  0.54853  Biso   1.000  H
  H258     1.0000 0.65207  0.11063  0.54853  Biso   1.000  H
  H259     1.0000 0.55603  0.87477  0.88187  Biso   1.000  H
  H260     1.0000 0.12523  0.68127  0.88187  Biso   1.000  H
  H261     1.0000 0.31873  0.44397  0.88187  Biso   1.000  H
  H262     1.0000 0.77730  0.79190  0.78480  Biso   1.000  H
  H263     1.0000 0.20810  0.98540  0.78480  Biso   1.000  H
  H264     1.0000 0.01460  0.22270  0.78480  Biso   1.000  H
  H265     1.0000 0.44397  0.12523  0.11813  Biso   1.000  H
  H266     1.0000 0.87477  0.31873  0.11813  Biso   1.000  H
  H267     1.0000 0.68127  0.55603  0.11813  Biso   1.000  H
  H268     1.0000 0.11063  0.45857  0.45147  Biso   1.000  H
  H269     1.0000 0.54143  0.65207  0.45147  Biso   1.000  H
  H270     1.0000 0.34793  0.88937  0.45147  Biso   1.000  H
  C181     1.0000 0.33150  0.23160  0.30850  Biso   1.000  C
  C182     1.0000 0.76840  0.09990  0.30850  Biso   1.000  C
  C183     1.0000 0.90010  0.66850  0.30850  Biso   1.000  C
  C184     1.0000 0.99817  0.56493  0.64183  Biso   1.000  C
  C185     1.0000 0.43507  0.43323  0.64183  Biso   1.000  C
  C186     1.0000 0.56677  0.00183  0.64183  Biso   1.000  C
  C187     1.0000 0.66483  0.89827  0.97517  Biso   1.000  C
  C188     1.0000 0.10173  0.76657  0.97517  Biso   1.000  C
  C189     1.0000 0.23343  0.33517  0.97517  Biso   1.000  C
  C190     1.0000 0.66850  0.76840  0.69150  Biso   1.000  C
  C191     1.0000 0.23160  0.90010  0.69150  Biso   1.000  C
  C192     1.0000 0.09990  0.33150  0.69150  Biso   1.000  C
  C193     1.0000 0.33517  0.10173  0.02483  Biso   1.000  C
  C194     1.0000 0.89827  0.23343  0.02483  Biso   1.000  C
  C195     1.0000 0.76657  0.66483  0.02483  Biso   1.000  C
  C196     1.0000 0.00183  0.43507  0.35817  Biso   1.000  C
  C197     1.0000 0.56493  0.56677  0.35817  Biso   1.000  C
  C198     1.0000 0.43323  0.99817  0.35817  Biso   1.000  C
  H271     1.0000 0.34800  0.25970  0.27070  Biso   1.000  H
  H272     1.0000 0.74030  0.08830  0.27070  Biso   1.000  H
  H273     1.0000 0.91170  0.65200  0.27070  Biso   1.000  H
  H274     1.0000 0.01467  0.59303  0.60403  Biso   1.000  H
  H275     1.0000 0.40697  0.42163  0.60403  Biso   1.000  H
  H276     1.0000 0.57837  0.98533  0.60403  Biso   1.000  H
  H277     1.0000 0.68133  0.92637  0.93737  Biso   1.000  H
  H278     1.0000 0.07363  0.75497  0.93737  Biso   1.000  H
  H279     1.0000 0.24503  0.31867  0.93737  Biso   1.000  H
  H280     1.0000 0.65200  0.74030  0.72930  Biso   1.000  H
  H281     1.0000 0.25970  0.91170  0.72930  Biso   1.000  H
  H282     1.0000 0.08830  0.34800  0.72930  Biso   1.000  H
  H283     1.0000 0.31867  0.07363  0.06263  Biso   1.000  H
  H284     1.0000 0.92637  0.24503  0.06263  Biso   1.000  H
  H285     1.0000 0.75497  0.68133  0.06263  Biso   1.000  H
  H286     1.0000 0.98533  0.40697  0.39597  Biso   1.000  H
  H287     1.0000 0.59303  0.57837  0.39597  Biso   1.000  H
  H288     1.0000 0.42163  0.01467  0.39597  Biso   1.000  H
  H289     1.0000 0.34660  0.23380  0.37780  Biso   1.000  H
  H290     1.0000 0.76620  0.11280  0.37780  Biso   1.000  H
  H291     1.0000 0.88720  0.65340  0.37780  Biso   1.000  H
  H292     1.0000 0.01327  0.56713  0.71113  Biso   1.000  H
  H293     1.0000 0.43287  0.44613  0.71113  Biso   1.000  H
  H294     1.0000 0.55387  0.98673  0.71113  Biso   1.000  H
  H295     1.0000 0.67993  0.90047  0.04447  Biso   1.000  H
  H296     1.0000 0.09953  0.77947  0.04447  Biso   1.000  H
  H297     1.0000 0.22053  0.32007  0.04447  Biso   1.000  H
  H298     1.0000 0.65340  0.76620  0.62220  Biso   1.000  H
  H299     1.0000 0.23380  0.88720  0.62220  Biso   1.000  H
  H300     1.0000 0.11280  0.34660  0.62220  Biso   1.000  H
  H301     1.0000 0.32007  0.09953  0.95553  Biso   1.000  H
  H302     1.0000 0.90047  0.22053  0.95553  Biso   1.000  H
  H303     1.0000 0.77947  0.67993  0.95553  Biso   1.000  H
  H304     1.0000 0.98673  0.43287  0.28887  Biso   1.000  H
  H305     1.0000 0.56713  0.55387  0.28887  Biso   1.000  H
  H306     1.0000 0.44613  0.01327  0.28887  Biso   1.000  H
  N1       1.0000 0.45900  0.21690  0.08400  Biso   1.000  N
  N2       1.0000 0.78310  0.24210  0.08400  Biso   1.000  N
  N3       1.0000 0.75790  0.54100  0.08400  Biso   1.000  N
  N4       1.0000 0.12567  0.55023  0.41733  Biso   1.000  N
  N5       1.0000 0.44977  0.57543  0.41733  Biso   1.000  N
  N6       1.0000 0.42457  0.87433  0.41733  Biso   1.000  N
  N7       1.0000 0.79233  0.88357  0.75067  Biso   1.000  N
  N8       1.0000 0.11643  0.90877  0.75067  Biso   1.000  N
  N9       1.0000 0.09123  0.20767  0.75067  Biso   1.000  N
  N10      1.0000 0.54100  0.78310  0.91600  Biso   1.000  N
  N11      1.0000 0.21690  0.75790  0.91600  Biso   1.000  N
  N12      1.0000 0.24210  0.45900  0.91600  Biso   1.000  N
  N13      1.0000 0.20767  0.11643  0.24933  Biso   1.000  N
  N14      1.0000 0.88357  0.09123  0.24933  Biso   1.000  N
  N15      1.0000 0.90877  0.79233  0.24933  Biso   1.000  N
  N16      1.0000 0.87433  0.44977  0.58267  Biso   1.000  N
  N17      1.0000 0.55023  0.42457  0.58267  Biso   1.000  N
  N18      1.0000 0.57543  0.12567  0.58267  Biso   1.000  N
  C199     1.0000 0.47120  0.22950  0.16510  Biso   1.000  C
  C200     1.0000 0.77050  0.24170  0.16510  Biso   1.000  C
  C201     1.0000 0.75830  0.52880  0.16510  Biso   1.000  C
  C202     1.0000 0.13787  0.56283  0.49843  Biso   1.000  C
  C203     1.0000 0.43717  0.57503  0.49843  Biso   1.000  C
  C204     1.0000 0.42497  0.86213  0.49843  Biso   1.000  C
  C205     1.0000 0.80453  0.89617  0.83177  Biso   1.000  C
  C206     1.0000 0.10383  0.90837  0.83177  Biso   1.000  C
  C207     1.0000 0.09163  0.19547  0.83177  Biso   1.000  C
  C208     1.0000 0.52880  0.77050  0.83490  Biso   1.000  C
  C209     1.0000 0.22950  0.75830  0.83490  Biso   1.000  C
  C210     1.0000 0.24170  0.47120  0.83490  Biso   1.000  C
  C211     1.0000 0.19547  0.10383  0.16823  Biso   1.000  C
  C212     1.0000 0.89617  0.09163  0.16823  Biso   1.000  C
  C213     1.0000 0.90837  0.80453  0.16823  Biso   1.000  C
  C214     1.0000 0.86213  0.43717  0.50157  Biso   1.000  C
  C215     1.0000 0.56283  0.42497  0.50157  Biso   1.000  C
  C216     1.0000 0.57503  0.13787  0.50157  Biso   1.000  C
  C217     1.0000 0.48820  0.24630  0.27500  Biso   1.000  C
  C218     1.0000 0.75370  0.24190  0.27500  Biso   1.000  C
  C219     1.0000 0.75810  0.51180  0.27500  Biso   1.000  C
  C220     1.0000 0.15487  0.57963  0.60833  Biso   1.000  C
  C221     1.0000 0.42037  0.57523  0.60833  Biso   1.000  C
  C222     1.0000 0.42477  0.84513  0.60833  Biso   1.000  C
  C223     1.0000 0.82153  0.91297  0.94167  Biso   1.000  C
  C224     1.0000 0.08703  0.90857  0.94167  Biso   1.000  C
  C225     1.0000 0.09143  0.17847  0.94167  Biso   1.000  C
  C226     1.0000 0.51180  0.75370  0.72500  Biso   1.000  C
  C227     1.0000 0.24630  0.75810  0.72500  Biso   1.000  C
  C228     1.0000 0.24190  0.48820  0.72500  Biso   1.000  C
  C229     1.0000 0.17847  0.08703  0.05833  Biso   1.000  C
  C230     1.0000 0.91297  0.09143  0.05833  Biso   1.000  C
  C231     1.0000 0.90857  0.82153  0.05833  Biso   1.000  C
  C232     1.0000 0.84513  0.42037  0.39167  Biso   1.000  C
  C233     1.0000 0.57963  0.42477  0.39167  Biso   1.000  C
  C234     1.0000 0.57523  0.15487  0.39167  Biso   1.000  C
  H307     1.0000 0.46600  0.24800  0.31770  Biso   1.000  H
  H308     1.0000 0.75200  0.21800  0.31770  Biso   1.000  H
  H309     1.0000 0.78200  0.53400  0.31770  Biso   1.000  H
  H310     1.0000 0.13267  0.58133  0.65103  Biso   1.000  H
  H311     1.0000 0.41867  0.55133  0.65103  Biso   1.000  H
  H312     1.0000 0.44867  0.86733  0.65103  Biso   1.000  H
  H313     1.0000 0.79933  0.91467  0.98437  Biso   1.000  H
  H314     1.0000 0.08533  0.88467  0.98437  Biso   1.000  H
  H315     1.0000 0.11533  0.20067  0.98437  Biso   1.000  H
  H316     1.0000 0.53400  0.75200  0.68230  Biso   1.000  H
  H317     1.0000 0.24800  0.78200  0.68230  Biso   1.000  H
  H318     1.0000 0.21800  0.46600  0.68230  Biso   1.000  H
  H319     1.0000 0.20067  0.08533  0.01563  Biso   1.000  H
  H320     1.0000 0.91467  0.11533  0.01563  Biso   1.000  H
  H321     1.0000 0.88467  0.79933  0.01563  Biso   1.000  H
  H322     1.0000 0.86733  0.41867  0.34897  Biso   1.000  H
  H323     1.0000 0.58133  0.44867  0.34897  Biso   1.000  H
  H324     1.0000 0.55133  0.13267  0.34897  Biso   1.000  H
  H325     1.0000 0.51370  0.27510  0.26870  Biso   1.000  H
  H326     1.0000 0.72490  0.23860  0.26870  Biso   1.000  H
  H327     1.0000 0.76140  0.48630  0.26870  Biso   1.000  H
  H328     1.0000 0.18037  0.60843  0.60203  Biso   1.000  H
  H329     1.0000 0.39157  0.57193  0.60203  Biso   1.000  H
  H330     1.0000 0.42807  0.81963  0.60203  Biso   1.000  H
  H331     1.0000 0.84703  0.94177  0.93537  Biso   1.000  H
  H332     1.0000 0.05823  0.90527  0.93537  Biso   1.000  H
  H333     1.0000 0.09473  0.15297  0.93537  Biso   1.000  H
  H334     1.0000 0.48630  0.72490  0.73130  Biso   1.000  H
  H335     1.0000 0.27510  0.76140  0.73130  Biso   1.000  H
  H336     1.0000 0.23860  0.51370  0.73130  Biso   1.000  H
  H337     1.0000 0.15297  0.05823  0.06463  Biso   1.000  H
  H338     1.0000 0.94177  0.09473  0.06463  Biso   1.000  H
  H339     1.0000 0.90527  0.84703  0.06463  Biso   1.000  H
  H340     1.0000 0.81963  0.39157  0.39797  Biso   1.000  H
  H341     1.0000 0.60843  0.42807  0.39797  Biso   1.000  H
  H342     1.0000 0.57193  0.18037  0.39797  Biso   1.000  H
  H343     1.0000 0.49610  0.22680  0.31120  Biso   1.000  H
  H344     1.0000 0.77320  0.26930  0.31120  Biso   1.000  H
  H345     1.0000 0.73070  0.50390  0.31120  Biso   1.000  H
  H346     1.0000 0.16277  0.56013  0.64453  Biso   1.000  H
  H347     1.0000 0.43987  0.60263  0.64453  Biso   1.000  H
  H348     1.0000 0.39737  0.83723  0.64453  Biso   1.000  H
  H349     1.0000 0.82943  0.89347  0.97787  Biso   1.000  H
  H350     1.0000 0.10653  0.93597  0.97787  Biso   1.000  H
  H351     1.0000 0.06403  0.17057  0.97787  Biso   1.000  H
  H352     1.0000 0.50390  0.77320  0.68880  Biso   1.000  H
  H353     1.0000 0.22680  0.73070  0.68880  Biso   1.000  H
  H354     1.0000 0.26930  0.49610  0.68880  Biso   1.000  H
  H355     1.0000 0.17057  0.10653  0.02213  Biso   1.000  H
  H356     1.0000 0.89347  0.06403  0.02213  Biso   1.000  H
  H357     1.0000 0.93597  0.82943  0.02213  Biso   1.000  H
  H358     1.0000 0.83723  0.43987  0.35547  Biso   1.000  H
  H359     1.0000 0.56013  0.39737  0.35547  Biso   1.000  H
  H360     1.0000 0.60263  0.16277  0.35547  Biso   1.000  H
  C235     1.0000 0.33670  0.30590  0.95100  Biso   1.000  C
  C236     1.0000 0.69410  0.03080  0.95100  Biso   1.000  C
  C237     1.0000 0.96920  0.66330  0.95100  Biso   1.000  C
  C238     1.0000 0.00337  0.63923  0.28433  Biso   1.000  C
  C239     1.0000 0.36077  0.36413  0.28433  Biso   1.000  C
  C240     1.0000 0.63587  0.99663  0.28433  Biso   1.000  C
  C241     1.0000 0.67003  0.97257  0.61767  Biso   1.000  C
  C242     1.0000 0.02743  0.69747  0.61767  Biso   1.000  C
  C243     1.0000 0.30253  0.32997  0.61767  Biso   1.000  C
  C244     1.0000 0.66330  0.69410  0.04900  Biso   1.000  C
  C245     1.0000 0.30590  0.96920  0.04900  Biso   1.000  C
  C246     1.0000 0.03080  0.33670  0.04900  Biso   1.000  C
  C247     1.0000 0.32997  0.02743  0.38233  Biso   1.000  C
  C248     1.0000 0.97257  0.30253  0.38233  Biso   1.000  C
  C249     1.0000 0.69747  0.67003  0.38233  Biso   1.000  C
  C250     1.0000 0.99663  0.36077  0.71567  Biso   1.000  C
  C251     1.0000 0.63923  0.63587  0.71567  Biso   1.000  C
  C252     1.0000 0.36413  0.00337  0.71567  Biso   1.000  C
  H361     1.0000 0.34870  0.32940  0.89640  Biso   1.000  H
  H362     1.0000 0.67060  0.01930  0.89640  Biso   1.000  H
  H363     1.0000 0.98070  0.65130  0.89640  Biso   1.000  H
  H364     1.0000 0.01537  0.66273  0.22973  Biso   1.000  H
  H365     1.0000 0.33727  0.35263  0.22973  Biso   1.000  H
  H366     1.0000 0.64737  0.98463  0.22973  Biso   1.000  H
  H367     1.0000 0.68203  0.99607  0.56307  Biso   1.000  H
  H368     1.0000 0.00393  0.68597  0.56307  Biso   1.000  H
  H369     1.0000 0.31403  0.31797  0.56307  Biso   1.000  H
  H370     1.0000 0.65130  0.67060  0.10360  Biso   1.000  H
  H371     1.0000 0.32940  0.98070  0.10360  Biso   1.000  H
  H372     1.0000 0.01930  0.34870  0.10360  Biso   1.000  H
  H373     1.0000 0.31797  0.00393  0.43693  Biso   1.000  H
  H374     1.0000 0.99607  0.31403  0.43693  Biso   1.000  H
  H375     1.0000 0.68597  0.68203  0.43693  Biso   1.000  H
  H376     1.0000 0.98463  0.33727  0.77027  Biso   1.000  H
  H377     1.0000 0.66273  0.64737  0.77027  Biso   1.000  H
  H378     1.0000 0.35263  0.01537  0.77027  Biso   1.000  H
  H379     1.0000 0.30530  0.28820  0.93780  Biso   1.000  H
  H380     1.0000 0.71180  0.01710  0.93780  Biso   1.000  H
  H381     1.0000 0.98290  0.69470  0.93780  Biso   1.000  H
  H382     1.0000 0.97197  0.62153  0.27113  Biso   1.000  H
  H383     1.0000 0.37847  0.35043  0.27113  Biso   1.000  H
  H384     1.0000 0.64957  0.02803  0.27113  Biso   1.000  H
  H385     1.0000 0.63863  0.95487  0.60447  Biso   1.000  H
  H386     1.0000 0.04513  0.68377  0.60447  Biso   1.000  H
  H387     1.0000 0.31623  0.36137  0.60447  Biso   1.000  H
  H388     1.0000 0.69470  0.71180  0.06220  Biso   1.000  H
  H389     1.0000 0.28820  0.98290  0.06220  Biso   1.000  H
  H390     1.0000 0.01710  0.30530  0.06220  Biso   1.000  H
  H391     1.0000 0.36137  0.04513  0.39553  Biso   1.000  H
  H392     1.0000 0.95487  0.31623  0.39553  Biso   1.000  H
  H393     1.0000 0.68377  0.63863  0.39553  Biso   1.000  H
  H394     1.0000 0.02803  0.37847  0.72887  Biso   1.000  H
  H395     1.0000 0.62153  0.64957  0.72887  Biso   1.000  H
  H396     1.0000 0.35043  0.97197  0.72887  Biso   1.000  H
  C253     1.0000 0.34340  0.32510  0.05900  Biso   1.000  C
  C254     1.0000 0.67490  0.01830  0.05900  Biso   1.000  C
  C255     1.0000 0.98170  0.65660  0.05900  Biso   1.000  C
  C256     1.0000 0.01007  0.65843  0.39233  Biso   1.000  C
  C257     1.0000 0.34157  0.35163  0.39233  Biso   1.000  C
  C258     1.0000 0.64837  0.98993  0.39233  Biso   1.000  C
  C259     1.0000 0.67673  0.99177  0.72567  Biso   1.000  C
  C260     1.0000 0.00823  0.68497  0.72567  Biso   1.000  C
  C261     1.0000 0.31503  0.32327  0.72567  Biso   1.000  C
  C262     1.0000 0.65660  0.67490  0.94100  Biso   1.000  C
  C263     1.0000 0.32510  0.98170  0.94100  Biso   1.000  C
  C264     1.0000 0.01830  0.34340  0.94100  Biso   1.000  C
  C265     1.0000 0.32327  0.00823  0.27433  Biso   1.000  C
  C266     1.0000 0.99177  0.31503  0.27433  Biso   1.000  C
  C267     1.0000 0.68497  0.67673  0.27433  Biso   1.000  C
  C268     1.0000 0.98993  0.34157  0.60767  Biso   1.000  C
  C269     1.0000 0.65843  0.64837  0.60767  Biso   1.000  C
  C270     1.0000 0.35163  0.01007  0.60767  Biso   1.000  C
  H397     1.0000 0.33290  0.34600  0.06310  Biso   1.000  H
  H398     1.0000 0.65400  0.98690  0.06310  Biso   1.000  H
  H399     1.0000 0.01310  0.66710  0.06310  Biso   1.000  H
  H400     1.0000 0.99957  0.67933  0.39643  Biso   1.000  H
  H401     1.0000 0.32067  0.32023  0.39643  Biso   1.000  H
  H402     1.0000 0.67977  0.00043  0.39643  Biso   1.000  H
  H403     1.0000 0.66623  0.01267  0.72977  Biso   1.000  H
  H404     1.0000 0.98733  0.65357  0.72977  Biso   1.000  H
  H405     1.0000 0.34643  0.33377  0.72977  Biso   1.000  H
  H406     1.0000 0.66710  0.65400  0.93690  Biso   1.000  H
  H407     1.0000 0.34600  0.01310  0.93690  Biso   1.000  H
  H408     1.0000 0.98690  0.33290  0.93690  Biso   1.000  H
  H409     1.0000 0.33377  0.98733  0.27023  Biso   1.000  H
  H410     1.0000 0.01267  0.34643  0.27023  Biso   1.000  H
  H411     1.0000 0.65357  0.66623  0.27023  Biso   1.000  H
  H412     1.0000 0.00043  0.32067  0.60357  Biso   1.000  H
  H413     1.0000 0.67933  0.67977  0.60357  Biso   1.000  H
  H414     1.0000 0.32023  0.99957  0.60357  Biso   1.000  H
  H415     1.0000 0.37410  0.33940  0.08070  Biso   1.000  H
  H416     1.0000 0.66060  0.03470  0.08070  Biso   1.000  H
  H417     1.0000 0.96530  0.62590  0.08070  Biso   1.000  H
  H418     1.0000 0.04077  0.67273  0.41403  Biso   1.000  H
  H419     1.0000 0.32727  0.36803  0.41403  Biso   1.000  H
  H420     1.0000 0.63197  0.95923  0.41403  Biso   1.000  H
  H421     1.0000 0.70743  0.00607  0.74737  Biso   1.000  H
  H422     1.0000 0.99393  0.70137  0.74737  Biso   1.000  H
  H423     1.0000 0.29863  0.29257  0.74737  Biso   1.000  H
  H424     1.0000 0.62590  0.66060  0.91930  Biso   1.000  H
  H425     1.0000 0.33940  0.96530  0.91930  Biso   1.000  H
  H426     1.0000 0.03470  0.37410  0.91930  Biso   1.000  H
  H427     1.0000 0.29257  0.99393  0.25263  Biso   1.000  H
  H428     1.0000 0.00607  0.29863  0.25263  Biso   1.000  H
  H429     1.0000 0.70137  0.70743  0.25263  Biso   1.000  H
  H430     1.0000 0.95923  0.32727  0.58597  Biso   1.000  H
  H431     1.0000 0.67273  0.63197  0.58597  Biso   1.000  H
  H432     1.0000 0.36803  0.04077  0.58597  Biso   1.000  H
