data_image0
_cell_length_a       23.71
_cell_length_b       23.71
_cell_length_c       23.71
_cell_angle_alpha    90
_cell_angle_beta     90
_cell_angle_gamma    90

_symmetry_space_group_name_H-M    "P 1"
_symmetry_int_tables_number       1

loop_
  _symmetry_equiv_pos_as_xyz
  'x, y, z'

loop_
  _atom_site_label
  _atom_site_occupancy
  _atom_site_fract_x
  _atom_site_fract_y
  _atom_site_fract_z
  _atom_site_thermal_displace_type
  _atom_site_B_iso_or_equiv
  _atom_site_type_symbol
  I1       1.0000 0.00550  0.91360  0.21960  Biso   1.000  I
  I2       1.0000 0.50550  0.41360  0.71960  Biso   1.000  I
  I3       1.0000 0.21960  0.00550  0.91360  Biso   1.000  I
  I4       1.0000 0.91360  0.21960  0.00550  Biso   1.000  I
  I5       1.0000 0.71960  0.50550  0.41360  Biso   1.000  I
  I6       1.0000 0.41360  0.71960  0.50550  Biso   1.000  I
  I7       1.0000 0.50550  0.58640  0.78040  Biso   1.000  I
  I8       1.0000 0.00550  0.08640  0.28040  Biso   1.000  I
  I9       1.0000 0.71960  0.49450  0.08640  Biso   1.000  I
  I10      1.0000 0.41360  0.28040  0.99450  Biso   1.000  I
  I11      1.0000 0.21960  0.99450  0.58640  Biso   1.000  I
  I12      1.0000 0.91360  0.78040  0.49450  Biso   1.000  I
  I13      1.0000 0.99450  0.41360  0.28040  Biso   1.000  I
  I14      1.0000 0.49450  0.91360  0.78040  Biso   1.000  I
  I15      1.0000 0.78040  0.50550  0.58640  Biso   1.000  I
  I16      1.0000 0.08640  0.71960  0.49450  Biso   1.000  I
  I17      1.0000 0.28040  0.00550  0.08640  Biso   1.000  I
  I18      1.0000 0.58640  0.21960  0.99450  Biso   1.000  I
  I19      1.0000 0.49450  0.08640  0.71960  Biso   1.000  I
  I20      1.0000 0.99450  0.58640  0.21960  Biso   1.000  I
  I21      1.0000 0.28040  0.99450  0.41360  Biso   1.000  I
  I22      1.0000 0.58640  0.78040  0.50550  Biso   1.000  I
  I23      1.0000 0.78040  0.49450  0.91360  Biso   1.000  I
  I24      1.0000 0.08640  0.28040  0.00550  Biso   1.000  I
  I25      1.0000 0.16360  0.25550  0.46960  Biso   1.000  I
  I26      1.0000 0.66360  0.75550  0.96960  Biso   1.000  I
  I27      1.0000 0.25550  0.46960  0.16360  Biso   1.000  I
  I28      1.0000 0.46960  0.16360  0.25550  Biso   1.000  I
  I29      1.0000 0.75550  0.96960  0.66360  Biso   1.000  I
  I30      1.0000 0.96960  0.66360  0.75550  Biso   1.000  I
  I31      1.0000 0.83640  0.75550  0.03040  Biso   1.000  I
  I32      1.0000 0.33640  0.25550  0.53040  Biso   1.000  I
  I33      1.0000 0.74450  0.96960  0.33640  Biso   1.000  I
  I34      1.0000 0.53040  0.66360  0.24450  Biso   1.000  I
  I35      1.0000 0.24450  0.46960  0.83640  Biso   1.000  I
  I36      1.0000 0.03040  0.16360  0.74450  Biso   1.000  I
  I37      1.0000 0.66360  0.24450  0.53040  Biso   1.000  I
  I38      1.0000 0.16360  0.74450  0.03040  Biso   1.000  I
  I39      1.0000 0.75550  0.03040  0.83640  Biso   1.000  I
  I40      1.0000 0.96960  0.33640  0.74450  Biso   1.000  I
  I41      1.0000 0.25550  0.53040  0.33640  Biso   1.000  I
  I42      1.0000 0.46960  0.83640  0.24450  Biso   1.000  I
  I43      1.0000 0.33640  0.74450  0.96960  Biso   1.000  I
  I44      1.0000 0.83640  0.24450  0.46960  Biso   1.000  I
  I45      1.0000 0.24450  0.53040  0.66360  Biso   1.000  I
  I46      1.0000 0.03040  0.83640  0.75550  Biso   1.000  I
  I47      1.0000 0.74450  0.03040  0.16360  Biso   1.000  I
  I48      1.0000 0.53040  0.33640  0.25550  Biso   1.000  I
  Cu1      1.0000 0.02300  0.01830  0.19720  Biso   1.000  Cu
  Cu2      1.0000 0.52300  0.51830  0.69720  Biso   1.000  Cu
  Cu3      1.0000 0.19720  0.02300  0.01830  Biso   1.000  Cu
  Cu4      1.0000 0.01830  0.19720  0.02300  Biso   1.000  Cu
  Cu5      1.0000 0.69720  0.52300  0.51830  Biso   1.000  Cu
  Cu6      1.0000 0.51830  0.69720  0.52300  Biso   1.000  Cu
  Cu7      1.0000 0.52300  0.48170  0.80280  Biso   1.000  Cu
  Cu8      1.0000 0.02300  0.98170  0.30280  Biso   1.000  Cu
  Cu9      1.0000 0.69720  0.47700  0.98170  Biso   1.000  Cu
  Cu10     1.0000 0.51830  0.30280  0.97700  Biso   1.000  Cu
  Cu11     1.0000 0.19720  0.97700  0.48170  Biso   1.000  Cu
  Cu12     1.0000 0.01830  0.80280  0.47700  Biso   1.000  Cu
  Cu13     1.0000 0.97700  0.51830  0.30280  Biso   1.000  Cu
  Cu14     1.0000 0.47700  0.01830  0.80280  Biso   1.000  Cu
  Cu15     1.0000 0.80280  0.52300  0.48170  Biso   1.000  Cu
  Cu16     1.0000 0.98170  0.69720  0.47700  Biso   1.000  Cu
  Cu17     1.0000 0.30280  0.02300  0.98170  Biso   1.000  Cu
  Cu18     1.0000 0.48170  0.19720  0.97700  Biso   1.000  Cu
  Cu19     1.0000 0.47700  0.98170  0.69720  Biso   1.000  Cu
  Cu20     1.0000 0.97700  0.48170  0.19720  Biso   1.000  Cu
  Cu21     1.0000 0.30280  0.97700  0.51830  Biso   1.000  Cu
  Cu22     1.0000 0.48170  0.80280  0.52300  Biso   1.000  Cu
  Cu23     1.0000 0.80280  0.47700  0.01830  Biso   1.000  Cu
  Cu24     1.0000 0.98170  0.30280  0.02300  Biso   1.000  Cu
  Cu25     1.0000 0.26830  0.27300  0.44720  Biso   1.000  Cu
  Cu26     1.0000 0.76830  0.77300  0.94720  Biso   1.000  Cu
  Cu27     1.0000 0.27300  0.44720  0.26830  Biso   1.000  Cu
  Cu28     1.0000 0.44720  0.26830  0.27300  Biso   1.000  Cu
  Cu29     1.0000 0.77300  0.94720  0.76830  Biso   1.000  Cu
  Cu30     1.0000 0.94720  0.76830  0.77300  Biso   1.000  Cu
  Cu31     1.0000 0.73170  0.77300  0.05280  Biso   1.000  Cu
  Cu32     1.0000 0.23170  0.27300  0.55280  Biso   1.000  Cu
  Cu33     1.0000 0.72700  0.94720  0.23170  Biso   1.000  Cu
  Cu34     1.0000 0.55280  0.76830  0.22700  Biso   1.000  Cu
  Cu35     1.0000 0.22700  0.44720  0.73170  Biso   1.000  Cu
  Cu36     1.0000 0.05280  0.26830  0.72700  Biso   1.000  Cu
  Cu37     1.0000 0.76830  0.22700  0.55280  Biso   1.000  Cu
  Cu38     1.0000 0.26830  0.72700  0.05280  Biso   1.000  Cu
  Cu39     1.0000 0.77300  0.05280  0.73170  Biso   1.000  Cu
  Cu40     1.0000 0.94720  0.23170  0.72700  Biso   1.000  Cu
  Cu41     1.0000 0.27300  0.55280  0.23170  Biso   1.000  Cu
  Cu42     1.0000 0.44720  0.73170  0.22700  Biso   1.000  Cu
  Cu43     1.0000 0.23170  0.72700  0.94720  Biso   1.000  Cu
  Cu44     1.0000 0.73170  0.22700  0.44720  Biso   1.000  Cu
  Cu45     1.0000 0.22700  0.55280  0.76830  Biso   1.000  Cu
  Cu46     1.0000 0.05280  0.73170  0.77300  Biso   1.000  Cu
  Cu47     1.0000 0.72700  0.05280  0.26830  Biso   1.000  Cu
  Cu48     1.0000 0.55280  0.23170  0.27300  Biso   1.000  Cu
  Rh1      1.0000 0.07600  0.07600  0.07600  Biso   1.000  Rh
  Rh2      1.0000 0.57600  0.57600  0.57600  Biso   1.000  Rh
  Rh3      1.0000 0.57600  0.42400  0.92400  Biso   1.000  Rh
  Rh4      1.0000 0.07600  0.92400  0.42400  Biso   1.000  Rh
  Rh5      1.0000 0.92400  0.57600  0.42400  Biso   1.000  Rh
  Rh6      1.0000 0.42400  0.07600  0.92400  Biso   1.000  Rh
  Rh7      1.0000 0.42400  0.92400  0.57600  Biso   1.000  Rh
  Rh8      1.0000 0.92400  0.42400  0.07600  Biso   1.000  Rh
  Rh9      1.0000 0.32600  0.32600  0.32600  Biso   1.000  Rh
  Rh10     1.0000 0.82600  0.82600  0.82600  Biso   1.000  Rh
  Rh11     1.0000 0.67400  0.82600  0.17400  Biso   1.000  Rh
  Rh12     1.0000 0.17400  0.32600  0.67400  Biso   1.000  Rh
  Rh13     1.0000 0.82600  0.17400  0.67400  Biso   1.000  Rh
  Rh14     1.0000 0.32600  0.67400  0.17400  Biso   1.000  Rh
  Rh15     1.0000 0.17400  0.67400  0.82600  Biso   1.000  Rh
  Rh16     1.0000 0.67400  0.17400  0.32600  Biso   1.000  Rh
  S1       1.0000 0.11470  0.03950  0.16010  Biso   1.000  S
  S2       1.0000 0.61470  0.53950  0.66010  Biso   1.000  S
  S3       1.0000 0.16010  0.11470  0.03950  Biso   1.000  S
  S4       1.0000 0.03950  0.16010  0.11470  Biso   1.000  S
  S5       1.0000 0.66010  0.61470  0.53950  Biso   1.000  S
  S6       1.0000 0.53950  0.66010  0.61470  Biso   1.000  S
  S7       1.0000 0.61470  0.46050  0.83990  Biso   1.000  S
  S8       1.0000 0.11470  0.96050  0.33990  Biso   1.000  S
  S9       1.0000 0.66010  0.38530  0.96050  Biso   1.000  S
  S10      1.0000 0.53950  0.33990  0.88530  Biso   1.000  S
  S11      1.0000 0.16010  0.88530  0.46050  Biso   1.000  S
  S12      1.0000 0.03950  0.83990  0.38530  Biso   1.000  S
  S13      1.0000 0.88530  0.53950  0.33990  Biso   1.000  S
  S14      1.0000 0.38530  0.03950  0.83990  Biso   1.000  S
  S15      1.0000 0.83990  0.61470  0.46050  Biso   1.000  S
  S16      1.0000 0.96050  0.66010  0.38530  Biso   1.000  S
  S17      1.0000 0.33990  0.11470  0.96050  Biso   1.000  S
  S18      1.0000 0.46050  0.16010  0.88530  Biso   1.000  S
  S19      1.0000 0.38530  0.96050  0.66010  Biso   1.000  S
  S20      1.0000 0.88530  0.46050  0.16010  Biso   1.000  S
  S21      1.0000 0.33990  0.88530  0.53950  Biso   1.000  S
  S22      1.0000 0.46050  0.83990  0.61470  Biso   1.000  S
  S23      1.0000 0.83990  0.38530  0.03950  Biso   1.000  S
  S24      1.0000 0.96050  0.33990  0.11470  Biso   1.000  S
  S25      1.0000 0.28950  0.36470  0.41010  Biso   1.000  S
  S26      1.0000 0.78950  0.86470  0.91010  Biso   1.000  S
  S27      1.0000 0.36470  0.41010  0.28950  Biso   1.000  S
  S28      1.0000 0.41010  0.28950  0.36470  Biso   1.000  S
  S29      1.0000 0.86470  0.91010  0.78950  Biso   1.000  S
  S30      1.0000 0.91010  0.78950  0.86470  Biso   1.000  S
  S31      1.0000 0.71050  0.86470  0.08990  Biso   1.000  S
  S32      1.0000 0.21050  0.36470  0.58990  Biso   1.000  S
  S33      1.0000 0.63530  0.91010  0.21050  Biso   1.000  S
  S34      1.0000 0.58990  0.78950  0.13530  Biso   1.000  S
  S35      1.0000 0.13530  0.41010  0.71050  Biso   1.000  S
  S36      1.0000 0.08990  0.28950  0.63530  Biso   1.000  S
  S37      1.0000 0.78950  0.13530  0.58990  Biso   1.000  S
  S38      1.0000 0.28950  0.63530  0.08990  Biso   1.000  S
  S39      1.0000 0.86470  0.08990  0.71050  Biso   1.000  S
  S40      1.0000 0.91010  0.21050  0.63530  Biso   1.000  S
  S41      1.0000 0.36470  0.58990  0.21050  Biso   1.000  S
  S42      1.0000 0.41010  0.71050  0.13530  Biso   1.000  S
  S43      1.0000 0.21050  0.63530  0.91010  Biso   1.000  S
  S44      1.0000 0.71050  0.13530  0.41010  Biso   1.000  S
  S45      1.0000 0.13530  0.58990  0.78950  Biso   1.000  S
  S46      1.0000 0.08990  0.71050  0.86470  Biso   1.000  S
  S47      1.0000 0.63530  0.08990  0.28950  Biso   1.000  S
  S48      1.0000 0.58990  0.21050  0.36470  Biso   1.000  S
  S49      1.0000 0.98370  0.05350  0.10880  Biso   1.000  S
  S50      1.0000 0.48370  0.55350  0.60880  Biso   1.000  S
  S51      1.0000 0.10880  0.98370  0.05350  Biso   1.000  S
  S52      1.0000 0.05350  0.10880  0.98370  Biso   1.000  S
  S53      1.0000 0.60880  0.48370  0.55350  Biso   1.000  S
  S54      1.0000 0.55350  0.60880  0.48370  Biso   1.000  S
  S55      1.0000 0.48370  0.44650  0.89120  Biso   1.000  S
  S56      1.0000 0.98370  0.94650  0.39120  Biso   1.000  S
  S57      1.0000 0.60880  0.51630  0.94650  Biso   1.000  S
  S58      1.0000 0.55350  0.39120  0.01630  Biso   1.000  S
  S59      1.0000 0.10880  0.01630  0.44650  Biso   1.000  S
  S60      1.0000 0.05350  0.89120  0.51630  Biso   1.000  S
  S61      1.0000 0.01630  0.55350  0.39120  Biso   1.000  S
  S62      1.0000 0.51630  0.05350  0.89120  Biso   1.000  S
  S63      1.0000 0.89120  0.48370  0.44650  Biso   1.000  S
  S64      1.0000 0.94650  0.60880  0.51630  Biso   1.000  S
  S65      1.0000 0.39120  0.98370  0.94650  Biso   1.000  S
  S66      1.0000 0.44650  0.10880  0.01630  Biso   1.000  S
  S67      1.0000 0.51630  0.94650  0.60880  Biso   1.000  S
  S68      1.0000 0.01630  0.44650  0.10880  Biso   1.000  S
  S69      1.0000 0.39120  0.01630  0.55350  Biso   1.000  S
  S70      1.0000 0.44650  0.89120  0.48370  Biso   1.000  S
  S71      1.0000 0.89120  0.51630  0.05350  Biso   1.000  S
  S72      1.0000 0.94650  0.39120  0.98370  Biso   1.000  S
  S73      1.0000 0.30350  0.23370  0.35880  Biso   1.000  S
  S74      1.0000 0.80350  0.73370  0.85880  Biso   1.000  S
  S75      1.0000 0.23370  0.35880  0.30350  Biso   1.000  S
  S76      1.0000 0.35880  0.30350  0.23370  Biso   1.000  S
  S77      1.0000 0.73370  0.85880  0.80350  Biso   1.000  S
  S78      1.0000 0.85880  0.80350  0.73370  Biso   1.000  S
  S79      1.0000 0.69650  0.73370  0.14120  Biso   1.000  S
  S80      1.0000 0.19650  0.23370  0.64120  Biso   1.000  S
  S81      1.0000 0.76630  0.85880  0.19650  Biso   1.000  S
  S82      1.0000 0.64120  0.80350  0.26630  Biso   1.000  S
  S83      1.0000 0.26630  0.35880  0.69650  Biso   1.000  S
  S84      1.0000 0.14120  0.30350  0.76630  Biso   1.000  S
  S85      1.0000 0.80350  0.26630  0.64120  Biso   1.000  S
  S86      1.0000 0.30350  0.76630  0.14120  Biso   1.000  S
  S87      1.0000 0.73370  0.14120  0.69650  Biso   1.000  S
  S88      1.0000 0.85880  0.19650  0.76630  Biso   1.000  S
  S89      1.0000 0.23370  0.64120  0.19650  Biso   1.000  S
  S90      1.0000 0.35880  0.69650  0.26630  Biso   1.000  S
  S91      1.0000 0.19650  0.76630  0.85880  Biso   1.000  S
  S92      1.0000 0.69650  0.26630  0.35880  Biso   1.000  S
  S93      1.0000 0.26630  0.64120  0.80350  Biso   1.000  S
  S94      1.0000 0.14120  0.69650  0.73370  Biso   1.000  S
  S95      1.0000 0.76630  0.14120  0.30350  Biso   1.000  S
  S96      1.0000 0.64120  0.19650  0.23370  Biso   1.000  S
  C1       1.0000 0.13000  0.98000  0.12500  Biso   1.000  C
  C2       1.0000 0.63000  0.48000  0.62500  Biso   1.000  C
  C3       1.0000 0.12500  0.13000  0.98000  Biso   1.000  C
  C4       1.0000 0.98000  0.12500  0.13000  Biso   1.000  C
  C5       1.0000 0.62500  0.63000  0.48000  Biso   1.000  C
  C6       1.0000 0.48000  0.62500  0.63000  Biso   1.000  C
  C7       1.0000 0.63000  0.52000  0.87500  Biso   1.000  C
  C8       1.0000 0.13000  0.02000  0.37500  Biso   1.000  C
  C9       1.0000 0.62500  0.37000  0.02000  Biso   1.000  C
  C10      1.0000 0.48000  0.37500  0.87000  Biso   1.000  C
  C11      1.0000 0.12500  0.87000  0.52000  Biso   1.000  C
  C12      1.0000 0.98000  0.87500  0.37000  Biso   1.000  C
  C13      1.0000 0.87000  0.48000  0.37500  Biso   1.000  C
  C14      1.0000 0.37000  0.98000  0.87500  Biso   1.000  C
  C15      1.0000 0.87500  0.63000  0.52000  Biso   1.000  C
  C16      1.0000 0.02000  0.62500  0.37000  Biso   1.000  C
  C17      1.0000 0.37500  0.13000  0.02000  Biso   1.000  C
  C18      1.0000 0.52000  0.12500  0.87000  Biso   1.000  C
  C19      1.0000 0.37000  0.02000  0.62500  Biso   1.000  C
  C20      1.0000 0.87000  0.52000  0.12500  Biso   1.000  C
  C21      1.0000 0.37500  0.87000  0.48000  Biso   1.000  C
  C22      1.0000 0.52000  0.87500  0.63000  Biso   1.000  C
  C23      1.0000 0.87500  0.37000  0.98000  Biso   1.000  C
  C24      1.0000 0.02000  0.37500  0.13000  Biso   1.000  C
  C25      1.0000 0.23000  0.38000  0.37500  Biso   1.000  C
  C26      1.0000 0.73000  0.88000  0.87500  Biso   1.000  C
  C27      1.0000 0.38000  0.37500  0.23000  Biso   1.000  C
  C28      1.0000 0.37500  0.23000  0.38000  Biso   1.000  C
  C29      1.0000 0.88000  0.87500  0.73000  Biso   1.000  C
  C30      1.0000 0.87500  0.73000  0.88000  Biso   1.000  C
  C31      1.0000 0.77000  0.88000  0.12500  Biso   1.000  C
  C32      1.0000 0.27000  0.38000  0.62500  Biso   1.000  C
  C33      1.0000 0.62000  0.87500  0.27000  Biso   1.000  C
  C34      1.0000 0.62500  0.73000  0.12000  Biso   1.000  C
  C35      1.0000 0.12000  0.37500  0.77000  Biso   1.000  C
  C36      1.0000 0.12500  0.23000  0.62000  Biso   1.000  C
  C37      1.0000 0.73000  0.12000  0.62500  Biso   1.000  C
  C38      1.0000 0.23000  0.62000  0.12500  Biso   1.000  C
  C39      1.0000 0.88000  0.12500  0.77000  Biso   1.000  C
  C40      1.0000 0.87500  0.27000  0.62000  Biso   1.000  C
  C41      1.0000 0.38000  0.62500  0.27000  Biso   1.000  C
  C42      1.0000 0.37500  0.77000  0.12000  Biso   1.000  C
  C43      1.0000 0.27000  0.62000  0.87500  Biso   1.000  C
  C44      1.0000 0.77000  0.12000  0.37500  Biso   1.000  C
  C45      1.0000 0.12000  0.62500  0.73000  Biso   1.000  C
  C46      1.0000 0.12500  0.77000  0.88000  Biso   1.000  C
  C47      1.0000 0.62000  0.12500  0.23000  Biso   1.000  C
  C48      1.0000 0.62500  0.27000  0.38000  Biso   1.000  C
  N1       1.0000 0.15700  0.93700  0.14700  Biso   1.000  N
  N2       1.0000 0.65700  0.43700  0.64700  Biso   1.000  N
  N3       1.0000 0.14700  0.15700  0.93700  Biso   1.000  N
  N4       1.0000 0.93700  0.14700  0.15700  Biso   1.000  N
  N5       1.0000 0.64700  0.65700  0.43700  Biso   1.000  N
  N6       1.0000 0.43700  0.64700  0.65700  Biso   1.000  N
  N7       1.0000 0.65700  0.56300  0.85300  Biso   1.000  N
  N8       1.0000 0.15700  0.06300  0.35300  Biso   1.000  N
  N9       1.0000 0.64700  0.34300  0.06300  Biso   1.000  N
  N10      1.0000 0.43700  0.35300  0.84300  Biso   1.000  N
  N11      1.0000 0.14700  0.84300  0.56300  Biso   1.000  N
  N12      1.0000 0.93700  0.85300  0.34300  Biso   1.000  N
  N13      1.0000 0.84300  0.43700  0.35300  Biso   1.000  N
  N14      1.0000 0.34300  0.93700  0.85300  Biso   1.000  N
  N15      1.0000 0.85300  0.65700  0.56300  Biso   1.000  N
  N16      1.0000 0.06300  0.64700  0.34300  Biso   1.000  N
  N17      1.0000 0.35300  0.15700  0.06300  Biso   1.000  N
  N18      1.0000 0.56300  0.14700  0.84300  Biso   1.000  N
  N19      1.0000 0.34300  0.06300  0.64700  Biso   1.000  N
  N20      1.0000 0.84300  0.56300  0.14700  Biso   1.000  N
  N21      1.0000 0.35300  0.84300  0.43700  Biso   1.000  N
  N22      1.0000 0.56300  0.85300  0.65700  Biso   1.000  N
  N23      1.0000 0.85300  0.34300  0.93700  Biso   1.000  N
  N24      1.0000 0.06300  0.35300  0.15700  Biso   1.000  N
  N25      1.0000 0.18700  0.40700  0.39700  Biso   1.000  N
  N26      1.0000 0.68700  0.90700  0.89700  Biso   1.000  N
  N27      1.0000 0.40700  0.39700  0.18700  Biso   1.000  N
  N28      1.0000 0.39700  0.18700  0.40700  Biso   1.000  N
  N29      1.0000 0.90700  0.89700  0.68700  Biso   1.000  N
  N30      1.0000 0.89700  0.68700  0.90700  Biso   1.000  N
  N31      1.0000 0.81300  0.90700  0.10300  Biso   1.000  N
  N32      1.0000 0.31300  0.40700  0.60300  Biso   1.000  N
  N33      1.0000 0.59300  0.89700  0.31300  Biso   1.000  N
  N34      1.0000 0.60300  0.68700  0.09300  Biso   1.000  N
  N35      1.0000 0.09300  0.39700  0.81300  Biso   1.000  N
  N36      1.0000 0.10300  0.18700  0.59300  Biso   1.000  N
  N37      1.0000 0.68700  0.09300  0.60300  Biso   1.000  N
  N38      1.0000 0.18700  0.59300  0.10300  Biso   1.000  N
  N39      1.0000 0.90700  0.10300  0.81300  Biso   1.000  N
  N40      1.0000 0.89700  0.31300  0.59300  Biso   1.000  N
  N41      1.0000 0.40700  0.60300  0.31300  Biso   1.000  N
  N42      1.0000 0.39700  0.81300  0.09300  Biso   1.000  N
  N43      1.0000 0.31300  0.59300  0.89700  Biso   1.000  N
  N44      1.0000 0.81300  0.09300  0.39700  Biso   1.000  N
  N45      1.0000 0.09300  0.60300  0.68700  Biso   1.000  N
  N46      1.0000 0.10300  0.81300  0.90700  Biso   1.000  N
  N47      1.0000 0.59300  0.10300  0.18700  Biso   1.000  N
  N48      1.0000 0.60300  0.31300  0.40700  Biso   1.000  N
  C49      1.0000 0.15900  0.88400  0.11700  Biso   1.000  C
  C50      1.0000 0.65900  0.38400  0.61700  Biso   1.000  C
  C51      1.0000 0.11700  0.15900  0.88400  Biso   1.000  C
  C52      1.0000 0.88400  0.11700  0.15900  Biso   1.000  C
  C53      1.0000 0.61700  0.65900  0.38400  Biso   1.000  C
  C54      1.0000 0.38400  0.61700  0.65900  Biso   1.000  C
  C55      1.0000 0.65900  0.61600  0.88300  Biso   1.000  C
  C56      1.0000 0.15900  0.11600  0.38300  Biso   1.000  C
  C57      1.0000 0.61700  0.34100  0.11600  Biso   1.000  C
  C58      1.0000 0.38400  0.38300  0.84100  Biso   1.000  C
  C59      1.0000 0.11700  0.84100  0.61600  Biso   1.000  C
  C60      1.0000 0.88400  0.88300  0.34100  Biso   1.000  C
  C61      1.0000 0.84100  0.38400  0.38300  Biso   1.000  C
  C62      1.0000 0.34100  0.88400  0.88300  Biso   1.000  C
  C63      1.0000 0.88300  0.65900  0.61600  Biso   1.000  C
  C64      1.0000 0.11600  0.61700  0.34100  Biso   1.000  C
  C65      1.0000 0.38300  0.15900  0.11600  Biso   1.000  C
  C66      1.0000 0.61600  0.11700  0.84100  Biso   1.000  C
  C67      1.0000 0.34100  0.11600  0.61700  Biso   1.000  C
  C68      1.0000 0.84100  0.61600  0.11700  Biso   1.000  C
  C69      1.0000 0.38300  0.84100  0.38400  Biso   1.000  C
  C70      1.0000 0.61600  0.88300  0.65900  Biso   1.000  C
  C71      1.0000 0.88300  0.34100  0.88400  Biso   1.000  C
  C72      1.0000 0.11600  0.38300  0.15900  Biso   1.000  C
  C73      1.0000 0.13400  0.40900  0.36700  Biso   1.000  C
  C74      1.0000 0.63400  0.90900  0.86700  Biso   1.000  C
  C75      1.0000 0.40900  0.36700  0.13400  Biso   1.000  C
  C76      1.0000 0.36700  0.13400  0.40900  Biso   1.000  C
  C77      1.0000 0.90900  0.86700  0.63400  Biso   1.000  C
  C78      1.0000 0.86700  0.63400  0.90900  Biso   1.000  C
  C79      1.0000 0.86600  0.90900  0.13300  Biso   1.000  C
  C80      1.0000 0.36600  0.40900  0.63300  Biso   1.000  C
  C81      1.0000 0.59100  0.86700  0.36600  Biso   1.000  C
  C82      1.0000 0.63300  0.63400  0.09100  Biso   1.000  C
  C83      1.0000 0.09100  0.36700  0.86600  Biso   1.000  C
  C84      1.0000 0.13300  0.13400  0.59100  Biso   1.000  C
  C85      1.0000 0.63400  0.09100  0.63300  Biso   1.000  C
  C86      1.0000 0.13400  0.59100  0.13300  Biso   1.000  C
  C87      1.0000 0.90900  0.13300  0.86600  Biso   1.000  C
  C88      1.0000 0.86700  0.36600  0.59100  Biso   1.000  C
  C89      1.0000 0.40900  0.63300  0.36600  Biso   1.000  C
  C90      1.0000 0.36700  0.86600  0.09100  Biso   1.000  C
  C91      1.0000 0.36600  0.59100  0.86700  Biso   1.000  C
  C92      1.0000 0.86600  0.09100  0.36700  Biso   1.000  C
  C93      1.0000 0.09100  0.63300  0.63400  Biso   1.000  C
  C94      1.0000 0.13300  0.86600  0.90900  Biso   1.000  C
  C95      1.0000 0.59100  0.13300  0.13400  Biso   1.000  C
  C96      1.0000 0.63300  0.36600  0.40900  Biso   1.000  C
  C97      1.0000 0.16800  0.84200  0.16600  Biso   1.000  C
  C98      1.0000 0.66800  0.34200  0.66600  Biso   1.000  C
  C99      1.0000 0.16600  0.16800  0.84200  Biso   1.000  C
  C100     1.0000 0.84200  0.16600  0.16800  Biso   1.000  C
  C101     1.0000 0.66600  0.66800  0.34200  Biso   1.000  C
  C102     1.0000 0.34200  0.66600  0.66800  Biso   1.000  C
  C103     1.0000 0.66800  0.65800  0.83400  Biso   1.000  C
  C104     1.0000 0.16800  0.15800  0.33400  Biso   1.000  C
  C105     1.0000 0.66600  0.33200  0.15800  Biso   1.000  C
  C106     1.0000 0.34200  0.33400  0.83200  Biso   1.000  C
  C107     1.0000 0.16600  0.83200  0.65800  Biso   1.000  C
  C108     1.0000 0.84200  0.83400  0.33200  Biso   1.000  C
  C109     1.0000 0.83200  0.34200  0.33400  Biso   1.000  C
  C110     1.0000 0.33200  0.84200  0.83400  Biso   1.000  C
  C111     1.0000 0.83400  0.66800  0.65800  Biso   1.000  C
  C112     1.0000 0.15800  0.66600  0.33200  Biso   1.000  C
  C113     1.0000 0.33400  0.16800  0.15800  Biso   1.000  C
  C114     1.0000 0.65800  0.16600  0.83200  Biso   1.000  C
  C115     1.0000 0.33200  0.15800  0.66600  Biso   1.000  C
  C116     1.0000 0.83200  0.65800  0.16600  Biso   1.000  C
  C117     1.0000 0.33400  0.83200  0.34200  Biso   1.000  C
  C118     1.0000 0.65800  0.83400  0.66800  Biso   1.000  C
  C119     1.0000 0.83400  0.33200  0.84200  Biso   1.000  C
  C120     1.0000 0.15800  0.33400  0.16800  Biso   1.000  C
  C121     1.0000 0.09200  0.41800  0.41600  Biso   1.000  C
  C122     1.0000 0.59200  0.91800  0.91600  Biso   1.000  C
  C123     1.0000 0.41800  0.41600  0.09200  Biso   1.000  C
  C124     1.0000 0.41600  0.09200  0.41800  Biso   1.000  C
  C125     1.0000 0.91800  0.91600  0.59200  Biso   1.000  C
  C126     1.0000 0.91600  0.59200  0.91800  Biso   1.000  C
  C127     1.0000 0.90800  0.91800  0.08400  Biso   1.000  C
  C128     1.0000 0.40800  0.41800  0.58400  Biso   1.000  C
  C129     1.0000 0.58200  0.91600  0.40800  Biso   1.000  C
  C130     1.0000 0.58400  0.59200  0.08200  Biso   1.000  C
  C131     1.0000 0.08200  0.41600  0.90800  Biso   1.000  C
  C132     1.0000 0.08400  0.09200  0.58200  Biso   1.000  C
  C133     1.0000 0.59200  0.08200  0.58400  Biso   1.000  C
  C134     1.0000 0.09200  0.58200  0.08400  Biso   1.000  C
  C135     1.0000 0.91800  0.08400  0.90800  Biso   1.000  C
  C136     1.0000 0.91600  0.40800  0.58200  Biso   1.000  C
  C137     1.0000 0.41800  0.58400  0.40800  Biso   1.000  C
  C138     1.0000 0.41600  0.90800  0.08200  Biso   1.000  C
  C139     1.0000 0.40800  0.58200  0.91600  Biso   1.000  C
  C140     1.0000 0.90800  0.08200  0.41600  Biso   1.000  C
  C141     1.0000 0.08200  0.58400  0.59200  Biso   1.000  C
  C142     1.0000 0.08400  0.90800  0.91800  Biso   1.000  C
  C143     1.0000 0.58200  0.08400  0.09200  Biso   1.000  C
  C144     1.0000 0.58400  0.40800  0.41800  Biso   1.000  C
  C145     1.0000 0.19800  0.87800  0.21200  Biso   1.000  C
  C146     1.0000 0.69800  0.37800  0.71200  Biso   1.000  C
  C147     1.0000 0.21200  0.19800  0.87800  Biso   1.000  C
  C148     1.0000 0.87800  0.21200  0.19800  Biso   1.000  C
  C149     1.0000 0.71200  0.69800  0.37800  Biso   1.000  C
  C150     1.0000 0.37800  0.71200  0.69800  Biso   1.000  C
  C151     1.0000 0.69800  0.62200  0.78800  Biso   1.000  C
  C152     1.0000 0.19800  0.12200  0.28800  Biso   1.000  C
  C153     1.0000 0.71200  0.30200  0.12200  Biso   1.000  C
  C154     1.0000 0.37800  0.28800  0.80200  Biso   1.000  C
  C155     1.0000 0.21200  0.80200  0.62200  Biso   1.000  C
  C156     1.0000 0.87800  0.78800  0.30200  Biso   1.000  C
  C157     1.0000 0.80200  0.37800  0.28800  Biso   1.000  C
  C158     1.0000 0.30200  0.87800  0.78800  Biso   1.000  C
  C159     1.0000 0.78800  0.69800  0.62200  Biso   1.000  C
  C160     1.0000 0.12200  0.71200  0.30200  Biso   1.000  C
  C161     1.0000 0.28800  0.19800  0.12200  Biso   1.000  C
  C162     1.0000 0.62200  0.21200  0.80200  Biso   1.000  C
  C163     1.0000 0.30200  0.12200  0.71200  Biso   1.000  C
  C164     1.0000 0.80200  0.62200  0.21200  Biso   1.000  C
  C165     1.0000 0.28800  0.80200  0.37800  Biso   1.000  C
  C166     1.0000 0.62200  0.78800  0.69800  Biso   1.000  C
  C167     1.0000 0.78800  0.30200  0.87800  Biso   1.000  C
  C168     1.0000 0.12200  0.28800  0.19800  Biso   1.000  C
  C169     1.0000 0.12800  0.44800  0.46200  Biso   1.000  C
  C170     1.0000 0.62800  0.94800  0.96200  Biso   1.000  C
  C171     1.0000 0.44800  0.46200  0.12800  Biso   1.000  C
  C172     1.0000 0.46200  0.12800  0.44800  Biso   1.000  C
  C173     1.0000 0.94800  0.96200  0.62800  Biso   1.000  C
  C174     1.0000 0.96200  0.62800  0.94800  Biso   1.000  C
  C175     1.0000 0.87200  0.94800  0.03800  Biso   1.000  C
  C176     1.0000 0.37200  0.44800  0.53800  Biso   1.000  C
  C177     1.0000 0.55200  0.96200  0.37200  Biso   1.000  C
  C178     1.0000 0.53800  0.62800  0.05200  Biso   1.000  C
  C179     1.0000 0.05200  0.46200  0.87200  Biso   1.000  C
  C180     1.0000 0.03800  0.12800  0.55200  Biso   1.000  C
  C181     1.0000 0.62800  0.05200  0.53800  Biso   1.000  C
  C182     1.0000 0.12800  0.55200  0.03800  Biso   1.000  C
  C183     1.0000 0.94800  0.03800  0.87200  Biso   1.000  C
  C184     1.0000 0.96200  0.37200  0.55200  Biso   1.000  C
  C185     1.0000 0.44800  0.53800  0.37200  Biso   1.000  C
  C186     1.0000 0.46200  0.87200  0.05200  Biso   1.000  C
  C187     1.0000 0.37200  0.55200  0.96200  Biso   1.000  C
  C188     1.0000 0.87200  0.05200  0.46200  Biso   1.000  C
  C189     1.0000 0.05200  0.53800  0.62800  Biso   1.000  C
  C190     1.0000 0.03800  0.87200  0.94800  Biso   1.000  C
  C191     1.0000 0.55200  0.03800  0.12800  Biso   1.000  C
  C192     1.0000 0.53800  0.37200  0.44800  Biso   1.000  C
  C193     1.0000 0.17200  0.94200  0.21000  Biso   1.000  C
  C194     1.0000 0.67200  0.44200  0.71000  Biso   1.000  C
  C195     1.0000 0.21000  0.17200  0.94200  Biso   1.000  C
  C196     1.0000 0.94200  0.21000  0.17200  Biso   1.000  C
  C197     1.0000 0.71000  0.67200  0.44200  Biso   1.000  C
  C198     1.0000 0.44200  0.71000  0.67200  Biso   1.000  C
  C199     1.0000 0.67200  0.55800  0.79000  Biso   1.000  C
  C200     1.0000 0.17200  0.05800  0.29000  Biso   1.000  C
  C201     1.0000 0.71000  0.32800  0.05800  Biso   1.000  C
  C202     1.0000 0.44200  0.29000  0.82800  Biso   1.000  C
  C203     1.0000 0.21000  0.82800  0.55800  Biso   1.000  C
  C204     1.0000 0.94200  0.79000  0.32800  Biso   1.000  C
  C205     1.0000 0.82800  0.44200  0.29000  Biso   1.000  C
  C206     1.0000 0.32800  0.94200  0.79000  Biso   1.000  C
  C207     1.0000 0.79000  0.67200  0.55800  Biso   1.000  C
  C208     1.0000 0.05800  0.71000  0.32800  Biso   1.000  C
  C209     1.0000 0.29000  0.17200  0.05800  Biso   1.000  C
  C210     1.0000 0.55800  0.21000  0.82800  Biso   1.000  C
  C211     1.0000 0.32800  0.05800  0.71000  Biso   1.000  C
  C212     1.0000 0.82800  0.55800  0.21000  Biso   1.000  C
  C213     1.0000 0.29000  0.82800  0.44200  Biso   1.000  C
  C214     1.0000 0.55800  0.79000  0.67200  Biso   1.000  C
  C215     1.0000 0.79000  0.32800  0.94200  Biso   1.000  C
  C216     1.0000 0.05800  0.29000  0.17200  Biso   1.000  C
  C217     1.0000 0.19200  0.42200  0.46000  Biso   1.000  C
  C218     1.0000 0.69200  0.92200  0.96000  Biso   1.000  C
  C219     1.0000 0.42200  0.46000  0.19200  Biso   1.000  C
  C220     1.0000 0.46000  0.19200  0.42200  Biso   1.000  C
  C221     1.0000 0.92200  0.96000  0.69200  Biso   1.000  C
  C222     1.0000 0.96000  0.69200  0.92200  Biso   1.000  C
  C223     1.0000 0.80800  0.92200  0.04000  Biso   1.000  C
  C224     1.0000 0.30800  0.42200  0.54000  Biso   1.000  C
  C225     1.0000 0.57800  0.96000  0.30800  Biso   1.000  C
  C226     1.0000 0.54000  0.69200  0.07800  Biso   1.000  C
  C227     1.0000 0.07800  0.46000  0.80800  Biso   1.000  C
  C228     1.0000 0.04000  0.19200  0.57800  Biso   1.000  C
  C229     1.0000 0.69200  0.07800  0.54000  Biso   1.000  C
  C230     1.0000 0.19200  0.57800  0.04000  Biso   1.000  C
  C231     1.0000 0.92200  0.04000  0.80800  Biso   1.000  C
  C232     1.0000 0.96000  0.30800  0.57800  Biso   1.000  C
  C233     1.0000 0.42200  0.54000  0.30800  Biso   1.000  C
  C234     1.0000 0.46000  0.80800  0.07800  Biso   1.000  C
  C235     1.0000 0.30800  0.57800  0.96000  Biso   1.000  C
  C236     1.0000 0.80800  0.07800  0.46000  Biso   1.000  C
  C237     1.0000 0.07800  0.54000  0.69200  Biso   1.000  C
  C238     1.0000 0.04000  0.80800  0.92200  Biso   1.000  C
  C239     1.0000 0.57800  0.04000  0.19200  Biso   1.000  C
  C240     1.0000 0.54000  0.30800  0.42200  Biso   1.000  C
  H1       1.0000 0.12400  0.87300  0.09600  Biso   1.000  H
  H2       1.0000 0.62400  0.37300  0.59600  Biso   1.000  H
  H3       1.0000 0.09600  0.12400  0.87300  Biso   1.000  H
  H4       1.0000 0.87300  0.09600  0.12400  Biso   1.000  H
  H5       1.0000 0.59600  0.62400  0.37300  Biso   1.000  H
  H6       1.0000 0.37300  0.59600  0.62400  Biso   1.000  H
  H7       1.0000 0.62400  0.62700  0.90400  Biso   1.000  H
  H8       1.0000 0.12400  0.12700  0.40400  Biso   1.000  H
  H9       1.0000 0.59600  0.37600  0.12700  Biso   1.000  H
  H10      1.0000 0.37300  0.40400  0.87600  Biso   1.000  H
  H11      1.0000 0.09600  0.87600  0.62700  Biso   1.000  H
  H12      1.0000 0.87300  0.90400  0.37600  Biso   1.000  H
  H13      1.0000 0.87600  0.37300  0.40400  Biso   1.000  H
  H14      1.0000 0.37600  0.87300  0.90400  Biso   1.000  H
  H15      1.0000 0.90400  0.62400  0.62700  Biso   1.000  H
  H16      1.0000 0.12700  0.59600  0.37600  Biso   1.000  H
  H17      1.0000 0.40400  0.12400  0.12700  Biso   1.000  H
  H18      1.0000 0.62700  0.09600  0.87600  Biso   1.000  H
  H19      1.0000 0.37600  0.12700  0.59600  Biso   1.000  H
  H20      1.0000 0.87600  0.62700  0.09600  Biso   1.000  H
  H21      1.0000 0.40400  0.87600  0.37300  Biso   1.000  H
  H22      1.0000 0.62700  0.90400  0.62400  Biso   1.000  H
  H23      1.0000 0.90400  0.37600  0.87300  Biso   1.000  H
  H24      1.0000 0.12700  0.40400  0.12400  Biso   1.000  H
  H25      1.0000 0.12300  0.37400  0.34600  Biso   1.000  H
  H26      1.0000 0.62300  0.87400  0.84600  Biso   1.000  H
  H27      1.0000 0.37400  0.34600  0.12300  Biso   1.000  H
  H28      1.0000 0.34600  0.12300  0.37400  Biso   1.000  H
  H29      1.0000 0.87400  0.84600  0.62300  Biso   1.000  H
  H30      1.0000 0.84600  0.62300  0.87400  Biso   1.000  H
  H31      1.0000 0.87700  0.87400  0.15400  Biso   1.000  H
  H32      1.0000 0.37700  0.37400  0.65400  Biso   1.000  H
  H33      1.0000 0.62600  0.84600  0.37700  Biso   1.000  H
  H34      1.0000 0.65400  0.62300  0.12600  Biso   1.000  H
  H35      1.0000 0.12600  0.34600  0.87700  Biso   1.000  H
  H36      1.0000 0.15400  0.12300  0.62600  Biso   1.000  H
  H37      1.0000 0.62300  0.12600  0.65400  Biso   1.000  H
  H38      1.0000 0.12300  0.62600  0.15400  Biso   1.000  H
  H39      1.0000 0.87400  0.15400  0.87700  Biso   1.000  H
  H40      1.0000 0.84600  0.37700  0.62600  Biso   1.000  H
  H41      1.0000 0.37400  0.65400  0.37700  Biso   1.000  H
  H42      1.0000 0.34600  0.87700  0.12600  Biso   1.000  H
  H43      1.0000 0.37700  0.62600  0.84600  Biso   1.000  H
  H44      1.0000 0.87700  0.12600  0.34600  Biso   1.000  H
  H45      1.0000 0.12600  0.65400  0.62300  Biso   1.000  H
  H46      1.0000 0.15400  0.87700  0.87400  Biso   1.000  H
  H47      1.0000 0.62600  0.15400  0.12300  Biso   1.000  H
  H48      1.0000 0.65400  0.37700  0.37400  Biso   1.000  H
  H49      1.0000 0.18800  0.87900  0.09000  Biso   1.000  H
  H50      1.0000 0.68800  0.37900  0.59000  Biso   1.000  H
  H51      1.0000 0.09000  0.18800  0.87900  Biso   1.000  H
  H52      1.0000 0.87900  0.09000  0.18800  Biso   1.000  H
  H53      1.0000 0.59000  0.68800  0.37900  Biso   1.000  H
  H54      1.0000 0.37900  0.59000  0.68800  Biso   1.000  H
  H55      1.0000 0.68800  0.62100  0.91000  Biso   1.000  H
  H56      1.0000 0.18800  0.12100  0.41000  Biso   1.000  H
  H57      1.0000 0.59000  0.31200  0.12100  Biso   1.000  H
  H58      1.0000 0.37900  0.41000  0.81200  Biso   1.000  H
  H59      1.0000 0.09000  0.81200  0.62100  Biso   1.000  H
  H60      1.0000 0.87900  0.91000  0.31200  Biso   1.000  H
  H61      1.0000 0.81200  0.37900  0.41000  Biso   1.000  H
  H62      1.0000 0.31200  0.87900  0.91000  Biso   1.000  H
  H63      1.0000 0.91000  0.68800  0.62100  Biso   1.000  H
  H64      1.0000 0.12100  0.59000  0.31200  Biso   1.000  H
  H65      1.0000 0.41000  0.18800  0.12100  Biso   1.000  H
  H66      1.0000 0.62100  0.09000  0.81200  Biso   1.000  H
  H67      1.0000 0.31200  0.12100  0.59000  Biso   1.000  H
  H68      1.0000 0.81200  0.62100  0.09000  Biso   1.000  H
  H69      1.0000 0.41000  0.81200  0.37900  Biso   1.000  H
  H70      1.0000 0.62100  0.91000  0.68800  Biso   1.000  H
  H71      1.0000 0.91000  0.31200  0.87900  Biso   1.000  H
  H72      1.0000 0.12100  0.41000  0.18800  Biso   1.000  H
  H73      1.0000 0.12900  0.43800  0.34000  Biso   1.000  H
  H74      1.0000 0.62900  0.93800  0.84000  Biso   1.000  H
  H75      1.0000 0.43800  0.34000  0.12900  Biso   1.000  H
  H76      1.0000 0.34000  0.12900  0.43800  Biso   1.000  H
  H77      1.0000 0.93800  0.84000  0.62900  Biso   1.000  H
  H78      1.0000 0.84000  0.62900  0.93800  Biso   1.000  H
  H79      1.0000 0.87100  0.93800  0.16000  Biso   1.000  H
  H80      1.0000 0.37100  0.43800  0.66000  Biso   1.000  H
  H81      1.0000 0.56200  0.84000  0.37100  Biso   1.000  H
  H82      1.0000 0.66000  0.62900  0.06200  Biso   1.000  H
  H83      1.0000 0.06200  0.34000  0.87100  Biso   1.000  H
  H84      1.0000 0.16000  0.12900  0.56200  Biso   1.000  H
  H85      1.0000 0.62900  0.06200  0.66000  Biso   1.000  H
  H86      1.0000 0.12900  0.56200  0.16000  Biso   1.000  H
  H87      1.0000 0.93800  0.16000  0.87100  Biso   1.000  H
  H88      1.0000 0.84000  0.37100  0.56200  Biso   1.000  H
  H89      1.0000 0.43800  0.66000  0.37100  Biso   1.000  H
  H90      1.0000 0.34000  0.87100  0.06200  Biso   1.000  H
  H91      1.0000 0.37100  0.56200  0.84000  Biso   1.000  H
  H92      1.0000 0.87100  0.06200  0.34000  Biso   1.000  H
  H93      1.0000 0.06200  0.66000  0.62900  Biso   1.000  H
  H94      1.0000 0.16000  0.87100  0.93800  Biso   1.000  H
  H95      1.0000 0.56200  0.16000  0.12900  Biso   1.000  H
  H96      1.0000 0.66000  0.37100  0.43800  Biso   1.000  H
  H97      1.0000 0.13000  0.83000  0.17900  Biso   1.000  H
  H98      1.0000 0.63000  0.33000  0.67900  Biso   1.000  H
  H99      1.0000 0.17900  0.13000  0.83000  Biso   1.000  H
  H100     1.0000 0.83000  0.17900  0.13000  Biso   1.000  H
  H101     1.0000 0.67900  0.63000  0.33000  Biso   1.000  H
  H102     1.0000 0.33000  0.67900  0.63000  Biso   1.000  H
  H103     1.0000 0.63000  0.67000  0.82100  Biso   1.000  H
  H104     1.0000 0.13000  0.17000  0.32100  Biso   1.000  H
  H105     1.0000 0.67900  0.37000  0.17000  Biso   1.000  H
  H106     1.0000 0.33000  0.32100  0.87000  Biso   1.000  H
  H107     1.0000 0.17900  0.87000  0.67000  Biso   1.000  H
  H108     1.0000 0.83000  0.82100  0.37000  Biso   1.000  H
  H109     1.0000 0.87000  0.33000  0.32100  Biso   1.000  H
  H110     1.0000 0.37000  0.83000  0.82100  Biso   1.000  H
  H111     1.0000 0.82100  0.63000  0.67000  Biso   1.000  H
  H112     1.0000 0.17000  0.67900  0.37000  Biso   1.000  H
  H113     1.0000 0.32100  0.13000  0.17000  Biso   1.000  H
  H114     1.0000 0.67000  0.17900  0.87000  Biso   1.000  H
  H115     1.0000 0.37000  0.17000  0.67900  Biso   1.000  H
  H116     1.0000 0.87000  0.67000  0.17900  Biso   1.000  H
  H117     1.0000 0.32100  0.87000  0.33000  Biso   1.000  H
  H118     1.0000 0.67000  0.82100  0.63000  Biso   1.000  H
  H119     1.0000 0.82100  0.37000  0.83000  Biso   1.000  H
  H120     1.0000 0.17000  0.32100  0.13000  Biso   1.000  H
  H121     1.0000 0.08000  0.38000  0.42900  Biso   1.000  H
  H122     1.0000 0.58000  0.88000  0.92900  Biso   1.000  H
  H123     1.0000 0.38000  0.42900  0.08000  Biso   1.000  H
  H124     1.0000 0.42900  0.08000  0.38000  Biso   1.000  H
  H125     1.0000 0.88000  0.92900  0.58000  Biso   1.000  H
  H126     1.0000 0.92900  0.58000  0.88000  Biso   1.000  H
  H127     1.0000 0.92000  0.88000  0.07100  Biso   1.000  H
  H128     1.0000 0.42000  0.38000  0.57100  Biso   1.000  H
  H129     1.0000 0.62000  0.92900  0.42000  Biso   1.000  H
  H130     1.0000 0.57100  0.58000  0.12000  Biso   1.000  H
  H131     1.0000 0.12000  0.42900  0.92000  Biso   1.000  H
  H132     1.0000 0.07100  0.08000  0.62000  Biso   1.000  H
  H133     1.0000 0.58000  0.12000  0.57100  Biso   1.000  H
  H134     1.0000 0.08000  0.62000  0.07100  Biso   1.000  H
  H135     1.0000 0.88000  0.07100  0.92000  Biso   1.000  H
  H136     1.0000 0.92900  0.42000  0.62000  Biso   1.000  H
  H137     1.0000 0.38000  0.57100  0.42000  Biso   1.000  H
  H138     1.0000 0.42900  0.92000  0.12000  Biso   1.000  H
  H139     1.0000 0.42000  0.62000  0.92900  Biso   1.000  H
  H140     1.0000 0.92000  0.12000  0.42900  Biso   1.000  H
  H141     1.0000 0.12000  0.57100  0.58000  Biso   1.000  H
  H142     1.0000 0.07100  0.92000  0.88000  Biso   1.000  H
  H143     1.0000 0.62000  0.07100  0.08000  Biso   1.000  H
  H144     1.0000 0.57100  0.42000  0.38000  Biso   1.000  H
  H145     1.0000 0.18700  0.80900  0.15500  Biso   1.000  H
  H146     1.0000 0.68700  0.30900  0.65500  Biso   1.000  H
  H147     1.0000 0.15500  0.18700  0.80900  Biso   1.000  H
  H148     1.0000 0.80900  0.15500  0.18700  Biso   1.000  H
  H149     1.0000 0.65500  0.68700  0.30900  Biso   1.000  H
  H150     1.0000 0.30900  0.65500  0.68700  Biso   1.000  H
  H151     1.0000 0.68700  0.69100  0.84500  Biso   1.000  H
  H152     1.0000 0.18700  0.19100  0.34500  Biso   1.000  H
  H153     1.0000 0.65500  0.31300  0.19100  Biso   1.000  H
  H154     1.0000 0.30900  0.34500  0.81300  Biso   1.000  H
  H155     1.0000 0.15500  0.81300  0.69100  Biso   1.000  H
  H156     1.0000 0.80900  0.84500  0.31300  Biso   1.000  H
  H157     1.0000 0.81300  0.30900  0.34500  Biso   1.000  H
  H158     1.0000 0.31300  0.80900  0.84500  Biso   1.000  H
  H159     1.0000 0.84500  0.68700  0.69100  Biso   1.000  H
  H160     1.0000 0.19100  0.65500  0.31300  Biso   1.000  H
  H161     1.0000 0.34500  0.18700  0.19100  Biso   1.000  H
  H162     1.0000 0.69100  0.15500  0.81300  Biso   1.000  H
  H163     1.0000 0.31300  0.19100  0.65500  Biso   1.000  H
  H164     1.0000 0.81300  0.69100  0.15500  Biso   1.000  H
  H165     1.0000 0.34500  0.81300  0.30900  Biso   1.000  H
  H166     1.0000 0.69100  0.84500  0.68700  Biso   1.000  H
  H167     1.0000 0.84500  0.31300  0.80900  Biso   1.000  H
  H168     1.0000 0.19100  0.34500  0.18700  Biso   1.000  H
  H169     1.0000 0.05900  0.43700  0.40500  Biso   1.000  H
  H170     1.0000 0.55900  0.93700  0.90500  Biso   1.000  H
  H171     1.0000 0.43700  0.40500  0.05900  Biso   1.000  H
  H172     1.0000 0.40500  0.05900  0.43700  Biso   1.000  H
  H173     1.0000 0.93700  0.90500  0.55900  Biso   1.000  H
  H174     1.0000 0.90500  0.55900  0.93700  Biso   1.000  H
  H175     1.0000 0.94100  0.93700  0.09500  Biso   1.000  H
  H176     1.0000 0.44100  0.43700  0.59500  Biso   1.000  H
  H177     1.0000 0.56300  0.90500  0.44100  Biso   1.000  H
  H178     1.0000 0.59500  0.55900  0.06300  Biso   1.000  H
  H179     1.0000 0.06300  0.40500  0.94100  Biso   1.000  H
  H180     1.0000 0.09500  0.05900  0.56300  Biso   1.000  H
  H181     1.0000 0.55900  0.06300  0.59500  Biso   1.000  H
  H182     1.0000 0.05900  0.56300  0.09500  Biso   1.000  H
  H183     1.0000 0.93700  0.09500  0.94100  Biso   1.000  H
  H184     1.0000 0.90500  0.44100  0.56300  Biso   1.000  H
  H185     1.0000 0.43700  0.59500  0.44100  Biso   1.000  H
  H186     1.0000 0.40500  0.94100  0.06300  Biso   1.000  H
  H187     1.0000 0.44100  0.56300  0.90500  Biso   1.000  H
  H188     1.0000 0.94100  0.06300  0.40500  Biso   1.000  H
  H189     1.0000 0.06300  0.59500  0.55900  Biso   1.000  H
  H190     1.0000 0.09500  0.94100  0.93700  Biso   1.000  H
  H191     1.0000 0.56300  0.09500  0.05900  Biso   1.000  H
  H192     1.0000 0.59500  0.44100  0.43700  Biso   1.000  H
  H193     1.0000 0.19000  0.85700  0.24900  Biso   1.000  H
  H194     1.0000 0.69000  0.35700  0.74900  Biso   1.000  H
  H195     1.0000 0.24900  0.19000  0.85700  Biso   1.000  H
  H196     1.0000 0.85700  0.24900  0.19000  Biso   1.000  H
  H197     1.0000 0.74900  0.69000  0.35700  Biso   1.000  H
  H198     1.0000 0.35700  0.74900  0.69000  Biso   1.000  H
  H199     1.0000 0.69000  0.64300  0.75100  Biso   1.000  H
  H200     1.0000 0.19000  0.14300  0.25100  Biso   1.000  H
  H201     1.0000 0.74900  0.31000  0.14300  Biso   1.000  H
  H202     1.0000 0.35700  0.25100  0.81000  Biso   1.000  H
  H203     1.0000 0.24900  0.81000  0.64300  Biso   1.000  H
  H204     1.0000 0.85700  0.75100  0.31000  Biso   1.000  H
  H205     1.0000 0.81000  0.35700  0.25100  Biso   1.000  H
  H206     1.0000 0.31000  0.85700  0.75100  Biso   1.000  H
  H207     1.0000 0.75100  0.69000  0.64300  Biso   1.000  H
  H208     1.0000 0.14300  0.74900  0.31000  Biso   1.000  H
  H209     1.0000 0.25100  0.19000  0.14300  Biso   1.000  H
  H210     1.0000 0.64300  0.24900  0.81000  Biso   1.000  H
  H211     1.0000 0.31000  0.14300  0.74900  Biso   1.000  H
  H212     1.0000 0.81000  0.64300  0.24900  Biso   1.000  H
  H213     1.0000 0.25100  0.81000  0.35700  Biso   1.000  H
  H214     1.0000 0.64300  0.75100  0.69000  Biso   1.000  H
  H215     1.0000 0.75100  0.31000  0.85700  Biso   1.000  H
  H216     1.0000 0.14300  0.25100  0.19000  Biso   1.000  H
  H217     1.0000 0.10700  0.44000  0.49900  Biso   1.000  H
  H218     1.0000 0.60700  0.94000  0.99900  Biso   1.000  H
  H219     1.0000 0.44000  0.49900  0.10700  Biso   1.000  H
  H220     1.0000 0.49900  0.10700  0.44000  Biso   1.000  H
  H221     1.0000 0.94000  0.99900  0.60700  Biso   1.000  H
  H222     1.0000 0.99900  0.60700  0.94000  Biso   1.000  H
  H223     1.0000 0.89300  0.94000  0.00100  Biso   1.000  H
  H224     1.0000 0.39300  0.44000  0.50100  Biso   1.000  H
  H225     1.0000 0.56000  0.99900  0.39300  Biso   1.000  H
  H226     1.0000 0.50100  0.60700  0.06000  Biso   1.000  H
  H227     1.0000 0.06000  0.49900  0.89300  Biso   1.000  H
  H228     1.0000 0.00100  0.10700  0.56000  Biso   1.000  H
  H229     1.0000 0.60700  0.06000  0.50100  Biso   1.000  H
  H230     1.0000 0.10700  0.56000  0.00100  Biso   1.000  H
  H231     1.0000 0.94000  0.00100  0.89300  Biso   1.000  H
  H232     1.0000 0.99900  0.39300  0.56000  Biso   1.000  H
  H233     1.0000 0.44000  0.50100  0.39300  Biso   1.000  H
  H234     1.0000 0.49900  0.89300  0.06000  Biso   1.000  H
  H235     1.0000 0.39300  0.56000  0.99900  Biso   1.000  H
  H236     1.0000 0.89300  0.06000  0.49900  Biso   1.000  H
  H237     1.0000 0.06000  0.50100  0.60700  Biso   1.000  H
  H238     1.0000 0.00100  0.89300  0.94000  Biso   1.000  H
  H239     1.0000 0.56000  0.00100  0.10700  Biso   1.000  H
  H240     1.0000 0.50100  0.39300  0.44000  Biso   1.000  H
  H241     1.0000 0.23700  0.87400  0.20600  Biso   1.000  H
  H242     1.0000 0.73700  0.37400  0.70600  Biso   1.000  H
  H243     1.0000 0.20600  0.23700  0.87400  Biso   1.000  H
  H244     1.0000 0.87400  0.20600  0.23700  Biso   1.000  H
  H245     1.0000 0.70600  0.73700  0.37400  Biso   1.000  H
  H246     1.0000 0.37400  0.70600  0.73700  Biso   1.000  H
  H247     1.0000 0.73700  0.62600  0.79400  Biso   1.000  H
  H248     1.0000 0.23700  0.12600  0.29400  Biso   1.000  H
  H249     1.0000 0.70600  0.26300  0.12600  Biso   1.000  H
  H250     1.0000 0.37400  0.29400  0.76300  Biso   1.000  H
  H251     1.0000 0.20600  0.76300  0.62600  Biso   1.000  H
  H252     1.0000 0.87400  0.79400  0.26300  Biso   1.000  H
  H253     1.0000 0.76300  0.37400  0.29400  Biso   1.000  H
  H254     1.0000 0.26300  0.87400  0.79400  Biso   1.000  H
  H255     1.0000 0.79400  0.73700  0.62600  Biso   1.000  H
  H256     1.0000 0.12600  0.70600  0.26300  Biso   1.000  H
  H257     1.0000 0.29400  0.23700  0.12600  Biso   1.000  H
  H258     1.0000 0.62600  0.20600  0.76300  Biso   1.000  H
  H259     1.0000 0.26300  0.12600  0.70600  Biso   1.000  H
  H260     1.0000 0.76300  0.62600  0.20600  Biso   1.000  H
  H261     1.0000 0.29400  0.76300  0.37400  Biso   1.000  H
  H262     1.0000 0.62600  0.79400  0.73700  Biso   1.000  H
  H263     1.0000 0.79400  0.26300  0.87400  Biso   1.000  H
  H264     1.0000 0.12600  0.29400  0.23700  Biso   1.000  H
  H265     1.0000 0.12400  0.48700  0.45600  Biso   1.000  H
  H266     1.0000 0.62400  0.98700  0.95600  Biso   1.000  H
  H267     1.0000 0.48700  0.45600  0.12400  Biso   1.000  H
  H268     1.0000 0.45600  0.12400  0.48700  Biso   1.000  H
  H269     1.0000 0.98700  0.95600  0.62400  Biso   1.000  H
  H270     1.0000 0.95600  0.62400  0.98700  Biso   1.000  H
  H271     1.0000 0.87600  0.98700  0.04400  Biso   1.000  H
  H272     1.0000 0.37600  0.48700  0.54400  Biso   1.000  H
  H273     1.0000 0.51300  0.95600  0.37600  Biso   1.000  H
  H274     1.0000 0.54400  0.62400  0.01300  Biso   1.000  H
  H275     1.0000 0.01300  0.45600  0.87600  Biso   1.000  H
  H276     1.0000 0.04400  0.12400  0.51300  Biso   1.000  H
  H277     1.0000 0.62400  0.01300  0.54400  Biso   1.000  H
  H278     1.0000 0.12400  0.51300  0.04400  Biso   1.000  H
  H279     1.0000 0.98700  0.04400  0.87600  Biso   1.000  H
  H280     1.0000 0.95600  0.37600  0.51300  Biso   1.000  H
  H281     1.0000 0.48700  0.54400  0.37600  Biso   1.000  H
  H282     1.0000 0.45600  0.87600  0.01300  Biso   1.000  H
  H283     1.0000 0.37600  0.51300  0.95600  Biso   1.000  H
  H284     1.0000 0.87600  0.01300  0.45600  Biso   1.000  H
  H285     1.0000 0.01300  0.54400  0.62400  Biso   1.000  H
  H286     1.0000 0.04400  0.87600  0.98700  Biso   1.000  H
  H287     1.0000 0.51300  0.04400  0.12400  Biso   1.000  H
  H288     1.0000 0.54400  0.37600  0.48700  Biso   1.000  H
  H289     1.0000 0.14100  0.94700  0.23500  Biso   1.000  H
  H290     1.0000 0.64100  0.44700  0.73500  Biso   1.000  H
  H291     1.0000 0.23500  0.14100  0.94700  Biso   1.000  H
  H292     1.0000 0.94700  0.23500  0.14100  Biso   1.000  H
  H293     1.0000 0.73500  0.64100  0.44700  Biso   1.000  H
  H294     1.0000 0.44700  0.73500  0.64100  Biso   1.000  H
  H295     1.0000 0.64100  0.55300  0.76500  Biso   1.000  H
  H296     1.0000 0.14100  0.05300  0.26500  Biso   1.000  H
  H297     1.0000 0.73500  0.35900  0.05300  Biso   1.000  H
  H298     1.0000 0.44700  0.26500  0.85900  Biso   1.000  H
  H299     1.0000 0.23500  0.85900  0.55300  Biso   1.000  H
  H300     1.0000 0.94700  0.76500  0.35900  Biso   1.000  H
  H301     1.0000 0.85900  0.44700  0.26500  Biso   1.000  H
  H302     1.0000 0.35900  0.94700  0.76500  Biso   1.000  H
  H303     1.0000 0.76500  0.64100  0.55300  Biso   1.000  H
  H304     1.0000 0.05300  0.73500  0.35900  Biso   1.000  H
  H305     1.0000 0.26500  0.14100  0.05300  Biso   1.000  H
  H306     1.0000 0.55300  0.23500  0.85900  Biso   1.000  H
  H307     1.0000 0.35900  0.05300  0.73500  Biso   1.000  H
  H308     1.0000 0.85900  0.55300  0.23500  Biso   1.000  H
  H309     1.0000 0.26500  0.85900  0.44700  Biso   1.000  H
  H310     1.0000 0.55300  0.76500  0.64100  Biso   1.000  H
  H311     1.0000 0.76500  0.35900  0.94700  Biso   1.000  H
  H312     1.0000 0.05300  0.26500  0.14100  Biso   1.000  H
  H313     1.0000 0.19700  0.39100  0.48500  Biso   1.000  H
  H314     1.0000 0.69700  0.89100  0.98500  Biso   1.000  H
  H315     1.0000 0.39100  0.48500  0.19700  Biso   1.000  H
  H316     1.0000 0.48500  0.19700  0.39100  Biso   1.000  H
  H317     1.0000 0.89100  0.98500  0.69700  Biso   1.000  H
  H318     1.0000 0.98500  0.69700  0.89100  Biso   1.000  H
  H319     1.0000 0.80300  0.89100  0.01500  Biso   1.000  H
  H320     1.0000 0.30300  0.39100  0.51500  Biso   1.000  H
  H321     1.0000 0.60900  0.98500  0.30300  Biso   1.000  H
  H322     1.0000 0.51500  0.69700  0.10900  Biso   1.000  H
  H323     1.0000 0.10900  0.48500  0.80300  Biso   1.000  H
  H324     1.0000 0.01500  0.19700  0.60900  Biso   1.000  H
  H325     1.0000 0.69700  0.10900  0.51500  Biso   1.000  H
  H326     1.0000 0.19700  0.60900  0.01500  Biso   1.000  H
  H327     1.0000 0.89100  0.01500  0.80300  Biso   1.000  H
  H328     1.0000 0.98500  0.30300  0.60900  Biso   1.000  H
  H329     1.0000 0.39100  0.51500  0.30300  Biso   1.000  H
  H330     1.0000 0.48500  0.80300  0.10900  Biso   1.000  H
  H331     1.0000 0.30300  0.60900  0.98500  Biso   1.000  H
  H332     1.0000 0.80300  0.10900  0.48500  Biso   1.000  H
  H333     1.0000 0.10900  0.51500  0.69700  Biso   1.000  H
  H334     1.0000 0.01500  0.80300  0.89100  Biso   1.000  H
  H335     1.0000 0.60900  0.01500  0.19700  Biso   1.000  H
  H336     1.0000 0.51500  0.30300  0.39100  Biso   1.000  H
  H337     1.0000 0.20000  0.96900  0.21800  Biso   1.000  H
  H338     1.0000 0.70000  0.46900  0.71800  Biso   1.000  H
  H339     1.0000 0.21800  0.20000  0.96900  Biso   1.000  H
  H340     1.0000 0.96900  0.21800  0.20000  Biso   1.000  H
  H341     1.0000 0.71800  0.70000  0.46900  Biso   1.000  H
  H342     1.0000 0.46900  0.71800  0.70000  Biso   1.000  H
  H343     1.0000 0.70000  0.53100  0.78200  Biso   1.000  H
  H344     1.0000 0.20000  0.03100  0.28200  Biso   1.000  H
  H345     1.0000 0.71800  0.30000  0.03100  Biso   1.000  H
  H346     1.0000 0.46900  0.28200  0.80000  Biso   1.000  H
  H347     1.0000 0.21800  0.80000  0.53100  Biso   1.000  H
  H348     1.0000 0.96900  0.78200  0.30000  Biso   1.000  H
  H349     1.0000 0.80000  0.46900  0.28200  Biso   1.000  H
  H350     1.0000 0.30000  0.96900  0.78200  Biso   1.000  H
  H351     1.0000 0.78200  0.70000  0.53100  Biso   1.000  H
  H352     1.0000 0.03100  0.71800  0.30000  Biso   1.000  H
  H353     1.0000 0.28200  0.20000  0.03100  Biso   1.000  H
  H354     1.0000 0.53100  0.21800  0.80000  Biso   1.000  H
  H355     1.0000 0.30000  0.03100  0.71800  Biso   1.000  H
  H356     1.0000 0.80000  0.53100  0.21800  Biso   1.000  H
  H357     1.0000 0.28200  0.80000  0.46900  Biso   1.000  H
  H358     1.0000 0.53100  0.78200  0.70000  Biso   1.000  H
  H359     1.0000 0.78200  0.30000  0.96900  Biso   1.000  H
  H360     1.0000 0.03100  0.28200  0.20000  Biso   1.000  H
  H361     1.0000 0.21900  0.45000  0.46800  Biso   1.000  H
  H362     1.0000 0.71900  0.95000  0.96800  Biso   1.000  H
  H363     1.0000 0.45000  0.46800  0.21900  Biso   1.000  H
  H364     1.0000 0.46800  0.21900  0.45000  Biso   1.000  H
  H365     1.0000 0.95000  0.96800  0.71900  Biso   1.000  H
  H366     1.0000 0.96800  0.71900  0.95000  Biso   1.000  H
  H367     1.0000 0.78100  0.95000  0.03200  Biso   1.000  H
  H368     1.0000 0.28100  0.45000  0.53200  Biso   1.000  H
  H369     1.0000 0.55000  0.96800  0.28100  Biso   1.000  H
  H370     1.0000 0.53200  0.71900  0.05000  Biso   1.000  H
  H371     1.0000 0.05000  0.46800  0.78100  Biso   1.000  H
  H372     1.0000 0.03200  0.21900  0.55000  Biso   1.000  H
  H373     1.0000 0.71900  0.05000  0.53200  Biso   1.000  H
  H374     1.0000 0.21900  0.55000  0.03200  Biso   1.000  H
  H375     1.0000 0.95000  0.03200  0.78100  Biso   1.000  H
  H376     1.0000 0.96800  0.28100  0.55000  Biso   1.000  H
  H377     1.0000 0.45000  0.53200  0.28100  Biso   1.000  H
  H378     1.0000 0.46800  0.78100  0.05000  Biso   1.000  H
  H379     1.0000 0.28100  0.55000  0.96800  Biso   1.000  H
  H380     1.0000 0.78100  0.05000  0.46800  Biso   1.000  H
  H381     1.0000 0.05000  0.53200  0.71900  Biso   1.000  H
  H382     1.0000 0.03200  0.78100  0.95000  Biso   1.000  H
  H383     1.0000 0.55000  0.03200  0.21900  Biso   1.000  H
  H384     1.0000 0.53200  0.28100  0.45000  Biso   1.000  H
