data_image0
_cell_length_a       36.0529
_cell_length_b       36.0529
_cell_length_c       15.5957
_cell_angle_alpha    90
_cell_angle_beta     90
_cell_angle_gamma    90

_symmetry_space_group_name_H-M    "P 1"
_symmetry_int_tables_number       1

loop_
  _symmetry_equiv_pos_as_xyz
  'x, y, z'

loop_
  _atom_site_label
  _atom_site_occupancy
  _atom_site_fract_x
  _atom_site_fract_y
  _atom_site_fract_z
  _atom_site_thermal_displace_type
  _atom_site_B_iso_or_equiv
  _atom_site_type_symbol
  In1      1.0000 0.71547  0.78453  0.50000  Biso   1.000  In
  In2      1.0000 0.78453  0.28453  0.50000  Biso   1.000  In
  In3      1.0000 0.28453  0.21547  0.50000  Biso   1.000  In
  In4      1.0000 0.21547  0.71547  0.50000  Biso   1.000  In
  In5      1.0000 0.78453  0.71547  0.00000  Biso   1.000  In
  In6      1.0000 0.21547  0.28453  0.00000  Biso   1.000  In
  In7      1.0000 0.28453  0.78453  0.00000  Biso   1.000  In
  In8      1.0000 0.71547  0.21547  0.00000  Biso   1.000  In
  I1       1.0000 0.47484  0.75722  0.82588  Biso   1.000  I
  I2       1.0000 0.75722  0.52516  0.17412  Biso   1.000  I
  I3       1.0000 0.52516  0.24278  0.82588  Biso   1.000  I
  I4       1.0000 0.24278  0.47484  0.17412  Biso   1.000  I
  I5       1.0000 0.75722  0.47484  0.67412  Biso   1.000  I
  I6       1.0000 0.24278  0.52516  0.67412  Biso   1.000  I
  I7       1.0000 0.52516  0.75722  0.32588  Biso   1.000  I
  I8       1.0000 0.47484  0.24278  0.32588  Biso   1.000  I
  I9       1.0000 0.97484  0.25722  0.32588  Biso   1.000  I
  I10      1.0000 0.25722  0.02516  0.67412  Biso   1.000  I
  I11      1.0000 0.02516  0.74278  0.32588  Biso   1.000  I
  I12      1.0000 0.74278  0.97484  0.67412  Biso   1.000  I
  I13      1.0000 0.25722  0.97484  0.17412  Biso   1.000  I
  I14      1.0000 0.74278  0.02516  0.17412  Biso   1.000  I
  I15      1.0000 0.02516  0.25722  0.82588  Biso   1.000  I
  I16      1.0000 0.97484  0.74278  0.82588  Biso   1.000  I
  I17      1.0000 0.55246  0.81714  0.01171  Biso   1.000  I
  I18      1.0000 0.81714  0.44754  0.98829  Biso   1.000  I
  I19      1.0000 0.44754  0.18286  0.01171  Biso   1.000  I
  I20      1.0000 0.18286  0.55246  0.98829  Biso   1.000  I
  I21      1.0000 0.81714  0.55246  0.48829  Biso   1.000  I
  I22      1.0000 0.18286  0.44754  0.48829  Biso   1.000  I
  I23      1.0000 0.44754  0.81714  0.51171  Biso   1.000  I
  I24      1.0000 0.55246  0.18286  0.51171  Biso   1.000  I
  I25      1.0000 0.05246  0.31714  0.51171  Biso   1.000  I
  I26      1.0000 0.31714  0.94754  0.48829  Biso   1.000  I
  I27      1.0000 0.94754  0.68286  0.51171  Biso   1.000  I
  I28      1.0000 0.68286  0.05246  0.48829  Biso   1.000  I
  I29      1.0000 0.31714  0.05246  0.98829  Biso   1.000  I
  I30      1.0000 0.68286  0.94754  0.98829  Biso   1.000  I
  I31      1.0000 0.94754  0.31714  0.01171  Biso   1.000  I
  I32      1.0000 0.05246  0.68286  0.01171  Biso   1.000  I
  I33      1.0000 0.59128  0.72554  0.83201  Biso   1.000  I
  I34      1.0000 0.72554  0.40872  0.16799  Biso   1.000  I
  I35      1.0000 0.40872  0.27446  0.83201  Biso   1.000  I
  I36      1.0000 0.27446  0.59128  0.16799  Biso   1.000  I
  I37      1.0000 0.72554  0.59128  0.66799  Biso   1.000  I
  I38      1.0000 0.27446  0.40872  0.66799  Biso   1.000  I
  I39      1.0000 0.40872  0.72554  0.33201  Biso   1.000  I
  I40      1.0000 0.59128  0.27446  0.33201  Biso   1.000  I
  I41      1.0000 0.09128  0.22554  0.33201  Biso   1.000  I
  I42      1.0000 0.22554  0.90872  0.66799  Biso   1.000  I
  I43      1.0000 0.90872  0.77446  0.33201  Biso   1.000  I
  I44      1.0000 0.77446  0.09128  0.66799  Biso   1.000  I
  I45      1.0000 0.22554  0.09128  0.16799  Biso   1.000  I
  I46      1.0000 0.77446  0.90872  0.16799  Biso   1.000  I
  I47      1.0000 0.90872  0.22554  0.83201  Biso   1.000  I
  I48      1.0000 0.09128  0.77446  0.83201  Biso   1.000  I
  I49      1.0000 0.51921  0.70279  0.06230  Biso   1.000  I
  I50      1.0000 0.70279  0.48079  0.93770  Biso   1.000  I
  I51      1.0000 0.48079  0.29721  0.06230  Biso   1.000  I
  I52      1.0000 0.29721  0.51921  0.93770  Biso   1.000  I
  I53      1.0000 0.70279  0.51921  0.43770  Biso   1.000  I
  I54      1.0000 0.29721  0.48079  0.43770  Biso   1.000  I
  I55      1.0000 0.48079  0.70279  0.56230  Biso   1.000  I
  I56      1.0000 0.51921  0.29721  0.56230  Biso   1.000  I
  I57      1.0000 0.01921  0.20279  0.56230  Biso   1.000  I
  I58      1.0000 0.20279  0.98079  0.43770  Biso   1.000  I
  I59      1.0000 0.98079  0.79721  0.56230  Biso   1.000  I
  I60      1.0000 0.79721  0.01921  0.43770  Biso   1.000  I
  I61      1.0000 0.20279  0.01921  0.93770  Biso   1.000  I
  I62      1.0000 0.79721  0.98079  0.93770  Biso   1.000  I
  I63      1.0000 0.98079  0.20279  0.06230  Biso   1.000  I
  I64      1.0000 0.01921  0.79721  0.06230  Biso   1.000  I
  Cu1      1.0000 0.49959  0.76666  0.98549  Biso   1.000  Cu
  Cu2      1.0000 0.76666  0.50041  0.01451  Biso   1.000  Cu
  Cu3      1.0000 0.50041  0.23334  0.98549  Biso   1.000  Cu
  Cu4      1.0000 0.23334  0.49959  0.01451  Biso   1.000  Cu
  Cu5      1.0000 0.76666  0.49959  0.51451  Biso   1.000  Cu
  Cu6      1.0000 0.23334  0.50041  0.51451  Biso   1.000  Cu
  Cu7      1.0000 0.50041  0.76666  0.48549  Biso   1.000  Cu
  Cu8      1.0000 0.49959  0.23334  0.48549  Biso   1.000  Cu
  Cu9      1.0000 0.99959  0.26666  0.48549  Biso   1.000  Cu
  Cu10     1.0000 0.26666  0.00041  0.51451  Biso   1.000  Cu
  Cu11     1.0000 0.00041  0.73334  0.48549  Biso   1.000  Cu
  Cu12     1.0000 0.73334  0.99959  0.51451  Biso   1.000  Cu
  Cu13     1.0000 0.26666  0.99959  0.01451  Biso   1.000  Cu
  Cu14     1.0000 0.73334  0.00041  0.01451  Biso   1.000  Cu
  Cu15     1.0000 0.00041  0.26666  0.98549  Biso   1.000  Cu
  Cu16     1.0000 0.99959  0.73334  0.98549  Biso   1.000  Cu
  Cu17     1.0000 0.54490  0.78122  0.86241  Biso   1.000  Cu
  Cu18     1.0000 0.78122  0.45510  0.13759  Biso   1.000  Cu
  Cu19     1.0000 0.45510  0.21878  0.86241  Biso   1.000  Cu
  Cu20     1.0000 0.21878  0.54490  0.13759  Biso   1.000  Cu
  Cu21     1.0000 0.78122  0.54490  0.63759  Biso   1.000  Cu
  Cu22     1.0000 0.21878  0.45510  0.63759  Biso   1.000  Cu
  Cu23     1.0000 0.45510  0.78122  0.36241  Biso   1.000  Cu
  Cu24     1.0000 0.54490  0.21878  0.36241  Biso   1.000  Cu
  Cu25     1.0000 0.04490  0.28122  0.36241  Biso   1.000  Cu
  Cu26     1.0000 0.28122  0.95510  0.63759  Biso   1.000  Cu
  Cu27     1.0000 0.95510  0.71878  0.36241  Biso   1.000  Cu
  Cu28     1.0000 0.71878  0.04490  0.63759  Biso   1.000  Cu
  Cu29     1.0000 0.28122  0.04490  0.13759  Biso   1.000  Cu
  Cu30     1.0000 0.71878  0.95510  0.13759  Biso   1.000  Cu
  Cu31     1.0000 0.95510  0.28122  0.86241  Biso   1.000  Cu
  Cu32     1.0000 0.04490  0.71878  0.86241  Biso   1.000  Cu
  Cu33     1.0000 0.57202  0.74426  0.99017  Biso   1.000  Cu
  Cu34     1.0000 0.74426  0.42798  0.00983  Biso   1.000  Cu
  Cu35     1.0000 0.42798  0.25574  0.99017  Biso   1.000  Cu
  Cu36     1.0000 0.25574  0.57202  0.00983  Biso   1.000  Cu
  Cu37     1.0000 0.74426  0.57202  0.50983  Biso   1.000  Cu
  Cu38     1.0000 0.25574  0.42798  0.50983  Biso   1.000  Cu
  Cu39     1.0000 0.42798  0.74426  0.49017  Biso   1.000  Cu
  Cu40     1.0000 0.57202  0.25574  0.49017  Biso   1.000  Cu
  Cu41     1.0000 0.07202  0.24426  0.49017  Biso   1.000  Cu
  Cu42     1.0000 0.24426  0.92798  0.50983  Biso   1.000  Cu
  Cu43     1.0000 0.92798  0.75574  0.49017  Biso   1.000  Cu
  Cu44     1.0000 0.75574  0.07202  0.50983  Biso   1.000  Cu
  Cu45     1.0000 0.24426  0.07202  0.00983  Biso   1.000  Cu
  Cu46     1.0000 0.75574  0.92798  0.00983  Biso   1.000  Cu
  Cu47     1.0000 0.92798  0.24426  0.99017  Biso   1.000  Cu
  Cu48     1.0000 0.07202  0.75574  0.99017  Biso   1.000  Cu
  O1       1.0000 0.77723  0.78090  0.48530  Biso   1.000  O
  O2       1.0000 0.78090  0.22277  0.51470  Biso   1.000  O
  O3       1.0000 0.22277  0.21910  0.48530  Biso   1.000  O
  O4       1.0000 0.21910  0.77723  0.51470  Biso   1.000  O
  O5       1.0000 0.78090  0.77723  0.01470  Biso   1.000  O
  O6       1.0000 0.21910  0.22277  0.01470  Biso   1.000  O
  O7       1.0000 0.22277  0.78090  0.98530  Biso   1.000  O
  O8       1.0000 0.77723  0.21910  0.98530  Biso   1.000  O
  O9       1.0000 0.27723  0.28090  0.98530  Biso   1.000  O
  O10      1.0000 0.28090  0.72277  0.01470  Biso   1.000  O
  O11      1.0000 0.72277  0.71910  0.98530  Biso   1.000  O
  O12      1.0000 0.71910  0.27723  0.01470  Biso   1.000  O
  O13      1.0000 0.28090  0.27723  0.51470  Biso   1.000  O
  O14      1.0000 0.71910  0.72277  0.51470  Biso   1.000  O
  O15      1.0000 0.72277  0.28090  0.48530  Biso   1.000  O
  O16      1.0000 0.27723  0.71910  0.48530  Biso   1.000  O
  O17      1.0000 0.75550  0.78230  0.61700  Biso   1.000  O
  O18      1.0000 0.78230  0.24450  0.38300  Biso   1.000  O
  O19      1.0000 0.24450  0.21770  0.61700  Biso   1.000  O
  O20      1.0000 0.21770  0.75550  0.38300  Biso   1.000  O
  O21      1.0000 0.78230  0.75550  0.88300  Biso   1.000  O
  O22      1.0000 0.21770  0.24450  0.88300  Biso   1.000  O
  O23      1.0000 0.24450  0.78230  0.11700  Biso   1.000  O
  O24      1.0000 0.75550  0.21770  0.11700  Biso   1.000  O
  O25      1.0000 0.25550  0.28230  0.11700  Biso   1.000  O
  O26      1.0000 0.28230  0.74450  0.88300  Biso   1.000  O
  O27      1.0000 0.74450  0.71770  0.11700  Biso   1.000  O
  O28      1.0000 0.71770  0.25550  0.88300  Biso   1.000  O
  O29      1.0000 0.28230  0.25550  0.38300  Biso   1.000  O
  O30      1.0000 0.71770  0.74450  0.38300  Biso   1.000  O
  O31      1.0000 0.74450  0.28230  0.61700  Biso   1.000  O
  O32      1.0000 0.25550  0.71770  0.61700  Biso   1.000  O
  C1       1.0000 0.78190  0.77840  0.56320  Biso   1.000  C
  C2       1.0000 0.77840  0.21810  0.43680  Biso   1.000  C
  C3       1.0000 0.21810  0.22160  0.56320  Biso   1.000  C
  C4       1.0000 0.22160  0.78190  0.43680  Biso   1.000  C
  C5       1.0000 0.77840  0.78190  0.93680  Biso   1.000  C
  C6       1.0000 0.22160  0.21810  0.93680  Biso   1.000  C
  C7       1.0000 0.21810  0.77840  0.06320  Biso   1.000  C
  C8       1.0000 0.78190  0.22160  0.06320  Biso   1.000  C
  C9       1.0000 0.28190  0.27840  0.06320  Biso   1.000  C
  C10      1.0000 0.27840  0.71810  0.93680  Biso   1.000  C
  C11      1.0000 0.71810  0.72160  0.06320  Biso   1.000  C
  C12      1.0000 0.72160  0.28190  0.93680  Biso   1.000  C
  C13      1.0000 0.27840  0.28190  0.43680  Biso   1.000  C
  C14      1.0000 0.72160  0.71810  0.43680  Biso   1.000  C
  C15      1.0000 0.71810  0.27840  0.56320  Biso   1.000  C
  C16      1.0000 0.28190  0.72160  0.56320  Biso   1.000  C
  C17      1.0000 0.82030  0.77040  0.59920  Biso   1.000  C
  C18      1.0000 0.77040  0.17970  0.40080  Biso   1.000  C
  C19      1.0000 0.17970  0.22960  0.59920  Biso   1.000  C
  C20      1.0000 0.22960  0.82030  0.40080  Biso   1.000  C
  C21      1.0000 0.77040  0.82030  0.90080  Biso   1.000  C
  C22      1.0000 0.22960  0.17970  0.90080  Biso   1.000  C
  C23      1.0000 0.17970  0.77040  0.09920  Biso   1.000  C
  C24      1.0000 0.82030  0.22960  0.09920  Biso   1.000  C
  C25      1.0000 0.32030  0.27040  0.09920  Biso   1.000  C
  C26      1.0000 0.27040  0.67970  0.90080  Biso   1.000  C
  C27      1.0000 0.67970  0.72960  0.09920  Biso   1.000  C
  C28      1.0000 0.72960  0.32030  0.90080  Biso   1.000  C
  C29      1.0000 0.27040  0.32030  0.40080  Biso   1.000  C
  C30      1.0000 0.72960  0.67970  0.40080  Biso   1.000  C
  C31      1.0000 0.67970  0.27040  0.59920  Biso   1.000  C
  C32      1.0000 0.32030  0.72960  0.59920  Biso   1.000  C
  C33      1.0000 0.82430  0.76120  0.68610  Biso   1.000  C
  C34      1.0000 0.76120  0.17570  0.31390  Biso   1.000  C
  C35      1.0000 0.17570  0.23880  0.68610  Biso   1.000  C
  C36      1.0000 0.23880  0.82430  0.31390  Biso   1.000  C
  C37      1.0000 0.76120  0.82430  0.81390  Biso   1.000  C
  C38      1.0000 0.23880  0.17570  0.81390  Biso   1.000  C
  C39      1.0000 0.17570  0.76120  0.18610  Biso   1.000  C
  C40      1.0000 0.82430  0.23880  0.18610  Biso   1.000  C
  C41      1.0000 0.32430  0.26120  0.18610  Biso   1.000  C
  C42      1.0000 0.26120  0.67570  0.81390  Biso   1.000  C
  C43      1.0000 0.67570  0.73880  0.18610  Biso   1.000  C
  C44      1.0000 0.73880  0.32430  0.81390  Biso   1.000  C
  C45      1.0000 0.26120  0.32430  0.31390  Biso   1.000  C
  C46      1.0000 0.73880  0.67570  0.31390  Biso   1.000  C
  C47      1.0000 0.67570  0.26120  0.68610  Biso   1.000  C
  C48      1.0000 0.32430  0.73880  0.68610  Biso   1.000  C
  C49      1.0000 0.84980  0.77100  0.54320  Biso   1.000  C
  C50      1.0000 0.77100  0.15020  0.45680  Biso   1.000  C
  C51      1.0000 0.15020  0.22900  0.54320  Biso   1.000  C
  C52      1.0000 0.22900  0.84980  0.45680  Biso   1.000  C
  C53      1.0000 0.77100  0.84980  0.95680  Biso   1.000  C
  C54      1.0000 0.22900  0.15020  0.95680  Biso   1.000  C
  C55      1.0000 0.15020  0.77100  0.04320  Biso   1.000  C
  C56      1.0000 0.84980  0.22900  0.04320  Biso   1.000  C
  C57      1.0000 0.34980  0.27100  0.04320  Biso   1.000  C
  C58      1.0000 0.27100  0.65020  0.95680  Biso   1.000  C
  C59      1.0000 0.65020  0.72900  0.04320  Biso   1.000  C
  C60      1.0000 0.72900  0.34980  0.95680  Biso   1.000  C
  C61      1.0000 0.27100  0.34980  0.45680  Biso   1.000  C
  C62      1.0000 0.72900  0.65020  0.45680  Biso   1.000  C
  C63      1.0000 0.65020  0.27100  0.54320  Biso   1.000  C
  C64      1.0000 0.34980  0.72900  0.54320  Biso   1.000  C
  C65      1.0000 0.86020  0.75300  0.71190  Biso   1.000  C
  C66      1.0000 0.75300  0.13980  0.28810  Biso   1.000  C
  C67      1.0000 0.13980  0.24700  0.71190  Biso   1.000  C
  C68      1.0000 0.24700  0.86020  0.28810  Biso   1.000  C
  C69      1.0000 0.75300  0.86020  0.78810  Biso   1.000  C
  C70      1.0000 0.24700  0.13980  0.78810  Biso   1.000  C
  C71      1.0000 0.13980  0.75300  0.21190  Biso   1.000  C
  C72      1.0000 0.86020  0.24700  0.21190  Biso   1.000  C
  C73      1.0000 0.36020  0.25300  0.21190  Biso   1.000  C
  C74      1.0000 0.25300  0.63980  0.78810  Biso   1.000  C
  C75      1.0000 0.63980  0.74700  0.21190  Biso   1.000  C
  C76      1.0000 0.74700  0.36020  0.78810  Biso   1.000  C
  C77      1.0000 0.25300  0.36020  0.28810  Biso   1.000  C
  C78      1.0000 0.74700  0.63980  0.28810  Biso   1.000  C
  C79      1.0000 0.63980  0.25300  0.71190  Biso   1.000  C
  C80      1.0000 0.36020  0.74700  0.71190  Biso   1.000  C
  C81      1.0000 0.89130  0.75160  0.65270  Biso   1.000  C
  C82      1.0000 0.75160  0.10870  0.34730  Biso   1.000  C
  C83      1.0000 0.10870  0.24840  0.65270  Biso   1.000  C
  C84      1.0000 0.24840  0.89130  0.34730  Biso   1.000  C
  C85      1.0000 0.75160  0.89130  0.84730  Biso   1.000  C
  C86      1.0000 0.24840  0.10870  0.84730  Biso   1.000  C
  C87      1.0000 0.10870  0.75160  0.15270  Biso   1.000  C
  C88      1.0000 0.89130  0.24840  0.15270  Biso   1.000  C
  C89      1.0000 0.39130  0.25160  0.15270  Biso   1.000  C
  C90      1.0000 0.25160  0.60870  0.84730  Biso   1.000  C
  C91      1.0000 0.60870  0.74840  0.15270  Biso   1.000  C
  C92      1.0000 0.74840  0.39130  0.84730  Biso   1.000  C
  C93      1.0000 0.25160  0.39130  0.34730  Biso   1.000  C
  C94      1.0000 0.74840  0.60870  0.34730  Biso   1.000  C
  C95      1.0000 0.60870  0.25160  0.65270  Biso   1.000  C
  C96      1.0000 0.39130  0.74840  0.65270  Biso   1.000  C
  N1       1.0000 0.86800  0.74020  0.79660  Biso   1.000  N
  N2       1.0000 0.74020  0.13200  0.20340  Biso   1.000  N
  N3       1.0000 0.13200  0.25980  0.79660  Biso   1.000  N
  N4       1.0000 0.25980  0.86800  0.20340  Biso   1.000  N
  N5       1.0000 0.74020  0.86800  0.70340  Biso   1.000  N
  N6       1.0000 0.25980  0.13200  0.70340  Biso   1.000  N
  N7       1.0000 0.13200  0.74020  0.29660  Biso   1.000  N
  N8       1.0000 0.86800  0.25980  0.29660  Biso   1.000  N
  N9       1.0000 0.36800  0.24020  0.29660  Biso   1.000  N
  N10      1.0000 0.24020  0.63200  0.70340  Biso   1.000  N
  N11      1.0000 0.63200  0.75980  0.29660  Biso   1.000  N
  N12      1.0000 0.75980  0.36800  0.70340  Biso   1.000  N
  N13      1.0000 0.24020  0.36800  0.20340  Biso   1.000  N
  N14      1.0000 0.75980  0.63200  0.20340  Biso   1.000  N
  N15      1.0000 0.63200  0.24020  0.79660  Biso   1.000  N
  N16      1.0000 0.36800  0.75980  0.79660  Biso   1.000  N
  N17      1.0000 0.88450  0.76020  0.57260  Biso   1.000  N
  N18      1.0000 0.76020  0.11550  0.42740  Biso   1.000  N
  N19      1.0000 0.11550  0.23980  0.57260  Biso   1.000  N
  N20      1.0000 0.23980  0.88450  0.42740  Biso   1.000  N
  N21      1.0000 0.76020  0.88450  0.92740  Biso   1.000  N
  N22      1.0000 0.23980  0.11550  0.92740  Biso   1.000  N
  N23      1.0000 0.11550  0.76020  0.07260  Biso   1.000  N
  N24      1.0000 0.88450  0.23980  0.07260  Biso   1.000  N
  N25      1.0000 0.38450  0.26020  0.07260  Biso   1.000  N
  N26      1.0000 0.26020  0.61550  0.92740  Biso   1.000  N
  N27      1.0000 0.61550  0.73980  0.07260  Biso   1.000  N
  N28      1.0000 0.73980  0.38450  0.92740  Biso   1.000  N
  N29      1.0000 0.26020  0.38450  0.42740  Biso   1.000  N
  N30      1.0000 0.73980  0.61550  0.42740  Biso   1.000  N
  N31      1.0000 0.61550  0.26020  0.57260  Biso   1.000  N
  N32      1.0000 0.38450  0.73980  0.57260  Biso   1.000  N
  C97      1.0000 0.60180  0.80530  0.66820  Biso   1.000  C
  C98      1.0000 0.80530  0.39820  0.33180  Biso   1.000  C
  C99      1.0000 0.39820  0.19470  0.66820  Biso   1.000  C
  C100     1.0000 0.19470  0.60180  0.33180  Biso   1.000  C
  C101     1.0000 0.80530  0.60180  0.83180  Biso   1.000  C
  C102     1.0000 0.19470  0.39820  0.83180  Biso   1.000  C
  C103     1.0000 0.39820  0.80530  0.16820  Biso   1.000  C
  C104     1.0000 0.60180  0.19470  0.16820  Biso   1.000  C
  C105     1.0000 0.10180  0.30530  0.16820  Biso   1.000  C
  C106     1.0000 0.30530  0.89820  0.83180  Biso   1.000  C
  C107     1.0000 0.89820  0.69470  0.16820  Biso   1.000  C
  C108     1.0000 0.69470  0.10180  0.83180  Biso   1.000  C
  C109     1.0000 0.30530  0.10180  0.33180  Biso   1.000  C
  C110     1.0000 0.69470  0.89820  0.33180  Biso   1.000  C
  C111     1.0000 0.89820  0.30530  0.66820  Biso   1.000  C
  C112     1.0000 0.10180  0.69470  0.66820  Biso   1.000  C
  N33      1.0000 0.55490  0.82430  0.77560  Biso   1.000  N
  N34      1.0000 0.82430  0.44510  0.22440  Biso   1.000  N
  N35      1.0000 0.44510  0.17570  0.77560  Biso   1.000  N
  N36      1.0000 0.17570  0.55490  0.22440  Biso   1.000  N
  N37      1.0000 0.82430  0.55490  0.72440  Biso   1.000  N
  N38      1.0000 0.17570  0.44510  0.72440  Biso   1.000  N
  N39      1.0000 0.44510  0.82430  0.27560  Biso   1.000  N
  N40      1.0000 0.55490  0.17570  0.27560  Biso   1.000  N
  N41      1.0000 0.05490  0.32430  0.27560  Biso   1.000  N
  N42      1.0000 0.32430  0.94510  0.72440  Biso   1.000  N
  N43      1.0000 0.94510  0.67570  0.27560  Biso   1.000  N
  N44      1.0000 0.67570  0.05490  0.72440  Biso   1.000  N
  N45      1.0000 0.32430  0.05490  0.22440  Biso   1.000  N
  N46      1.0000 0.67570  0.94510  0.22440  Biso   1.000  N
  N47      1.0000 0.94510  0.32430  0.77560  Biso   1.000  N
  N48      1.0000 0.05490  0.67570  0.77560  Biso   1.000  N
  O33      1.0000 0.67340  0.79270  0.60590  Biso   1.000  O
  O34      1.0000 0.79270  0.32660  0.39410  Biso   1.000  O
  O35      1.0000 0.32660  0.20730  0.60590  Biso   1.000  O
  O36      1.0000 0.20730  0.67340  0.39410  Biso   1.000  O
  O37      1.0000 0.79270  0.67340  0.89410  Biso   1.000  O
  O38      1.0000 0.20730  0.32660  0.89410  Biso   1.000  O
  O39      1.0000 0.32660  0.79270  0.10590  Biso   1.000  O
  O40      1.0000 0.67340  0.20730  0.10590  Biso   1.000  O
  O41      1.0000 0.17340  0.29270  0.10590  Biso   1.000  O
  O42      1.0000 0.29270  0.82660  0.89410  Biso   1.000  O
  O43      1.0000 0.82660  0.70730  0.10590  Biso   1.000  O
  O44      1.0000 0.70730  0.17340  0.89410  Biso   1.000  O
  O45      1.0000 0.29270  0.17340  0.39410  Biso   1.000  O
  O46      1.0000 0.70730  0.82660  0.39410  Biso   1.000  O
  O47      1.0000 0.82660  0.29270  0.60590  Biso   1.000  O
  O48      1.0000 0.17340  0.70730  0.60590  Biso   1.000  O
  C113     1.0000 0.56420  0.80930  0.69430  Biso   1.000  C
  C114     1.0000 0.80930  0.43580  0.30570  Biso   1.000  C
  C115     1.0000 0.43580  0.19070  0.69430  Biso   1.000  C
  C116     1.0000 0.19070  0.56420  0.30570  Biso   1.000  C
  C117     1.0000 0.80930  0.56420  0.80570  Biso   1.000  C
  C118     1.0000 0.19070  0.43580  0.80570  Biso   1.000  C
  C119     1.0000 0.43580  0.80930  0.19430  Biso   1.000  C
  C120     1.0000 0.56420  0.19070  0.19430  Biso   1.000  C
  C121     1.0000 0.06420  0.30930  0.19430  Biso   1.000  C
  C122     1.0000 0.30930  0.93580  0.80570  Biso   1.000  C
  C123     1.0000 0.93580  0.69070  0.19430  Biso   1.000  C
  C124     1.0000 0.69070  0.06420  0.80570  Biso   1.000  C
  C125     1.0000 0.30930  0.06420  0.30570  Biso   1.000  C
  C126     1.0000 0.69070  0.93580  0.30570  Biso   1.000  C
  C127     1.0000 0.93580  0.30930  0.69430  Biso   1.000  C
  C128     1.0000 0.06420  0.69070  0.69430  Biso   1.000  C
  O49      1.0000 0.65150  0.77750  0.47880  Biso   1.000  O
  O50      1.0000 0.77750  0.34850  0.52120  Biso   1.000  O
  O51      1.0000 0.34850  0.22250  0.47880  Biso   1.000  O
  O52      1.0000 0.22250  0.65150  0.52120  Biso   1.000  O
  O53      1.0000 0.77750  0.65150  0.02120  Biso   1.000  O
  O54      1.0000 0.22250  0.34850  0.02120  Biso   1.000  O
  O55      1.0000 0.34850  0.77750  0.97880  Biso   1.000  O
  O56      1.0000 0.65150  0.22250  0.97880  Biso   1.000  O
  O57      1.0000 0.15150  0.27750  0.97880  Biso   1.000  O
  O58      1.0000 0.27750  0.84850  0.02120  Biso   1.000  O
  O59      1.0000 0.84850  0.72250  0.97880  Biso   1.000  O
  O60      1.0000 0.72250  0.15150  0.02120  Biso   1.000  O
  O61      1.0000 0.27750  0.15150  0.52120  Biso   1.000  O
  O62      1.0000 0.72250  0.84850  0.52120  Biso   1.000  O
  O63      1.0000 0.84850  0.27750  0.47880  Biso   1.000  O
  O64      1.0000 0.15150  0.72250  0.47880  Biso   1.000  O
  C129     1.0000 0.60800  0.78960  0.58730  Biso   1.000  C
  C130     1.0000 0.78960  0.39200  0.41270  Biso   1.000  C
  C131     1.0000 0.39200  0.21040  0.58730  Biso   1.000  C
  C132     1.0000 0.21040  0.60800  0.41270  Biso   1.000  C
  C133     1.0000 0.78960  0.60800  0.91270  Biso   1.000  C
  C134     1.0000 0.21040  0.39200  0.91270  Biso   1.000  C
  C135     1.0000 0.39200  0.78960  0.08730  Biso   1.000  C
  C136     1.0000 0.60800  0.21040  0.08730  Biso   1.000  C
  C137     1.0000 0.10800  0.28960  0.08730  Biso   1.000  C
  C138     1.0000 0.28960  0.89200  0.91270  Biso   1.000  C
  C139     1.0000 0.89200  0.71040  0.08730  Biso   1.000  C
  C140     1.0000 0.71040  0.10800  0.91270  Biso   1.000  C
  C141     1.0000 0.28960  0.10800  0.41270  Biso   1.000  C
  C142     1.0000 0.71040  0.89200  0.41270  Biso   1.000  C
  C143     1.0000 0.89200  0.28960  0.58730  Biso   1.000  C
  C144     1.0000 0.10800  0.71040  0.58730  Biso   1.000  C
  C145     1.0000 0.53580  0.79920  0.63650  Biso   1.000  C
  C146     1.0000 0.79920  0.46420  0.36350  Biso   1.000  C
  C147     1.0000 0.46420  0.20080  0.63650  Biso   1.000  C
  C148     1.0000 0.20080  0.53580  0.36350  Biso   1.000  C
  C149     1.0000 0.79920  0.53580  0.86350  Biso   1.000  C
  C150     1.0000 0.20080  0.46420  0.86350  Biso   1.000  C
  C151     1.0000 0.46420  0.79920  0.13650  Biso   1.000  C
  C152     1.0000 0.53580  0.20080  0.13650  Biso   1.000  C
  C153     1.0000 0.03580  0.29920  0.13650  Biso   1.000  C
  C154     1.0000 0.29920  0.96420  0.86350  Biso   1.000  C
  C155     1.0000 0.96420  0.70080  0.13650  Biso   1.000  C
  C156     1.0000 0.70080  0.03580  0.86350  Biso   1.000  C
  C157     1.0000 0.29920  0.03580  0.36350  Biso   1.000  C
  C158     1.0000 0.70080  0.96420  0.36350  Biso   1.000  C
  C159     1.0000 0.96420  0.29920  0.63650  Biso   1.000  C
  C160     1.0000 0.03580  0.70080  0.63650  Biso   1.000  C
  C161     1.0000 0.57910  0.78060  0.53370  Biso   1.000  C
  C162     1.0000 0.78060  0.42090  0.46630  Biso   1.000  C
  C163     1.0000 0.42090  0.21940  0.53370  Biso   1.000  C
  C164     1.0000 0.21940  0.57910  0.46630  Biso   1.000  C
  C165     1.0000 0.78060  0.57910  0.96630  Biso   1.000  C
  C166     1.0000 0.21940  0.42090  0.96630  Biso   1.000  C
  C167     1.0000 0.42090  0.78060  0.03370  Biso   1.000  C
  C168     1.0000 0.57910  0.21940  0.03370  Biso   1.000  C
  C169     1.0000 0.07910  0.28060  0.03370  Biso   1.000  C
  C170     1.0000 0.28060  0.92090  0.96630  Biso   1.000  C
  C171     1.0000 0.92090  0.71940  0.03370  Biso   1.000  C
  C172     1.0000 0.71940  0.07910  0.96630  Biso   1.000  C
  C173     1.0000 0.28060  0.07910  0.46630  Biso   1.000  C
  C174     1.0000 0.71940  0.92090  0.46630  Biso   1.000  C
  C175     1.0000 0.92090  0.28060  0.53370  Biso   1.000  C
  C176     1.0000 0.07910  0.71940  0.53370  Biso   1.000  C
  N49      1.0000 0.54270  0.78510  0.55960  Biso   1.000  N
  N50      1.0000 0.78510  0.45730  0.44040  Biso   1.000  N
  N51      1.0000 0.45730  0.21490  0.55960  Biso   1.000  N
  N52      1.0000 0.21490  0.54270  0.44040  Biso   1.000  N
  N53      1.0000 0.78510  0.54270  0.94040  Biso   1.000  N
  N54      1.0000 0.21490  0.45730  0.94040  Biso   1.000  N
  N55      1.0000 0.45730  0.78510  0.05960  Biso   1.000  N
  N56      1.0000 0.54270  0.21490  0.05960  Biso   1.000  N
  N57      1.0000 0.04270  0.28510  0.05960  Biso   1.000  N
  N58      1.0000 0.28510  0.95730  0.94040  Biso   1.000  N
  N59      1.0000 0.95730  0.71490  0.05960  Biso   1.000  N
  N60      1.0000 0.71490  0.04270  0.94040  Biso   1.000  N
  N61      1.0000 0.28510  0.04270  0.44040  Biso   1.000  N
  N62      1.0000 0.71490  0.95730  0.44040  Biso   1.000  N
  N63      1.0000 0.95730  0.28510  0.55960  Biso   1.000  N
  N64      1.0000 0.04270  0.71490  0.55960  Biso   1.000  N
  C177     1.0000 0.64690  0.78700  0.55540  Biso   1.000  C
  C178     1.0000 0.78700  0.35310  0.44460  Biso   1.000  C
  C179     1.0000 0.35310  0.21300  0.55540  Biso   1.000  C
  C180     1.0000 0.21300  0.64690  0.44460  Biso   1.000  C
  C181     1.0000 0.78700  0.64690  0.94460  Biso   1.000  C
  C182     1.0000 0.21300  0.35310  0.94460  Biso   1.000  C
  C183     1.0000 0.35310  0.78700  0.05540  Biso   1.000  C
  C184     1.0000 0.64690  0.21300  0.05540  Biso   1.000  C
  C185     1.0000 0.14690  0.28700  0.05540  Biso   1.000  C
  C186     1.0000 0.28700  0.85310  0.94460  Biso   1.000  C
  C187     1.0000 0.85310  0.71300  0.05540  Biso   1.000  C
  C188     1.0000 0.71300  0.14690  0.94460  Biso   1.000  C
  C189     1.0000 0.28700  0.14690  0.44460  Biso   1.000  C
  C190     1.0000 0.71300  0.85310  0.44460  Biso   1.000  C
  C191     1.0000 0.85310  0.28700  0.55540  Biso   1.000  C
  C192     1.0000 0.14690  0.71300  0.55540  Biso   1.000  C
  Cu49     1.0000 0.52335  0.70930  0.89260  Biso   1.000  Cu
  Cu50     1.0000 0.70930  0.47665  0.10740  Biso   1.000  Cu
  Cu51     1.0000 0.47665  0.29070  0.89260  Biso   1.000  Cu
  Cu52     1.0000 0.29070  0.52335  0.10740  Biso   1.000  Cu
  Cu53     1.0000 0.70930  0.52335  0.60740  Biso   1.000  Cu
  Cu54     1.0000 0.29070  0.47665  0.60740  Biso   1.000  Cu
  Cu55     1.0000 0.47665  0.70930  0.39260  Biso   1.000  Cu
  Cu56     1.0000 0.52335  0.29070  0.39260  Biso   1.000  Cu
  Cu57     1.0000 0.02335  0.20930  0.39260  Biso   1.000  Cu
  Cu58     1.0000 0.20930  0.97665  0.60740  Biso   1.000  Cu
  Cu59     1.0000 0.97665  0.79070  0.39260  Biso   1.000  Cu
  Cu60     1.0000 0.79070  0.02335  0.60740  Biso   1.000  Cu
  Cu61     1.0000 0.20930  0.02335  0.10740  Biso   1.000  Cu
  Cu62     1.0000 0.79070  0.97665  0.10740  Biso   1.000  Cu
  Cu63     1.0000 0.97665  0.20930  0.89260  Biso   1.000  Cu
  Cu64     1.0000 0.02335  0.79070  0.89260  Biso   1.000  Cu
  In9      1.0000 0.50000  0.50000  0.00000  Biso   1.000  In
  In10     1.0000 0.50000  0.50000  0.50000  Biso   1.000  In
  In11     1.0000 0.00000  0.00000  0.50000  Biso   1.000  In
  In12     1.0000 0.00000  0.00000  0.00000  Biso   1.000  In
  C193     1.0000 0.50870  0.59020  0.85410  Biso   1.000  C
  C194     1.0000 0.59020  0.49130  0.14590  Biso   1.000  C
  C195     1.0000 0.49130  0.40980  0.85410  Biso   1.000  C
  C196     1.0000 0.40980  0.50870  0.14590  Biso   1.000  C
  C197     1.0000 0.59020  0.50870  0.64590  Biso   1.000  C
  C198     1.0000 0.40980  0.49130  0.64590  Biso   1.000  C
  C199     1.0000 0.49130  0.59020  0.35410  Biso   1.000  C
  C200     1.0000 0.50870  0.40980  0.35410  Biso   1.000  C
  C201     1.0000 0.00870  0.09020  0.35410  Biso   1.000  C
  C202     1.0000 0.09020  0.99130  0.64590  Biso   1.000  C
  C203     1.0000 0.99130  0.90980  0.35410  Biso   1.000  C
  C204     1.0000 0.90980  0.00870  0.64590  Biso   1.000  C
  C205     1.0000 0.09020  0.00870  0.14590  Biso   1.000  C
  C206     1.0000 0.90980  0.99130  0.14590  Biso   1.000  C
  C207     1.0000 0.99130  0.09020  0.85410  Biso   1.000  C
  C208     1.0000 0.00870  0.90980  0.85410  Biso   1.000  C
  C209     1.0000 0.51380  0.58670  0.76610  Biso   1.000  C
  C210     1.0000 0.58670  0.48620  0.23390  Biso   1.000  C
  C211     1.0000 0.48620  0.41330  0.76610  Biso   1.000  C
  C212     1.0000 0.41330  0.51380  0.23390  Biso   1.000  C
  C213     1.0000 0.58670  0.51380  0.73390  Biso   1.000  C
  C214     1.0000 0.41330  0.48620  0.73390  Biso   1.000  C
  C215     1.0000 0.48620  0.58670  0.26610  Biso   1.000  C
  C216     1.0000 0.51380  0.41330  0.26610  Biso   1.000  C
  C217     1.0000 0.01380  0.08670  0.26610  Biso   1.000  C
  C218     1.0000 0.08670  0.98620  0.73390  Biso   1.000  C
  C219     1.0000 0.98620  0.91330  0.26610  Biso   1.000  C
  C220     1.0000 0.91330  0.01380  0.73390  Biso   1.000  C
  C221     1.0000 0.08670  0.01380  0.23390  Biso   1.000  C
  C222     1.0000 0.91330  0.98620  0.23390  Biso   1.000  C
  C223     1.0000 0.98620  0.08670  0.76610  Biso   1.000  C
  C224     1.0000 0.01380  0.91330  0.76610  Biso   1.000  C
  C225     1.0000 0.51900  0.61810  0.71590  Biso   1.000  C
  C226     1.0000 0.61810  0.48100  0.28410  Biso   1.000  C
  C227     1.0000 0.48100  0.38190  0.71590  Biso   1.000  C
  C228     1.0000 0.38190  0.51900  0.28410  Biso   1.000  C
  C229     1.0000 0.61810  0.51900  0.78410  Biso   1.000  C
  C230     1.0000 0.38190  0.48100  0.78410  Biso   1.000  C
  C231     1.0000 0.48100  0.61810  0.21590  Biso   1.000  C
  C232     1.0000 0.51900  0.38190  0.21590  Biso   1.000  C
  C233     1.0000 0.01900  0.11810  0.21590  Biso   1.000  C
  C234     1.0000 0.11810  0.98100  0.78410  Biso   1.000  C
  C235     1.0000 0.98100  0.88190  0.21590  Biso   1.000  C
  C236     1.0000 0.88190  0.01900  0.78410  Biso   1.000  C
  C237     1.0000 0.11810  0.01900  0.28410  Biso   1.000  C
  C238     1.0000 0.88190  0.98100  0.28410  Biso   1.000  C
  C239     1.0000 0.98100  0.11810  0.71590  Biso   1.000  C
  C240     1.0000 0.01900  0.88190  0.71590  Biso   1.000  C
  C241     1.0000 0.51900  0.65300  0.75360  Biso   1.000  C
  C242     1.0000 0.65300  0.48100  0.24640  Biso   1.000  C
  C243     1.0000 0.48100  0.34700  0.75360  Biso   1.000  C
  C244     1.0000 0.34700  0.51900  0.24640  Biso   1.000  C
  C245     1.0000 0.65300  0.51900  0.74640  Biso   1.000  C
  C246     1.0000 0.34700  0.48100  0.74640  Biso   1.000  C
  C247     1.0000 0.48100  0.65300  0.25360  Biso   1.000  C
  C248     1.0000 0.51900  0.34700  0.25360  Biso   1.000  C
  C249     1.0000 0.01900  0.15300  0.25360  Biso   1.000  C
  C250     1.0000 0.15300  0.98100  0.74640  Biso   1.000  C
  C251     1.0000 0.98100  0.84700  0.25360  Biso   1.000  C
  C252     1.0000 0.84700  0.01900  0.74640  Biso   1.000  C
  C253     1.0000 0.15300  0.01900  0.24640  Biso   1.000  C
  C254     1.0000 0.84700  0.98100  0.24640  Biso   1.000  C
  C255     1.0000 0.98100  0.15300  0.75360  Biso   1.000  C
  C256     1.0000 0.01900  0.84700  0.75360  Biso   1.000  C
  N65      1.0000 0.51380  0.65650  0.84150  Biso   1.000  N
  N66      1.0000 0.65650  0.48620  0.15850  Biso   1.000  N
  N67      1.0000 0.48620  0.34350  0.84150  Biso   1.000  N
  N68      1.0000 0.34350  0.51380  0.15850  Biso   1.000  N
  N69      1.0000 0.65650  0.51380  0.65850  Biso   1.000  N
  N70      1.0000 0.34350  0.48620  0.65850  Biso   1.000  N
  N71      1.0000 0.48620  0.65650  0.34150  Biso   1.000  N
  N72      1.0000 0.51380  0.34350  0.34150  Biso   1.000  N
  N73      1.0000 0.01380  0.15650  0.34150  Biso   1.000  N
  N74      1.0000 0.15650  0.98620  0.65850  Biso   1.000  N
  N75      1.0000 0.98620  0.84350  0.34150  Biso   1.000  N
  N76      1.0000 0.84350  0.01380  0.65850  Biso   1.000  N
  N77      1.0000 0.15650  0.01380  0.15850  Biso   1.000  N
  N78      1.0000 0.84350  0.98620  0.15850  Biso   1.000  N
  N79      1.0000 0.98620  0.15650  0.84150  Biso   1.000  N
  N80      1.0000 0.01380  0.84350  0.84150  Biso   1.000  N
  C257     1.0000 0.50870  0.62510  0.89180  Biso   1.000  C
  C258     1.0000 0.62510  0.49130  0.10820  Biso   1.000  C
  C259     1.0000 0.49130  0.37490  0.89180  Biso   1.000  C
  C260     1.0000 0.37490  0.50870  0.10820  Biso   1.000  C
  C261     1.0000 0.62510  0.50870  0.60820  Biso   1.000  C
  C262     1.0000 0.37490  0.49130  0.60820  Biso   1.000  C
  C263     1.0000 0.49130  0.62510  0.39180  Biso   1.000  C
  C264     1.0000 0.50870  0.37490  0.39180  Biso   1.000  C
  C265     1.0000 0.00870  0.12510  0.39180  Biso   1.000  C
  C266     1.0000 0.12510  0.99130  0.60820  Biso   1.000  C
  C267     1.0000 0.99130  0.87490  0.39180  Biso   1.000  C
  C268     1.0000 0.87490  0.00870  0.60820  Biso   1.000  C
  C269     1.0000 0.12510  0.00870  0.10820  Biso   1.000  C
  C270     1.0000 0.87490  0.99130  0.10820  Biso   1.000  C
  C271     1.0000 0.99130  0.12510  0.89180  Biso   1.000  C
  C272     1.0000 0.00870  0.87490  0.89180  Biso   1.000  C
  C273     1.0000 0.48660  0.56520  0.90840  Biso   1.000  C
  C274     1.0000 0.56520  0.51340  0.09160  Biso   1.000  C
  C275     1.0000 0.51340  0.43480  0.90840  Biso   1.000  C
  C276     1.0000 0.43480  0.48660  0.09160  Biso   1.000  C
  C277     1.0000 0.56520  0.48660  0.59160  Biso   1.000  C
  C278     1.0000 0.43480  0.51340  0.59160  Biso   1.000  C
  C279     1.0000 0.51340  0.56520  0.40840  Biso   1.000  C
  C280     1.0000 0.48660  0.43480  0.40840  Biso   1.000  C
  C281     1.0000 0.98660  0.06520  0.40840  Biso   1.000  C
  C282     1.0000 0.06520  0.01340  0.59160  Biso   1.000  C
  C283     1.0000 0.01340  0.93480  0.40840  Biso   1.000  C
  C284     1.0000 0.93480  0.98660  0.59160  Biso   1.000  C
  C285     1.0000 0.06520  0.98660  0.09160  Biso   1.000  C
  C286     1.0000 0.93480  0.01340  0.09160  Biso   1.000  C
  C287     1.0000 0.01340  0.06520  0.90840  Biso   1.000  C
  C288     1.0000 0.98660  0.93480  0.90840  Biso   1.000  C
  N81      1.0000 0.53240  0.61630  0.62400  Biso   1.000  N
  N82      1.0000 0.61630  0.46760  0.37600  Biso   1.000  N
  N83      1.0000 0.46760  0.38370  0.62400  Biso   1.000  N
  N84      1.0000 0.38370  0.53240  0.37600  Biso   1.000  N
  N85      1.0000 0.61630  0.53240  0.87600  Biso   1.000  N
  N86      1.0000 0.38370  0.46760  0.87600  Biso   1.000  N
  N87      1.0000 0.46760  0.61630  0.12400  Biso   1.000  N
  N88      1.0000 0.53240  0.38370  0.12400  Biso   1.000  N
  N89      1.0000 0.03240  0.11630  0.12400  Biso   1.000  N
  N90      1.0000 0.11630  0.96760  0.87600  Biso   1.000  N
  N91      1.0000 0.96760  0.88370  0.12400  Biso   1.000  N
  N92      1.0000 0.88370  0.03240  0.87600  Biso   1.000  N
  N93      1.0000 0.11630  0.03240  0.37600  Biso   1.000  N
  N94      1.0000 0.88370  0.96760  0.37600  Biso   1.000  N
  N95      1.0000 0.96760  0.11630  0.62400  Biso   1.000  N
  N96      1.0000 0.03240  0.88370  0.62400  Biso   1.000  N
  O65      1.0000 0.50930  0.53040  0.88330  Biso   1.000  O
  O66      1.0000 0.53040  0.49070  0.11670  Biso   1.000  O
  O67      1.0000 0.49070  0.46960  0.88330  Biso   1.000  O
  O68      1.0000 0.46960  0.50930  0.11670  Biso   1.000  O
  O69      1.0000 0.53040  0.50930  0.61670  Biso   1.000  O
  O70      1.0000 0.46960  0.49070  0.61670  Biso   1.000  O
  O71      1.0000 0.49070  0.53040  0.38330  Biso   1.000  O
  O72      1.0000 0.50930  0.46960  0.38330  Biso   1.000  O
  O73      1.0000 0.00930  0.03040  0.38330  Biso   1.000  O
  O74      1.0000 0.03040  0.99070  0.61670  Biso   1.000  O
  O75      1.0000 0.99070  0.96960  0.38330  Biso   1.000  O
  O76      1.0000 0.96960  0.00930  0.61670  Biso   1.000  O
  O77      1.0000 0.03040  0.00930  0.11670  Biso   1.000  O
  O78      1.0000 0.96960  0.99070  0.11670  Biso   1.000  O
  O79      1.0000 0.99070  0.03040  0.88330  Biso   1.000  O
  O80      1.0000 0.00930  0.96960  0.88330  Biso   1.000  O
  O81      1.0000 0.50250  0.55830  0.98160  Biso   1.000  O
  O82      1.0000 0.55830  0.49750  0.01840  Biso   1.000  O
  O83      1.0000 0.49750  0.44170  0.98160  Biso   1.000  O
  O84      1.0000 0.44170  0.50250  0.01840  Biso   1.000  O
  O85      1.0000 0.55830  0.50250  0.51840  Biso   1.000  O
  O86      1.0000 0.44170  0.49750  0.51840  Biso   1.000  O
  O87      1.0000 0.49750  0.55830  0.48160  Biso   1.000  O
  O88      1.0000 0.50250  0.44170  0.48160  Biso   1.000  O
  O89      1.0000 0.00250  0.05830  0.48160  Biso   1.000  O
  O90      1.0000 0.05830  0.99750  0.51840  Biso   1.000  O
  O91      1.0000 0.99750  0.94170  0.48160  Biso   1.000  O
  O92      1.0000 0.94170  0.00250  0.51840  Biso   1.000  O
  O93      1.0000 0.05830  0.00250  0.01840  Biso   1.000  O
  O94      1.0000 0.94170  0.99750  0.01840  Biso   1.000  O
  O95      1.0000 0.99750  0.05830  0.98160  Biso   1.000  O
  O96      1.0000 0.00250  0.94170  0.98160  Biso   1.000  O
  O97      1.0000 0.60940  0.62840  0.00000  Biso   1.000  O
  O98      1.0000 0.62840  0.39060  0.00000  Biso   1.000  O
  O99      1.0000 0.39060  0.37160  0.00000  Biso   1.000  O
  O100     1.0000 0.37160  0.60940  0.00000  Biso   1.000  O
  O101     1.0000 0.62840  0.60940  0.50000  Biso   1.000  O
  O102     1.0000 0.37160  0.39060  0.50000  Biso   1.000  O
  O103     1.0000 0.39060  0.62840  0.50000  Biso   1.000  O
  O104     1.0000 0.60940  0.37160  0.50000  Biso   1.000  O
  O105     1.0000 0.10940  0.12840  0.50000  Biso   1.000  O
  O106     1.0000 0.12840  0.89060  0.50000  Biso   1.000  O
  O107     1.0000 0.89060  0.87160  0.50000  Biso   1.000  O
  O108     1.0000 0.87160  0.10940  0.50000  Biso   1.000  O
  O109     1.0000 0.12840  0.10940  0.00000  Biso   1.000  O
  O110     1.0000 0.87160  0.89060  0.00000  Biso   1.000  O
  O111     1.0000 0.89060  0.12840  0.00000  Biso   1.000  O
  O112     1.0000 0.10940  0.87160  0.00000  Biso   1.000  O
  O113     1.0000 0.48510  0.86410  0.75870  Biso   1.000  O
  O114     1.0000 0.86410  0.51490  0.24130  Biso   1.000  O
  O115     1.0000 0.51490  0.13590  0.75870  Biso   1.000  O
  O116     1.0000 0.13590  0.48510  0.24130  Biso   1.000  O
  O117     1.0000 0.86410  0.48510  0.74130  Biso   1.000  O
  O118     1.0000 0.13590  0.51490  0.74130  Biso   1.000  O
  O119     1.0000 0.51490  0.86410  0.25870  Biso   1.000  O
  O120     1.0000 0.48510  0.13590  0.25870  Biso   1.000  O
  O121     1.0000 0.98510  0.36410  0.25870  Biso   1.000  O
  O122     1.0000 0.36410  0.01490  0.74130  Biso   1.000  O
  O123     1.0000 0.01490  0.63590  0.25870  Biso   1.000  O
  O124     1.0000 0.63590  0.98510  0.74130  Biso   1.000  O
  O125     1.0000 0.36410  0.98510  0.24130  Biso   1.000  O
  O126     1.0000 0.63590  0.01490  0.24130  Biso   1.000  O
  O127     1.0000 0.01490  0.36410  0.75870  Biso   1.000  O
  O128     1.0000 0.98510  0.63590  0.75870  Biso   1.000  O
  N97      1.0000 0.43420  0.85860  0.85220  Biso   1.000  N
  N98      1.0000 0.85860  0.56580  0.14780  Biso   1.000  N
  N99      1.0000 0.56580  0.14140  0.85220  Biso   1.000  N
  N100     1.0000 0.14140  0.43420  0.14780  Biso   1.000  N
  N101     1.0000 0.85860  0.43420  0.64780  Biso   1.000  N
  N102     1.0000 0.14140  0.56580  0.64780  Biso   1.000  N
  N103     1.0000 0.56580  0.85860  0.35220  Biso   1.000  N
  N104     1.0000 0.43420  0.14140  0.35220  Biso   1.000  N
  N105     1.0000 0.93420  0.35860  0.35220  Biso   1.000  N
  N106     1.0000 0.35860  0.06580  0.64780  Biso   1.000  N
  N107     1.0000 0.06580  0.64140  0.35220  Biso   1.000  N
  N108     1.0000 0.64140  0.93420  0.64780  Biso   1.000  N
  N109     1.0000 0.35860  0.93420  0.14780  Biso   1.000  N
  N110     1.0000 0.64140  0.06580  0.14780  Biso   1.000  N
  N111     1.0000 0.06580  0.35860  0.85220  Biso   1.000  N
  N112     1.0000 0.93420  0.64140  0.85220  Biso   1.000  N
  C289     1.0000 0.44800  0.85260  0.76710  Biso   1.000  C
  C290     1.0000 0.85260  0.55200  0.23290  Biso   1.000  C
  C291     1.0000 0.55200  0.14740  0.76710  Biso   1.000  C
  C292     1.0000 0.14740  0.44800  0.23290  Biso   1.000  C
  C293     1.0000 0.85260  0.44800  0.73290  Biso   1.000  C
  C294     1.0000 0.14740  0.55200  0.73290  Biso   1.000  C
  C295     1.0000 0.55200  0.85260  0.26710  Biso   1.000  C
  C296     1.0000 0.44800  0.14740  0.26710  Biso   1.000  C
  C297     1.0000 0.94800  0.35260  0.26710  Biso   1.000  C
  C298     1.0000 0.35260  0.05200  0.73290  Biso   1.000  C
  C299     1.0000 0.05200  0.64740  0.26710  Biso   1.000  C
  C300     1.0000 0.64740  0.94800  0.73290  Biso   1.000  C
  C301     1.0000 0.35260  0.94800  0.23290  Biso   1.000  C
  C302     1.0000 0.64740  0.05200  0.23290  Biso   1.000  C
  C303     1.0000 0.05200  0.35260  0.76710  Biso   1.000  C
  C304     1.0000 0.94800  0.64740  0.76710  Biso   1.000  C
  C305     1.0000 0.39420  0.85290  0.85300  Biso   1.000  C
  C306     1.0000 0.85290  0.60580  0.14700  Biso   1.000  C
  C307     1.0000 0.60580  0.14710  0.85300  Biso   1.000  C
  C308     1.0000 0.14710  0.39420  0.14700  Biso   1.000  C
  C309     1.0000 0.85290  0.39420  0.64700  Biso   1.000  C
  C310     1.0000 0.14710  0.60580  0.64700  Biso   1.000  C
  C311     1.0000 0.60580  0.85290  0.35300  Biso   1.000  C
  C312     1.0000 0.39420  0.14710  0.35300  Biso   1.000  C
  C313     1.0000 0.89420  0.35290  0.35300  Biso   1.000  C
  C314     1.0000 0.35290  0.10580  0.64700  Biso   1.000  C
  C315     1.0000 0.10580  0.64710  0.35300  Biso   1.000  C
  C316     1.0000 0.64710  0.89420  0.64700  Biso   1.000  C
  C317     1.0000 0.35290  0.89420  0.14700  Biso   1.000  C
  C318     1.0000 0.64710  0.10580  0.14700  Biso   1.000  C
  C319     1.0000 0.10580  0.35290  0.85300  Biso   1.000  C
  C320     1.0000 0.89420  0.64710  0.85300  Biso   1.000  C
  C321     1.0000 0.45880  0.87070  0.93010  Biso   1.000  C
  C322     1.0000 0.87070  0.54120  0.06990  Biso   1.000  C
  C323     1.0000 0.54120  0.12930  0.93010  Biso   1.000  C
  C324     1.0000 0.12930  0.45880  0.06990  Biso   1.000  C
  C325     1.0000 0.87070  0.45880  0.56990  Biso   1.000  C
  C326     1.0000 0.12930  0.54120  0.56990  Biso   1.000  C
  C327     1.0000 0.54120  0.87070  0.43010  Biso   1.000  C
  C328     1.0000 0.45880  0.12930  0.43010  Biso   1.000  C
  C329     1.0000 0.95880  0.37070  0.43010  Biso   1.000  C
  C330     1.0000 0.37070  0.04120  0.56990  Biso   1.000  C
  C331     1.0000 0.04120  0.62930  0.43010  Biso   1.000  C
  C332     1.0000 0.62930  0.95880  0.56990  Biso   1.000  C
  C333     1.0000 0.37070  0.95880  0.06990  Biso   1.000  C
  C334     1.0000 0.62930  0.04120  0.06990  Biso   1.000  C
  C335     1.0000 0.04120  0.37070  0.93010  Biso   1.000  C
  C336     1.0000 0.95880  0.62930  0.93010  Biso   1.000  C
  O129     1.0000 0.83320  0.65850  0.54600  Biso   1.000  O
  O130     1.0000 0.65850  0.16680  0.45400  Biso   1.000  O
  O131     1.0000 0.16680  0.34150  0.54600  Biso   1.000  O
  O132     1.0000 0.34150  0.83320  0.45400  Biso   1.000  O
  O133     1.0000 0.65850  0.83320  0.95400  Biso   1.000  O
  O134     1.0000 0.34150  0.16680  0.95400  Biso   1.000  O
  O135     1.0000 0.16680  0.65850  0.04600  Biso   1.000  O
  O136     1.0000 0.83320  0.34150  0.04600  Biso   1.000  O
  O137     1.0000 0.33320  0.15850  0.04600  Biso   1.000  O
  O138     1.0000 0.15850  0.66680  0.95400  Biso   1.000  O
  O139     1.0000 0.66680  0.84150  0.04600  Biso   1.000  O
  O140     1.0000 0.84150  0.33320  0.95400  Biso   1.000  O
  O141     1.0000 0.15850  0.33320  0.45400  Biso   1.000  O
  O142     1.0000 0.84150  0.66680  0.45400  Biso   1.000  O
  O143     1.0000 0.66680  0.15850  0.54600  Biso   1.000  O
  O144     1.0000 0.33320  0.84150  0.54600  Biso   1.000  O
