data_image0
_cell_length_a       11.4602
_cell_length_b       22.8607
_cell_length_c       30.7886
_cell_angle_alpha    90
_cell_angle_beta     96.017
_cell_angle_gamma    90

_symmetry_space_group_name_H-M    "P 1"
_symmetry_int_tables_number       1

loop_
  _symmetry_equiv_pos_as_xyz
  'x, y, z'

loop_
  _atom_site_label
  _atom_site_occupancy
  _atom_site_fract_x
  _atom_site_fract_y
  _atom_site_fract_z
  _atom_site_thermal_displace_type
  _atom_site_B_iso_or_equiv
  _atom_site_type_symbol
  Cu1      1.0000 0.87961  0.20879  0.56226  Biso   1.000  Cu
  Cu2      1.0000 0.12039  0.70879  0.93774  Biso   1.000  Cu
  Cu3      1.0000 0.12039  0.79121  0.43774  Biso   1.000  Cu
  Cu4      1.0000 0.87961  0.29121  0.06226  Biso   1.000  Cu
  Cu5      1.0000 0.73145  0.21370  0.67949  Biso   1.000  Cu
  Cu6      1.0000 0.26855  0.71370  0.82051  Biso   1.000  Cu
  Cu7      1.0000 0.26855  0.78630  0.32051  Biso   1.000  Cu
  Cu8      1.0000 0.73145  0.28630  0.17949  Biso   1.000  Cu
  Cu9      1.0000 0.97124  0.17884  0.65824  Biso   1.000  Cu
  Cu10     1.0000 0.02876  0.67884  0.84176  Biso   1.000  Cu
  Cu11     1.0000 0.02876  0.82116  0.34176  Biso   1.000  Cu
  Cu12     1.0000 0.97124  0.32116  0.15824  Biso   1.000  Cu
  Cu13     1.0000 0.79406  0.31867  0.61494  Biso   1.000  Cu
  Cu14     1.0000 0.20594  0.81867  0.88506  Biso   1.000  Cu
  Cu15     1.0000 0.20594  0.68133  0.38506  Biso   1.000  Cu
  Cu16     1.0000 0.79406  0.18133  0.11494  Biso   1.000  Cu
  Cu17     1.0000 0.65902  0.17037  0.58939  Biso   1.000  Cu
  Cu18     1.0000 0.34098  0.67037  0.91061  Biso   1.000  Cu
  Cu19     1.0000 0.34098  0.82963  0.41061  Biso   1.000  Cu
  Cu20     1.0000 0.65902  0.32963  0.08939  Biso   1.000  Cu
  Cu21     1.0000 0.00439  0.38986  0.38819  Biso   1.000  Cu
  Cu22     1.0000 0.99561  0.88986  0.11181  Biso   1.000  Cu
  Cu23     1.0000 0.99561  0.61014  0.61181  Biso   1.000  Cu
  Cu24     1.0000 0.00439  0.11014  0.88819  Biso   1.000  Cu
  Cu25     1.0000 0.65041  0.08961  0.33945  Biso   1.000  Cu
  Cu26     1.0000 0.34959  0.58961  0.16055  Biso   1.000  Cu
  Cu27     1.0000 0.34959  0.91039  0.66055  Biso   1.000  Cu
  Cu28     1.0000 0.65041  0.41039  0.83945  Biso   1.000  Cu
  N1       1.0000 0.02620  0.36470  0.44942  Biso   1.000  N
  N2       1.0000 0.97380  0.86470  0.05058  Biso   1.000  N
  N3       1.0000 0.97380  0.63530  0.55058  Biso   1.000  N
  N4       1.0000 0.02620  0.13530  0.94942  Biso   1.000  N
  N5       1.0000 0.01830  0.25200  0.59178  Biso   1.000  N
  N6       1.0000 0.98170  0.75200  0.90822  Biso   1.000  N
  N7       1.0000 0.98170  0.74800  0.40822  Biso   1.000  N
  N8       1.0000 0.01830  0.24800  0.09178  Biso   1.000  N
  N9       1.0000 0.05040  0.24130  0.63473  Biso   1.000  N
  N10      1.0000 0.94960  0.74130  0.86527  Biso   1.000  N
  N11      1.0000 0.94960  0.75870  0.36527  Biso   1.000  N
  N12      1.0000 0.05040  0.25870  0.13473  Biso   1.000  N
  N13      1.0000 0.27190  0.29690  0.78350  Biso   1.000  N
  N14      1.0000 0.72810  0.79690  0.71650  Biso   1.000  N
  N15      1.0000 0.72810  0.70310  0.21650  Biso   1.000  N
  N16      1.0000 0.27190  0.20310  0.28350  Biso   1.000  N
  N17      1.0000 0.70590  0.14980  0.38743  Biso   1.000  N
  N18      1.0000 0.29410  0.64980  0.11257  Biso   1.000  N
  N19      1.0000 0.29410  0.85020  0.61257  Biso   1.000  N
  N20      1.0000 0.70590  0.35020  0.88743  Biso   1.000  N
  N21      1.0000 0.76850  0.26570  0.53265  Biso   1.000  N
  N22      1.0000 0.23150  0.76570  0.96735  Biso   1.000  N
  N23      1.0000 0.23150  0.73430  0.46735  Biso   1.000  N
  N24      1.0000 0.76850  0.23430  0.03265  Biso   1.000  N
  N25      1.0000 0.75300  0.31680  0.55457  Biso   1.000  N
  N26      1.0000 0.24700  0.81680  0.94543  Biso   1.000  N
  N27      1.0000 0.24700  0.68320  0.44543  Biso   1.000  N
  N28      1.0000 0.75300  0.18320  0.05457  Biso   1.000  N
  N29      1.0000 0.63560  0.53360  0.56020  Biso   1.000  N
  N30      1.0000 0.36440  0.03360  0.93980  Biso   1.000  N
  N31      1.0000 0.36440  0.46640  0.43980  Biso   1.000  N
  N32      1.0000 0.63560  0.96640  0.06020  Biso   1.000  N
  N33      1.0000 0.95790  0.53590  0.63916  Biso   1.000  N
  N34      1.0000 0.04210  0.03590  0.86084  Biso   1.000  N
  N35      1.0000 0.04210  0.46410  0.36084  Biso   1.000  N
  N36      1.0000 0.95790  0.96410  0.13916  Biso   1.000  N
  N37      1.0000 0.84120  0.32670  0.67461  Biso   1.000  N
  N38      1.0000 0.15880  0.82670  0.82539  Biso   1.000  N
  N39      1.0000 0.15880  0.67330  0.32539  Biso   1.000  N
  N40      1.0000 0.84120  0.17330  0.17461  Biso   1.000  N
  N41      1.0000 0.83130  0.28070  0.70230  Biso   1.000  N
  N42      1.0000 0.16870  0.78070  0.79770  Biso   1.000  N
  N43      1.0000 0.16870  0.71930  0.29770  Biso   1.000  N
  N44      1.0000 0.83130  0.21930  0.20230  Biso   1.000  N
  N45      1.0000 0.94520  0.17420  0.84573  Biso   1.000  N
  N46      1.0000 0.05480  0.67420  0.65427  Biso   1.000  N
  N47      1.0000 0.05480  0.82580  0.15427  Biso   1.000  N
  N48      1.0000 0.94520  0.32580  0.34573  Biso   1.000  N
  N49      1.0000 0.58980  0.37490  0.78111  Biso   1.000  N
  N50      1.0000 0.41020  0.87490  0.71889  Biso   1.000  N
  N51      1.0000 0.41020  0.62510  0.21889  Biso   1.000  N
  N52      1.0000 0.58980  0.12510  0.28111  Biso   1.000  N
  N53      1.0000 0.59050  0.24800  0.64786  Biso   1.000  N
  N54      1.0000 0.40950  0.74800  0.85214  Biso   1.000  N
  N55      1.0000 0.40950  0.75200  0.35214  Biso   1.000  N
  N56      1.0000 0.59050  0.25200  0.14786  Biso   1.000  N
  N57      1.0000 0.56320  0.23140  0.60538  Biso   1.000  N
  N58      1.0000 0.43680  0.73140  0.89462  Biso   1.000  N
  N59      1.0000 0.43680  0.76860  0.39462  Biso   1.000  N
  N60      1.0000 0.56320  0.26860  0.10538  Biso   1.000  N
  N61      1.0000 0.35990  0.25980  0.45020  Biso   1.000  N
  N62      1.0000 0.64010  0.75980  0.04980  Biso   1.000  N
  N63      1.0000 0.64010  0.74020  0.54980  Biso   1.000  N
  N64      1.0000 0.35990  0.24020  0.95020  Biso   1.000  N
  N65      1.0000 0.39620  0.10160  0.75860  Biso   1.000  N
  N66      1.0000 0.60380  0.60160  0.74140  Biso   1.000  N
  N67      1.0000 0.60380  0.89840  0.24140  Biso   1.000  N
  N68      1.0000 0.39620  0.39840  0.25860  Biso   1.000  N
  N69      1.0000 0.77680  0.13356  0.69057  Biso   1.000  N
  N70      1.0000 0.22320  0.63356  0.80943  Biso   1.000  N
  N71      1.0000 0.22320  0.86644  0.30943  Biso   1.000  N
  N72      1.0000 0.77680  0.36644  0.19057  Biso   1.000  N
  N73      1.0000 0.88690  0.11830  0.68124  Biso   1.000  N
  N74      1.0000 0.11310  0.61830  0.81876  Biso   1.000  N
  N75      1.0000 0.11310  0.88170  0.31876  Biso   1.000  N
  N76      1.0000 0.88690  0.38170  0.18124  Biso   1.000  N
  N77      1.0000 0.20890  0.96330  0.66831  Biso   1.000  N
  N78      1.0000 0.79110  0.46330  0.83169  Biso   1.000  N
  N79      1.0000 0.79110  0.03670  0.33169  Biso   1.000  N
  N80      1.0000 0.20890  0.53670  0.16831  Biso   1.000  N
  N81      1.0000 0.47600  0.95650  0.63373  Biso   1.000  N
  N82      1.0000 0.52400  0.45650  0.86627  Biso   1.000  N
  N83      1.0000 0.52400  0.04350  0.36627  Biso   1.000  N
  N84      1.0000 0.47600  0.54350  0.13373  Biso   1.000  N
  N85      1.0000 0.75700  0.10820  0.57778  Biso   1.000  N
  N86      1.0000 0.24300  0.60820  0.92222  Biso   1.000  N
  N87      1.0000 0.24300  0.89180  0.42222  Biso   1.000  N
  N88      1.0000 0.75700  0.39180  0.07778  Biso   1.000  N
  N89      1.0000 0.86400  0.12440  0.56584  Biso   1.000  N
  N90      1.0000 0.13600  0.62440  0.93416  Biso   1.000  N
  N91      1.0000 0.13600  0.87560  0.43416  Biso   1.000  N
  N92      1.0000 0.86400  0.37560  0.06584  Biso   1.000  N
  N93      1.0000 0.28290  0.07730  0.52970  Biso   1.000  N
  N94      1.0000 0.71710  0.57730  0.97030  Biso   1.000  N
  N95      1.0000 0.71710  0.92270  0.47030  Biso   1.000  N
  N96      1.0000 0.28290  0.42270  0.02970  Biso   1.000  N
  C1       1.0000 0.02920  0.28640  0.50060  Biso   1.000  C
  C2       1.0000 0.97080  0.78640  0.99940  Biso   1.000  C
  C3       1.0000 0.97080  0.71360  0.49940  Biso   1.000  C
  C4       1.0000 0.02920  0.21360  0.00060  Biso   1.000  C
  H1       1.0000 0.01870  0.24660  0.50510  Biso   1.000  H
  H2       1.0000 0.98130  0.74660  0.99490  Biso   1.000  H
  H3       1.0000 0.98130  0.75340  0.49490  Biso   1.000  H
  H4       1.0000 0.01870  0.25340  0.00510  Biso   1.000  H
  C5       1.0000 0.01570  0.30870  0.45940  Biso   1.000  C
  C6       1.0000 0.98430  0.80870  0.04060  Biso   1.000  C
  C7       1.0000 0.98430  0.69130  0.54060  Biso   1.000  C
  C8       1.0000 0.01570  0.19130  0.95940  Biso   1.000  C
  H5       1.0000 0.99790  0.28260  0.43650  Biso   1.000  H
  H6       1.0000 0.00210  0.78260  0.06350  Biso   1.000  H
  H7       1.0000 0.00210  0.71740  0.56350  Biso   1.000  H
  H8       1.0000 0.99790  0.21740  0.93650  Biso   1.000  H
  C9       1.0000 0.05520  0.40000  0.48380  Biso   1.000  C
  C10      1.0000 0.94480  0.90000  0.01620  Biso   1.000  C
  C11      1.0000 0.94480  0.60000  0.51620  Biso   1.000  C
  C12      1.0000 0.05520  0.10000  0.98380  Biso   1.000  C
  H9       1.0000 0.06530  0.43960  0.47830  Biso   1.000  H
  H10      1.0000 0.93470  0.93960  0.02170  Biso   1.000  H
  H11      1.0000 0.93470  0.56040  0.52170  Biso   1.000  H
  H12      1.0000 0.06530  0.06040  0.97830  Biso   1.000  H
  C13      1.0000 0.07080  0.38190  0.52610  Biso   1.000  C
  C14      1.0000 0.92920  0.88190  0.97390  Biso   1.000  C
  C15      1.0000 0.92920  0.61810  0.47390  Biso   1.000  C
  C16      1.0000 0.07080  0.11810  0.02610  Biso   1.000  C
  H13      1.0000 0.08980  0.40870  0.54850  Biso   1.000  H
  H14      1.0000 0.91020  0.90870  0.95150  Biso   1.000  H
  H15      1.0000 0.91020  0.59130  0.45150  Biso   1.000  H
  H16      1.0000 0.08980  0.09130  0.04850  Biso   1.000  H
  C17      1.0000 0.05830  0.32290  0.53570  Biso   1.000  C
  C18      1.0000 0.94170  0.82290  0.96430  Biso   1.000  C
  C19      1.0000 0.94170  0.67710  0.46430  Biso   1.000  C
  C20      1.0000 0.05830  0.17710  0.03570  Biso   1.000  C
  C21      1.0000 0.07370  0.30080  0.58090  Biso   1.000  C
  C22      1.0000 0.92630  0.80080  0.91910  Biso   1.000  C
  C23      1.0000 0.92630  0.69920  0.41910  Biso   1.000  C
  C24      1.0000 0.07370  0.19920  0.08090  Biso   1.000  C
  C25      1.0000 0.14070  0.32340  0.61750  Biso   1.000  C
  C26      1.0000 0.85930  0.82340  0.88250  Biso   1.000  C
  C27      1.0000 0.85930  0.67660  0.38250  Biso   1.000  C
  C28      1.0000 0.14070  0.17660  0.11750  Biso   1.000  C
  H17      1.0000 0.18650  0.35700  0.61920  Biso   1.000  H
  H18      1.0000 0.81350  0.85700  0.88080  Biso   1.000  H
  H19      1.0000 0.81350  0.64300  0.38080  Biso   1.000  H
  H20      1.0000 0.18650  0.14300  0.11920  Biso   1.000  H
  C29      1.0000 0.12400  0.28470  0.65060  Biso   1.000  C
  C30      1.0000 0.87600  0.78470  0.84940  Biso   1.000  C
  C31      1.0000 0.87600  0.71530  0.34940  Biso   1.000  C
  C32      1.0000 0.12400  0.21530  0.15060  Biso   1.000  C
  C33      1.0000 0.17580  0.28770  0.69610  Biso   1.000  C
  C34      1.0000 0.82420  0.78770  0.80390  Biso   1.000  C
  C35      1.0000 0.82420  0.71230  0.30390  Biso   1.000  C
  C36      1.0000 0.17580  0.21230  0.19610  Biso   1.000  C
  C37      1.0000 0.21970  0.34040  0.71390  Biso   1.000  C
  C38      1.0000 0.78030  0.84040  0.78610  Biso   1.000  C
  C39      1.0000 0.78030  0.65960  0.28610  Biso   1.000  C
  C40      1.0000 0.21970  0.15960  0.21390  Biso   1.000  C
  H21      1.0000 0.21750  0.37390  0.69660  Biso   1.000  H
  H22      1.0000 0.78250  0.87390  0.80340  Biso   1.000  H
  H23      1.0000 0.78250  0.62610  0.30340  Biso   1.000  H
  H24      1.0000 0.21750  0.12610  0.19660  Biso   1.000  H
  C41      1.0000 0.26530  0.34290  0.75620  Biso   1.000  C
  C42      1.0000 0.73470  0.84290  0.74380  Biso   1.000  C
  C43      1.0000 0.73470  0.65710  0.24380  Biso   1.000  C
  C44      1.0000 0.26530  0.15710  0.25620  Biso   1.000  C
  H25      1.0000 0.29400  0.37870  0.76700  Biso   1.000  H
  H26      1.0000 0.70600  0.87870  0.73300  Biso   1.000  H
  H27      1.0000 0.70600  0.62130  0.23300  Biso   1.000  H
  H28      1.0000 0.29400  0.12130  0.26700  Biso   1.000  H
  C45      1.0000 0.23190  0.24780  0.76640  Biso   1.000  C
  C46      1.0000 0.76810  0.74780  0.73360  Biso   1.000  C
  C47      1.0000 0.76810  0.75220  0.23360  Biso   1.000  C
  C48      1.0000 0.23190  0.25220  0.26640  Biso   1.000  C
  H29      1.0000 0.23740  0.21500  0.78440  Biso   1.000  H
  H30      1.0000 0.76260  0.71500  0.71560  Biso   1.000  H
  H31      1.0000 0.76260  0.78500  0.21560  Biso   1.000  H
  H32      1.0000 0.23740  0.28500  0.28440  Biso   1.000  H
  C49      1.0000 0.18210  0.24000  0.72400  Biso   1.000  C
  C50      1.0000 0.81790  0.74000  0.77600  Biso   1.000  C
  C51      1.0000 0.81790  0.76000  0.27600  Biso   1.000  C
  C52      1.0000 0.18210  0.26000  0.22400  Biso   1.000  C
  H33      1.0000 0.15350  0.20370  0.71440  Biso   1.000  H
  H34      1.0000 0.84650  0.70370  0.78560  Biso   1.000  H
  H35      1.0000 0.84650  0.79630  0.28560  Biso   1.000  H
  H36      1.0000 0.15350  0.29630  0.21440  Biso   1.000  H
  C53      1.0000 0.73970  0.24720  0.41290  Biso   1.000  C
  C54      1.0000 0.26030  0.74720  0.08710  Biso   1.000  C
  C55      1.0000 0.26030  0.75280  0.58710  Biso   1.000  C
  C56      1.0000 0.73970  0.25280  0.91290  Biso   1.000  C
  H37      1.0000 0.75300  0.28600  0.40600  Biso   1.000  H
  H38      1.0000 0.24700  0.78600  0.09400  Biso   1.000  H
  H39      1.0000 0.24700  0.71400  0.59400  Biso   1.000  H
  H40      1.0000 0.75300  0.21400  0.90600  Biso   1.000  H
  C57      1.0000 0.72830  0.20580  0.38060  Biso   1.000  C
  C58      1.0000 0.27170  0.70580  0.11940  Biso   1.000  C
  C59      1.0000 0.27170  0.79420  0.61940  Biso   1.000  C
  C60      1.0000 0.72830  0.29420  0.88060  Biso   1.000  C
  H41      1.0000 0.73670  0.21760  0.35220  Biso   1.000  H
  H42      1.0000 0.26330  0.71760  0.14780  Biso   1.000  H
  H43      1.0000 0.26330  0.78240  0.64780  Biso   1.000  H
  H44      1.0000 0.73670  0.28240  0.85220  Biso   1.000  H
  C61      1.0000 0.70380  0.13480  0.42920  Biso   1.000  C
  C62      1.0000 0.29620  0.63480  0.07080  Biso   1.000  C
  C63      1.0000 0.29620  0.86520  0.57080  Biso   1.000  C
  C64      1.0000 0.70380  0.36520  0.92920  Biso   1.000  C
  H45      1.0000 0.69310  0.09550  0.43540  Biso   1.000  H
  H46      1.0000 0.30690  0.59550  0.06460  Biso   1.000  H
  H47      1.0000 0.30690  0.90450  0.56460  Biso   1.000  H
  H48      1.0000 0.69310  0.40450  0.93540  Biso   1.000  H
  C65      1.0000 0.71620  0.17330  0.46360  Biso   1.000  C
  C66      1.0000 0.28380  0.67330  0.03640  Biso   1.000  C
  C67      1.0000 0.28380  0.82670  0.53640  Biso   1.000  C
  C68      1.0000 0.71620  0.32670  0.96360  Biso   1.000  C
  H49      1.0000 0.71420  0.15980  0.49200  Biso   1.000  H
  H50      1.0000 0.28580  0.65980  0.00800  Biso   1.000  H
  H51      1.0000 0.28580  0.84020  0.50800  Biso   1.000  H
  H52      1.0000 0.71420  0.34020  0.99200  Biso   1.000  H
  C69      1.0000 0.73130  0.23120  0.45587  Biso   1.000  C
  C70      1.0000 0.26870  0.73120  0.04413  Biso   1.000  C
  C71      1.0000 0.26870  0.76880  0.54413  Biso   1.000  C
  C72      1.0000 0.73130  0.26880  0.95587  Biso   1.000  C
  C73      1.0000 0.73340  0.27690  0.48992  Biso   1.000  C
  C74      1.0000 0.26660  0.77690  0.01008  Biso   1.000  C
  C75      1.0000 0.26660  0.72310  0.51008  Biso   1.000  C
  C76      1.0000 0.73340  0.22310  0.98992  Biso   1.000  C
  C77      1.0000 0.69870  0.33450  0.48440  Biso   1.000  C
  C78      1.0000 0.30130  0.83450  0.01560  Biso   1.000  C
  C79      1.0000 0.30130  0.66550  0.51560  Biso   1.000  C
  C80      1.0000 0.69870  0.16550  0.98440  Biso   1.000  C
  H53      1.0000 0.67290  0.35340  0.45840  Biso   1.000  H
  H54      1.0000 0.32710  0.85340  0.04160  Biso   1.000  H
  H55      1.0000 0.32710  0.64660  0.54160  Biso   1.000  H
  H56      1.0000 0.67290  0.14660  0.95840  Biso   1.000  H
  C81      1.0000 0.71060  0.35770  0.52560  Biso   1.000  C
  C82      1.0000 0.28940  0.85770  0.97440  Biso   1.000  C
  C83      1.0000 0.28940  0.64230  0.47440  Biso   1.000  C
  C84      1.0000 0.71060  0.14230  0.02560  Biso   1.000  C
  C85      1.0000 0.68470  0.41880  0.53830  Biso   1.000  C
  C86      1.0000 0.31530  0.91880  0.96170  Biso   1.000  C
  C87      1.0000 0.31530  0.58120  0.46170  Biso   1.000  C
  C88      1.0000 0.68470  0.08120  0.03830  Biso   1.000  C
  C89      1.0000 0.68720  0.46290  0.50810  Biso   1.000  C
  C90      1.0000 0.31280  0.96290  0.99190  Biso   1.000  C
  C91      1.0000 0.31280  0.53710  0.49190  Biso   1.000  C
  C92      1.0000 0.68720  0.03710  0.00810  Biso   1.000  C
  H57      1.0000 0.70550  0.45550  0.47990  Biso   1.000  H
  H58      1.0000 0.29450  0.95550  0.02010  Biso   1.000  H
  H59      1.0000 0.29450  0.54450  0.52010  Biso   1.000  H
  H60      1.0000 0.70550  0.04450  0.97990  Biso   1.000  H
  C93      1.0000 0.66120  0.51910  0.52160  Biso   1.000  C
  C94      1.0000 0.33880  0.01910  0.97840  Biso   1.000  C
  C95      1.0000 0.33880  0.48090  0.47840  Biso   1.000  C
  C96      1.0000 0.66120  0.98090  0.02160  Biso   1.000  C
  H61      1.0000 0.66230  0.54890  0.50110  Biso   1.000  H
  H62      1.0000 0.33770  0.04890  0.99890  Biso   1.000  H
  H63      1.0000 0.33770  0.45110  0.49890  Biso   1.000  H
  H64      1.0000 0.66230  0.95110  0.00110  Biso   1.000  H
  C97      1.0000 0.63700  0.49180  0.58880  Biso   1.000  C
  C98      1.0000 0.36300  0.99180  0.91120  Biso   1.000  C
  C99      1.0000 0.36300  0.50820  0.41120  Biso   1.000  C
  C100     1.0000 0.63700  0.00820  0.08880  Biso   1.000  C
  H65      1.0000 0.62310  0.50110  0.61720  Biso   1.000  H
  H66      1.0000 0.37690  0.00110  0.88280  Biso   1.000  H
  H67      1.0000 0.37690  0.49890  0.38280  Biso   1.000  H
  H68      1.0000 0.62310  0.99890  0.11720  Biso   1.000  H
  C101     1.0000 0.65810  0.43450  0.57900  Biso   1.000  C
  C102     1.0000 0.34190  0.93450  0.92100  Biso   1.000  C
  C103     1.0000 0.34190  0.56550  0.42100  Biso   1.000  C
  C104     1.0000 0.65810  0.06550  0.07900  Biso   1.000  C
  H69      1.0000 0.65440  0.40590  0.60040  Biso   1.000  H
  H70      1.0000 0.34560  0.90590  0.89960  Biso   1.000  H
  H71      1.0000 0.34560  0.59410  0.39960  Biso   1.000  H
  H72      1.0000 0.65440  0.09410  0.10040  Biso   1.000  H
  C105     1.0000 0.93790  0.43370  0.63510  Biso   1.000  C
  C106     1.0000 0.06210  0.93370  0.86490  Biso   1.000  C
  C107     1.0000 0.06210  0.56630  0.36490  Biso   1.000  C
  C108     1.0000 0.93790  0.06630  0.13510  Biso   1.000  C
  H73      1.0000 0.94040  0.40040  0.61790  Biso   1.000  H
  H74      1.0000 0.05960  0.90040  0.88210  Biso   1.000  H
  H75      1.0000 0.05960  0.59960  0.38210  Biso   1.000  H
  H76      1.0000 0.94040  0.09960  0.11790  Biso   1.000  H
  C109     1.0000 0.95810  0.48780  0.61740  Biso   1.000  C
  C110     1.0000 0.04190  0.98780  0.88260  Biso   1.000  C
  C111     1.0000 0.04190  0.51220  0.38260  Biso   1.000  C
  C112     1.0000 0.95810  0.01220  0.11740  Biso   1.000  C
  H77      1.0000 0.97250  0.48960  0.58820  Biso   1.000  H
  H78      1.0000 0.02750  0.98960  0.91180  Biso   1.000  H
  H79      1.0000 0.02750  0.51040  0.41180  Biso   1.000  H
  H80      1.0000 0.97250  0.01040  0.08820  Biso   1.000  H
  C113     1.0000 0.93620  0.53100  0.67980  Biso   1.000  C
  C114     1.0000 0.06380  0.03100  0.82020  Biso   1.000  C
  C115     1.0000 0.06380  0.46900  0.32020  Biso   1.000  C
  C116     1.0000 0.93620  0.96900  0.17980  Biso   1.000  C
  H81      1.0000 0.93590  0.56490  0.69650  Biso   1.000  H
  H82      1.0000 0.06410  0.06490  0.80350  Biso   1.000  H
  H83      1.0000 0.06410  0.43510  0.30350  Biso   1.000  H
  H84      1.0000 0.93590  0.93510  0.19650  Biso   1.000  H
  C117     1.0000 0.91370  0.47890  0.69950  Biso   1.000  C
  C118     1.0000 0.08630  0.97890  0.80050  Biso   1.000  C
  C119     1.0000 0.08630  0.52110  0.30050  Biso   1.000  C
  C120     1.0000 0.91370  0.02110  0.19950  Biso   1.000  C
  H85      1.0000 0.89800  0.47870  0.72860  Biso   1.000  H
  H86      1.0000 0.10200  0.97870  0.77140  Biso   1.000  H
  H87      1.0000 0.10200  0.52130  0.27140  Biso   1.000  H
  H88      1.0000 0.89800  0.02130  0.22860  Biso   1.000  H
  C121     1.0000 0.91420  0.42820  0.67740  Biso   1.000  C
  C122     1.0000 0.08580  0.92820  0.82260  Biso   1.000  C
  C123     1.0000 0.08580  0.57180  0.32260  Biso   1.000  C
  C124     1.0000 0.91420  0.07180  0.17740  Biso   1.000  C
  C125     1.0000 0.89090  0.37190  0.69744  Biso   1.000  C
  C126     1.0000 0.10910  0.87190  0.80256  Biso   1.000  C
  C127     1.0000 0.10910  0.62810  0.30256  Biso   1.000  C
  C128     1.0000 0.89090  0.12810  0.19744  Biso   1.000  C
  C129     1.0000 0.91840  0.35430  0.74060  Biso   1.000  C
  C130     1.0000 0.08160  0.85430  0.75940  Biso   1.000  C
  C131     1.0000 0.08160  0.64570  0.25940  Biso   1.000  C
  C132     1.0000 0.91840  0.14570  0.24060  Biso   1.000  C
  H89      1.0000 0.95480  0.37620  0.76360  Biso   1.000  H
  H90      1.0000 0.04520  0.87620  0.73640  Biso   1.000  H
  H91      1.0000 0.04520  0.62380  0.23640  Biso   1.000  H
  H92      1.0000 0.95480  0.12380  0.26360  Biso   1.000  H
  C133     1.0000 0.87990  0.29750  0.74192  Biso   1.000  C
  C134     1.0000 0.12010  0.79750  0.75808  Biso   1.000  C
  C135     1.0000 0.12010  0.70250  0.25808  Biso   1.000  C
  C136     1.0000 0.87990  0.20250  0.24192  Biso   1.000  C
  C137     1.0000 0.89530  0.25620  0.77904  Biso   1.000  C
  C138     1.0000 0.10470  0.75620  0.72096  Biso   1.000  C
  C139     1.0000 0.10470  0.74380  0.22096  Biso   1.000  C
  C140     1.0000 0.89530  0.24380  0.27904  Biso   1.000  C
  C141     1.0000 0.98620  0.26440  0.81120  Biso   1.000  C
  C142     1.0000 0.01380  0.76440  0.68880  Biso   1.000  C
  C143     1.0000 0.01380  0.73560  0.18880  Biso   1.000  C
  C144     1.0000 0.98620  0.23560  0.31120  Biso   1.000  C
  H93      1.0000 0.03210  0.29790  0.81130  Biso   1.000  H
  H94      1.0000 0.96790  0.79790  0.68870  Biso   1.000  H
  H95      1.0000 0.96790  0.70210  0.18870  Biso   1.000  H
  H96      1.0000 0.03210  0.20210  0.31130  Biso   1.000  H
  C145     1.0000 0.00920  0.22250  0.84330  Biso   1.000  C
  C146     1.0000 0.99080  0.72250  0.65670  Biso   1.000  C
  C147     1.0000 0.99080  0.77750  0.15670  Biso   1.000  C
  C148     1.0000 0.00920  0.27750  0.34330  Biso   1.000  C
  H97      1.0000 0.07270  0.22830  0.86430  Biso   1.000  H
  H98      1.0000 0.92730  0.72830  0.63570  Biso   1.000  H
  H99      1.0000 0.92730  0.77170  0.13570  Biso   1.000  H
  H100     1.0000 0.07270  0.27170  0.36430  Biso   1.000  H
  C149     1.0000 0.85290  0.16820  0.81610  Biso   1.000  C
  C150     1.0000 0.14710  0.66820  0.68390  Biso   1.000  C
  C151     1.0000 0.14710  0.83180  0.18390  Biso   1.000  C
  C152     1.0000 0.85290  0.33180  0.31610  Biso   1.000  C
  H101     1.0000 0.80500  0.13570  0.81800  Biso   1.000  H
  H102     1.0000 0.19500  0.63570  0.68200  Biso   1.000  H
  H103     1.0000 0.19500  0.86430  0.18200  Biso   1.000  H
  H104     1.0000 0.80500  0.36430  0.31800  Biso   1.000  H
  C153     1.0000 0.82400  0.20760  0.78270  Biso   1.000  C
  C154     1.0000 0.17600  0.70760  0.71730  Biso   1.000  C
  C155     1.0000 0.17600  0.79240  0.21730  Biso   1.000  C
  C156     1.0000 0.82400  0.29240  0.28270  Biso   1.000  C
  H105     1.0000 0.75800  0.20160  0.76290  Biso   1.000  H
  H106     1.0000 0.24200  0.70160  0.73710  Biso   1.000  H
  H107     1.0000 0.24200  0.79840  0.23710  Biso   1.000  H
  H108     1.0000 0.75800  0.29840  0.26290  Biso   1.000  H
  C157     1.0000 0.54930  0.29280  0.73450  Biso   1.000  C
  C158     1.0000 0.45070  0.79280  0.76550  Biso   1.000  C
  C159     1.0000 0.45070  0.70720  0.26550  Biso   1.000  C
  C160     1.0000 0.54930  0.20720  0.23450  Biso   1.000  C
  H109     1.0000 0.53790  0.25260  0.73230  Biso   1.000  H
  H110     1.0000 0.46210  0.75260  0.76770  Biso   1.000  H
  H111     1.0000 0.46210  0.74740  0.26770  Biso   1.000  H
  H112     1.0000 0.53790  0.24740  0.23230  Biso   1.000  H
  C161     1.0000 0.56920  0.31830  0.77490  Biso   1.000  C
  C162     1.0000 0.43080  0.81830  0.72510  Biso   1.000  C
  C163     1.0000 0.43080  0.68170  0.22510  Biso   1.000  C
  C164     1.0000 0.56920  0.18170  0.27490  Biso   1.000  C
  H113     1.0000 0.56820  0.29450  0.79930  Biso   1.000  H
  H114     1.0000 0.43180  0.79450  0.70070  Biso   1.000  H
  H115     1.0000 0.43180  0.70550  0.20070  Biso   1.000  H
  H116     1.0000 0.56820  0.20550  0.29930  Biso   1.000  H
  C165     1.0000 0.58050  0.40700  0.74470  Biso   1.000  C
  C166     1.0000 0.41950  0.90700  0.75530  Biso   1.000  C
  C167     1.0000 0.41950  0.59300  0.25530  Biso   1.000  C
  C168     1.0000 0.58050  0.09300  0.24470  Biso   1.000  C
  H117     1.0000 0.59000  0.44730  0.74780  Biso   1.000  H
  H118     1.0000 0.41000  0.94730  0.75220  Biso   1.000  H
  H119     1.0000 0.41000  0.55270  0.25220  Biso   1.000  H
  H120     1.0000 0.59000  0.05270  0.24780  Biso   1.000  H
  C169     1.0000 0.55790  0.38520  0.70260  Biso   1.000  C
  C170     1.0000 0.44210  0.88520  0.79740  Biso   1.000  C
  C171     1.0000 0.44210  0.61480  0.29740  Biso   1.000  C
  C172     1.0000 0.55790  0.11480  0.20260  Biso   1.000  C
  H121     1.0000 0.55100  0.41020  0.67860  Biso   1.000  H
  H122     1.0000 0.44900  0.91020  0.82140  Biso   1.000  H
  H123     1.0000 0.44900  0.58980  0.32140  Biso   1.000  H
  H124     1.0000 0.55100  0.08980  0.17860  Biso   1.000  H
  C173     1.0000 0.54590  0.32600  0.69720  Biso   1.000  C
  C174     1.0000 0.45410  0.82600  0.80280  Biso   1.000  C
  C175     1.0000 0.45410  0.67400  0.30280  Biso   1.000  C
  C176     1.0000 0.54590  0.17400  0.19720  Biso   1.000  C
  C177     1.0000 0.53270  0.29830  0.65420  Biso   1.000  C
  C178     1.0000 0.46730  0.79830  0.84580  Biso   1.000  C
  C179     1.0000 0.46730  0.70170  0.34580  Biso   1.000  C
  C180     1.0000 0.53270  0.20170  0.15420  Biso   1.000  C
  C181     1.0000 0.46930  0.31530  0.61520  Biso   1.000  C
  C182     1.0000 0.53070  0.81530  0.88480  Biso   1.000  C
  C183     1.0000 0.53070  0.68470  0.38480  Biso   1.000  C
  C184     1.0000 0.46930  0.18470  0.11520  Biso   1.000  C
  H125     1.0000 0.42220  0.34830  0.61030  Biso   1.000  H
  H126     1.0000 0.57780  0.84830  0.88970  Biso   1.000  H
  H127     1.0000 0.57780  0.65170  0.38970  Biso   1.000  H
  H128     1.0000 0.42220  0.15170  0.11030  Biso   1.000  H
  C185     1.0000 0.49150  0.27240  0.58510  Biso   1.000  C
  C186     1.0000 0.50850  0.77240  0.91490  Biso   1.000  C
  C187     1.0000 0.50850  0.72760  0.41490  Biso   1.000  C
  C188     1.0000 0.49150  0.22760  0.08510  Biso   1.000  C
  C189     1.0000 0.44620  0.26730  0.53870  Biso   1.000  C
  C190     1.0000 0.55380  0.76730  0.96130  Biso   1.000  C
  C191     1.0000 0.55380  0.73270  0.46130  Biso   1.000  C
  C192     1.0000 0.44620  0.23270  0.03870  Biso   1.000  C
  C193     1.0000 0.38820  0.31410  0.51690  Biso   1.000  C
  C194     1.0000 0.61180  0.81410  0.98310  Biso   1.000  C
  C195     1.0000 0.61180  0.68590  0.48310  Biso   1.000  C
  C196     1.0000 0.38820  0.18590  0.01690  Biso   1.000  C
  H129     1.0000 0.37580  0.34870  0.53160  Biso   1.000  H
  H130     1.0000 0.62420  0.84870  0.96840  Biso   1.000  H
  H131     1.0000 0.62420  0.65130  0.46840  Biso   1.000  H
  H132     1.0000 0.37580  0.15130  0.03160  Biso   1.000  H
  C197     1.0000 0.34970  0.30830  0.47350  Biso   1.000  C
  C198     1.0000 0.65030  0.80830  0.02650  Biso   1.000  C
  C199     1.0000 0.65030  0.69170  0.52650  Biso   1.000  C
  C200     1.0000 0.34970  0.19170  0.97350  Biso   1.000  C
  H133     1.0000 0.31380  0.34050  0.45930  Biso   1.000  H
  H134     1.0000 0.68620  0.84050  0.04070  Biso   1.000  H
  H135     1.0000 0.68620  0.65950  0.54070  Biso   1.000  H
  H136     1.0000 0.31380  0.15950  0.95930  Biso   1.000  H
  C201     1.0000 0.41490  0.21560  0.47120  Biso   1.000  C
  C202     1.0000 0.58510  0.71560  0.02880  Biso   1.000  C
  C203     1.0000 0.58510  0.78440  0.52880  Biso   1.000  C
  C204     1.0000 0.41490  0.28440  0.97120  Biso   1.000  C
  H137     1.0000 0.42460  0.18140  0.45570  Biso   1.000  H
  H138     1.0000 0.57540  0.68140  0.04430  Biso   1.000  H
  H139     1.0000 0.57540  0.81860  0.54430  Biso   1.000  H
  H140     1.0000 0.42460  0.31860  0.95570  Biso   1.000  H
  C205     1.0000 0.45830  0.21670  0.51430  Biso   1.000  C
  C206     1.0000 0.54170  0.71670  0.98570  Biso   1.000  C
  C207     1.0000 0.54170  0.78330  0.48570  Biso   1.000  C
  C208     1.0000 0.45830  0.28330  0.01430  Biso   1.000  C
  H141     1.0000 0.49560  0.18400  0.52720  Biso   1.000  H
  H142     1.0000 0.50440  0.68400  0.97280  Biso   1.000  H
  H143     1.0000 0.50440  0.81600  0.47280  Biso   1.000  H
  H144     1.0000 0.49560  0.31600  0.02720  Biso   1.000  H
  C209     1.0000 0.52400  0.12510  0.70390  Biso   1.000  C
  C210     1.0000 0.47600  0.62510  0.79610  Biso   1.000  C
  C211     1.0000 0.47600  0.87490  0.29610  Biso   1.000  C
  C212     1.0000 0.52400  0.37490  0.20390  Biso   1.000  C
  H145     1.0000 0.53410  0.14540  0.67840  Biso   1.000  H
  H146     1.0000 0.46590  0.64540  0.82160  Biso   1.000  H
  H147     1.0000 0.46590  0.85460  0.32160  Biso   1.000  H
  H148     1.0000 0.53410  0.35460  0.17840  Biso   1.000  H
  C213     1.0000 0.41990  0.12820  0.72300  Biso   1.000  C
  C214     1.0000 0.58010  0.62820  0.77700  Biso   1.000  C
  C215     1.0000 0.58010  0.87180  0.27700  Biso   1.000  C
  C216     1.0000 0.41990  0.37180  0.22300  Biso   1.000  C
  H149     1.0000 0.36090  0.15160  0.70910  Biso   1.000  H
  H150     1.0000 0.63910  0.65160  0.79090  Biso   1.000  H
  H151     1.0000 0.63910  0.84840  0.29090  Biso   1.000  H
  H152     1.0000 0.36090  0.34840  0.20910  Biso   1.000  H
  C217     1.0000 0.48220  0.06780  0.77750  Biso   1.000  C
  C218     1.0000 0.51780  0.56780  0.72250  Biso   1.000  C
  C219     1.0000 0.51780  0.93220  0.22250  Biso   1.000  C
  C220     1.0000 0.48220  0.43220  0.27750  Biso   1.000  C
  H153     1.0000 0.46870  0.04760  0.80270  Biso   1.000  H
  H154     1.0000 0.53130  0.54760  0.69730  Biso   1.000  H
  H155     1.0000 0.53130  0.95240  0.19730  Biso   1.000  H
  H156     1.0000 0.46870  0.45240  0.30270  Biso   1.000  H
  C221     1.0000 0.58900  0.06110  0.76200  Biso   1.000  C
  C222     1.0000 0.41100  0.56110  0.73800  Biso   1.000  C
  C223     1.0000 0.41100  0.93890  0.23800  Biso   1.000  C
  C224     1.0000 0.58900  0.43890  0.26200  Biso   1.000  C
  H157     1.0000 0.64550  0.03690  0.77650  Biso   1.000  H
  H158     1.0000 0.35450  0.53690  0.72350  Biso   1.000  H
  H159     1.0000 0.35450  0.96310  0.22350  Biso   1.000  H
  H160     1.0000 0.64550  0.46310  0.27650  Biso   1.000  H
  C225     1.0000 0.61240  0.09060  0.72450  Biso   1.000  C
  C226     1.0000 0.38760  0.59060  0.77550  Biso   1.000  C
  C227     1.0000 0.38760  0.90940  0.27550  Biso   1.000  C
  C228     1.0000 0.61240  0.40940  0.22450  Biso   1.000  C
  C229     1.0000 0.72920  0.08700  0.70810  Biso   1.000  C
  C230     1.0000 0.27080  0.58700  0.79190  Biso   1.000  C
  C231     1.0000 0.27080  0.91300  0.29190  Biso   1.000  C
  C232     1.0000 0.72920  0.41300  0.20810  Biso   1.000  C
  C233     1.0000 0.80600  0.04020  0.70960  Biso   1.000  C
  C234     1.0000 0.19400  0.54020  0.79040  Biso   1.000  C
  C235     1.0000 0.19400  0.95980  0.29040  Biso   1.000  C
  C236     1.0000 0.80600  0.45980  0.20960  Biso   1.000  C
  H161     1.0000 0.79410  0.00280  0.72010  Biso   1.000  H
  H162     1.0000 0.20590  0.50280  0.77990  Biso   1.000  H
  H163     1.0000 0.20590  0.99720  0.27990  Biso   1.000  H
  H164     1.0000 0.79410  0.49720  0.22010  Biso   1.000  H
  C237     1.0000 0.90440  0.06100  0.69190  Biso   1.000  C
  C238     1.0000 0.09560  0.56100  0.80810  Biso   1.000  C
  C239     1.0000 0.09560  0.93900  0.30810  Biso   1.000  C
  C240     1.0000 0.90440  0.43900  0.19190  Biso   1.000  C
  C241     1.0000 0.01050  0.02920  0.68370  Biso   1.000  C
  C242     1.0000 0.98950  0.52920  0.81630  Biso   1.000  C
  C243     1.0000 0.98950  0.97080  0.31630  Biso   1.000  C
  C244     1.0000 0.01050  0.47080  0.18370  Biso   1.000  C
  C245     1.0000 0.00140  0.97140  0.66910  Biso   1.000  C
  C246     1.0000 0.99860  0.47140  0.83090  Biso   1.000  C
  C247     1.0000 0.99860  0.02860  0.33090  Biso   1.000  C
  C248     1.0000 0.00140  0.52860  0.16910  Biso   1.000  C
  H165     1.0000 0.92820  0.95350  0.66460  Biso   1.000  H
  H166     1.0000 0.07180  0.45350  0.83540  Biso   1.000  H
  H167     1.0000 0.07180  0.04650  0.33540  Biso   1.000  H
  H168     1.0000 0.92820  0.54650  0.16460  Biso   1.000  H
  C249     1.0000 0.10070  0.94100  0.66160  Biso   1.000  C
  C250     1.0000 0.89930  0.44100  0.83840  Biso   1.000  C
  C251     1.0000 0.89930  0.05900  0.33840  Biso   1.000  C
  C252     1.0000 0.10070  0.55900  0.16160  Biso   1.000  C
  H169     1.0000 0.09220  0.90290  0.65120  Biso   1.000  H
  H170     1.0000 0.90780  0.40290  0.84880  Biso   1.000  H
  H171     1.0000 0.90780  0.09710  0.34880  Biso   1.000  H
  H172     1.0000 0.09220  0.59710  0.15120  Biso   1.000  H
  C253     1.0000 0.21800  0.01810  0.68340  Biso   1.000  C
  C254     1.0000 0.78200  0.51810  0.81660  Biso   1.000  C
  C255     1.0000 0.78200  0.98190  0.31660  Biso   1.000  C
  C256     1.0000 0.21800  0.48190  0.18340  Biso   1.000  C
  H173     1.0000 0.29230  0.03440  0.68940  Biso   1.000  H
  H174     1.0000 0.70770  0.53440  0.81060  Biso   1.000  H
  H175     1.0000 0.70770  0.96560  0.31060  Biso   1.000  H
  H176     1.0000 0.29230  0.46560  0.18940  Biso   1.000  H
  C257     1.0000 0.12120  0.05170  0.69050  Biso   1.000  C
  C258     1.0000 0.87880  0.55170  0.80950  Biso   1.000  C
  C259     1.0000 0.87880  0.94830  0.30950  Biso   1.000  C
  C260     1.0000 0.12120  0.44830  0.19050  Biso   1.000  C
  H177     1.0000 0.13170  0.09020  0.70000  Biso   1.000  H
  H178     1.0000 0.86830  0.59020  0.80000  Biso   1.000  H
  H179     1.0000 0.86830  0.90980  0.30000  Biso   1.000  H
  H180     1.0000 0.13170  0.40980  0.20000  Biso   1.000  H
  C261     1.0000 0.54960  0.04270  0.60210  Biso   1.000  C
  C262     1.0000 0.45040  0.54270  0.89790  Biso   1.000  C
  C263     1.0000 0.45040  0.95730  0.39790  Biso   1.000  C
  C264     1.0000 0.54960  0.45730  0.10210  Biso   1.000  C
  H181     1.0000 0.53490  0.08070  0.59230  Biso   1.000  H
  H182     1.0000 0.46510  0.58070  0.90770  Biso   1.000  H
  H183     1.0000 0.46510  0.91930  0.40770  Biso   1.000  H
  H184     1.0000 0.53490  0.41930  0.09230  Biso   1.000  H
  C265     1.0000 0.46280  0.01180  0.61920  Biso   1.000  C
  C266     1.0000 0.53720  0.51180  0.88080  Biso   1.000  C
  C267     1.0000 0.53720  0.98820  0.38080  Biso   1.000  C
  C268     1.0000 0.46280  0.48820  0.11920  Biso   1.000  C
  H185     1.0000 0.39090  0.03000  0.62080  Biso   1.000  H
  H186     1.0000 0.60910  0.53000  0.87920  Biso   1.000  H
  H187     1.0000 0.60910  0.97000  0.37920  Biso   1.000  H
  H188     1.0000 0.39090  0.47000  0.12080  Biso   1.000  H
  C269     1.0000 0.58140  0.93170  0.62910  Biso   1.000  C
  C270     1.0000 0.41860  0.43170  0.87090  Biso   1.000  C
  C271     1.0000 0.41860  0.06830  0.37090  Biso   1.000  C
  C272     1.0000 0.58140  0.56830  0.12910  Biso   1.000  C
  H189     1.0000 0.59310  0.89310  0.63790  Biso   1.000  H
  H190     1.0000 0.40690  0.39310  0.86210  Biso   1.000  H
  H191     1.0000 0.40690  0.10690  0.36210  Biso   1.000  H
  H192     1.0000 0.59310  0.60690  0.13790  Biso   1.000  H
  C273     1.0000 0.67080  0.95990  0.61240  Biso   1.000  C
  C274     1.0000 0.32920  0.45990  0.88760  Biso   1.000  C
  C275     1.0000 0.32920  0.04010  0.38760  Biso   1.000  C
  C276     1.0000 0.67080  0.54010  0.11240  Biso   1.000  C
  H193     1.0000 0.74070  0.94020  0.60970  Biso   1.000  H
  H194     1.0000 0.25930  0.44020  0.89030  Biso   1.000  H
  H195     1.0000 0.25930  0.05980  0.39030  Biso   1.000  H
  H196     1.0000 0.74070  0.55980  0.10970  Biso   1.000  H
  C277     1.0000 0.65870  0.01820  0.59920  Biso   1.000  C
  C278     1.0000 0.34130  0.51820  0.90080  Biso   1.000  C
  C279     1.0000 0.34130  0.98180  0.40080  Biso   1.000  C
  C280     1.0000 0.65870  0.48180  0.09920  Biso   1.000  C
  C281     1.0000 0.75780  0.04910  0.58345  Biso   1.000  C
  C282     1.0000 0.24220  0.54910  0.91655  Biso   1.000  C
  C283     1.0000 0.24220  0.95090  0.41655  Biso   1.000  C
  C284     1.0000 0.75780  0.45090  0.08345  Biso   1.000  C
  C285     1.0000 0.86380  0.02740  0.57390  Biso   1.000  C
  C286     1.0000 0.13620  0.52740  0.92610  Biso   1.000  C
  C287     1.0000 0.13620  0.97260  0.42610  Biso   1.000  C
  C288     1.0000 0.86380  0.47260  0.07390  Biso   1.000  C
  H197     1.0000 0.88680  0.98830  0.57430  Biso   1.000  H
  H198     1.0000 0.11320  0.48830  0.92570  Biso   1.000  H
  H199     1.0000 0.11320  0.01170  0.42570  Biso   1.000  H
  H200     1.0000 0.88680  0.51170  0.07430  Biso   1.000  H
  C289     1.0000 0.92970  0.07530  0.56350  Biso   1.000  C
  C290     1.0000 0.07030  0.57530  0.93650  Biso   1.000  C
  C291     1.0000 0.07030  0.92470  0.43650  Biso   1.000  C
  C292     1.0000 0.92970  0.42470  0.06350  Biso   1.000  C
  C293     1.0000 0.04910  0.07650  0.55190  Biso   1.000  C
  C294     1.0000 0.95090  0.57650  0.94810  Biso   1.000  C
  C295     1.0000 0.95090  0.92350  0.44810  Biso   1.000  C
  C296     1.0000 0.04910  0.42350  0.05190  Biso   1.000  C
  C297     1.0000 0.10930  0.02800  0.54270  Biso   1.000  C
  C298     1.0000 0.89070  0.52800  0.95730  Biso   1.000  C
  C299     1.0000 0.89070  0.97200  0.45730  Biso   1.000  C
  C300     1.0000 0.10930  0.47200  0.04270  Biso   1.000  C
  H201     1.0000 0.07410  0.99150  0.54410  Biso   1.000  H
  H202     1.0000 0.92590  0.49150  0.95590  Biso   1.000  H
  H203     1.0000 0.92590  0.00850  0.45590  Biso   1.000  H
  H204     1.0000 0.07410  0.50850  0.04410  Biso   1.000  H
  C301     1.0000 0.22370  0.03200  0.53110  Biso   1.000  C
  C302     1.0000 0.77630  0.53200  0.96890  Biso   1.000  C
  C303     1.0000 0.77630  0.96800  0.46890  Biso   1.000  C
  C304     1.0000 0.22370  0.46800  0.03110  Biso   1.000  C
  H205     1.0000 0.25900  0.99720  0.52370  Biso   1.000  H
  H206     1.0000 0.74100  0.49720  0.97630  Biso   1.000  H
  H207     1.0000 0.74100  0.00280  0.47630  Biso   1.000  H
  H208     1.0000 0.25900  0.50280  0.02370  Biso   1.000  H
  C305     1.0000 0.23190  0.12410  0.54380  Biso   1.000  C
  C306     1.0000 0.76810  0.62410  0.95620  Biso   1.000  C
  C307     1.0000 0.76810  0.87590  0.45620  Biso   1.000  C
  C308     1.0000 0.23190  0.37590  0.04380  Biso   1.000  C
  H209     1.0000 0.27510  0.15860  0.54580  Biso   1.000  H
  H210     1.0000 0.72490  0.65860  0.95420  Biso   1.000  H
  H211     1.0000 0.72490  0.84140  0.45420  Biso   1.000  H
  H212     1.0000 0.27510  0.34140  0.04580  Biso   1.000  H
  C309     1.0000 0.11920  0.12610  0.55590  Biso   1.000  C
  C310     1.0000 0.88080  0.62610  0.94410  Biso   1.000  C
  C311     1.0000 0.88080  0.87390  0.44410  Biso   1.000  C
  C312     1.0000 0.11920  0.37390  0.05590  Biso   1.000  C
  H213     1.0000 0.09030  0.16070  0.56660  Biso   1.000  H
  H214     1.0000 0.90970  0.66070  0.93340  Biso   1.000  H
  H215     1.0000 0.90970  0.83930  0.43340  Biso   1.000  H
  H216     1.0000 0.09030  0.33930  0.06660  Biso   1.000  H
  F1       1.0000 0.23770  0.47290  0.65890  Biso   1.000  F
  F2       1.0000 0.76230  0.97290  0.84110  Biso   1.000  F
  F3       1.0000 0.76230  0.52710  0.34110  Biso   1.000  F
  F4       1.0000 0.23770  0.02710  0.15890  Biso   1.000  F
  F5       1.0000 0.23670  0.54060  0.60860  Biso   1.000  F
  F6       1.0000 0.76330  0.04060  0.89140  Biso   1.000  F
  F7       1.0000 0.76330  0.45940  0.39140  Biso   1.000  F
  F8       1.0000 0.23670  0.95940  0.10860  Biso   1.000  F
  F9       1.0000 0.28360  0.45000  0.59410  Biso   1.000  F
  F10      1.0000 0.71640  0.95000  0.90590  Biso   1.000  F
  F11      1.0000 0.71640  0.55000  0.40590  Biso   1.000  F
  F12      1.0000 0.28360  0.05000  0.09410  Biso   1.000  F
  F13      1.0000 0.40170  0.50290  0.63740  Biso   1.000  F
  F14      1.0000 0.59830  0.00290  0.86260  Biso   1.000  F
  F15      1.0000 0.59830  0.49710  0.36260  Biso   1.000  F
  F16      1.0000 0.40170  0.99710  0.13740  Biso   1.000  F
  F17      1.0000 0.21190  0.48070  0.58840  Biso   1.000  F
  F18      1.0000 0.78810  0.98070  0.91160  Biso   1.000  F
  F19      1.0000 0.78810  0.51930  0.41160  Biso   1.000  F
  F20      1.0000 0.21190  0.01930  0.08840  Biso   1.000  F
  F21      1.0000 0.38830  0.46720  0.62150  Biso   1.000  F
  F22      1.0000 0.61170  0.96720  0.87850  Biso   1.000  F
  F23      1.0000 0.61170  0.53280  0.37850  Biso   1.000  F
  F24      1.0000 0.38830  0.03280  0.12150  Biso   1.000  F
  F25      1.0000 0.29750  0.55020  0.62680  Biso   1.000  F
  F26      1.0000 0.70250  0.05020  0.87320  Biso   1.000  F
  F27      1.0000 0.70250  0.44980  0.37320  Biso   1.000  F
  F28      1.0000 0.29750  0.94980  0.12680  Biso   1.000  F
  B1       1.0000 0.28670  0.49210  0.62440  Biso   1.000  B
  B2       1.0000 0.71330  0.99210  0.87560  Biso   1.000  B
  B3       1.0000 0.71330  0.50790  0.37560  Biso   1.000  B
  B4       1.0000 0.28670  0.00790  0.12440  Biso   1.000  B
  O1       1.0000 0.26060  0.30300  0.87400  Biso   1.000  O
  O2       1.0000 0.73940  0.80300  0.62600  Biso   1.000  O
  O3       1.0000 0.73940  0.69700  0.12600  Biso   1.000  O
  O4       1.0000 0.26060  0.19700  0.37400  Biso   1.000  O
  H217     1.0000 0.19390  0.31650  0.87860  Biso   1.000  H
  H218     1.0000 0.80610  0.81650  0.62140  Biso   1.000  H
  H219     1.0000 0.80610  0.68350  0.12140  Biso   1.000  H
  H220     1.0000 0.19390  0.18350  0.37860  Biso   1.000  H
  H221     1.0000 0.28760  0.28360  0.89640  Biso   1.000  H
  H222     1.0000 0.71240  0.78360  0.60360  Biso   1.000  H
  H223     1.0000 0.71240  0.71640  0.10360  Biso   1.000  H
  H224     1.0000 0.28760  0.21640  0.39640  Biso   1.000  H
  O5       1.0000 0.08510  0.36440  0.90960  Biso   1.000  O
  O6       1.0000 0.91490  0.86440  0.59040  Biso   1.000  O
  O7       1.0000 0.91490  0.63560  0.09040  Biso   1.000  O
  O8       1.0000 0.08510  0.13560  0.40960  Biso   1.000  O
  H225     1.0000 0.12150  0.39330  0.92200  Biso   1.000  H
  H226     1.0000 0.87850  0.89330  0.57800  Biso   1.000  H
  H227     1.0000 0.87850  0.60670  0.07800  Biso   1.000  H
  H228     1.0000 0.12150  0.10670  0.42200  Biso   1.000  H
  H229     1.0000 0.05640  0.34400  0.92910  Biso   1.000  H
  H230     1.0000 0.94360  0.84400  0.57090  Biso   1.000  H
  H231     1.0000 0.94360  0.65600  0.07090  Biso   1.000  H
  H232     1.0000 0.05640  0.15600  0.42910  Biso   1.000  H
  O9       1.0000 0.51980  0.11430  0.89610  Biso   1.000  O
  O10      1.0000 0.48020  0.61430  0.60390  Biso   1.000  O
  O11      1.0000 0.48020  0.88570  0.10390  Biso   1.000  O
  O12      1.0000 0.51980  0.38570  0.39610  Biso   1.000  O
  H233     1.0000 0.46170  0.09680  0.90530  Biso   1.000  H
  H234     1.0000 0.53830  0.59680  0.59470  Biso   1.000  H
  H235     1.0000 0.53830  0.90320  0.09470  Biso   1.000  H
  H236     1.0000 0.46170  0.40320  0.40530  Biso   1.000  H
  H237     1.0000 0.49440  0.14240  0.87970  Biso   1.000  H
  H238     1.0000 0.50560  0.64240  0.62030  Biso   1.000  H
  H239     1.0000 0.50560  0.85760  0.12030  Biso   1.000  H
  H240     1.0000 0.49440  0.35760  0.37970  Biso   1.000  H
  O13      1.0000 0.72240  0.63990  0.64680  Biso   1.000  O
  O14      1.0000 0.27760  0.13990  0.85320  Biso   1.000  O
  O15      1.0000 0.27760  0.36010  0.35320  Biso   1.000  O
  O16      1.0000 0.72240  0.86010  0.14680  Biso   1.000  O
  H241     1.0000 0.74440  0.60530  0.65370  Biso   1.000  H
  H242     1.0000 0.25560  0.10530  0.84630  Biso   1.000  H
  H243     1.0000 0.25560  0.39470  0.34630  Biso   1.000  H
  H244     1.0000 0.74440  0.89470  0.15370  Biso   1.000  H
  H245     1.0000 0.76010  0.65200  0.62620  Biso   1.000  H
  H246     1.0000 0.23990  0.15200  0.87380  Biso   1.000  H
  H247     1.0000 0.23990  0.34800  0.37380  Biso   1.000  H
  H248     1.0000 0.76010  0.84800  0.12620  Biso   1.000  H
  O17      1.0000 0.50360  0.43480  0.99280  Biso   1.000  O
  O18      1.0000 0.49640  0.93480  0.50720  Biso   1.000  O
  O19      1.0000 0.49640  0.56520  0.00720  Biso   1.000  O
  O20      1.0000 0.50360  0.06520  0.49280  Biso   1.000  O
  H249     1.0000 0.44000  0.42570  0.00310  Biso   1.000  H
  H250     1.0000 0.56000  0.92570  0.49690  Biso   1.000  H
  H251     1.0000 0.56000  0.57430  0.99690  Biso   1.000  H
  H252     1.0000 0.44000  0.07430  0.50310  Biso   1.000  H
  H253     1.0000 0.49900  0.42550  0.96590  Biso   1.000  H
  H254     1.0000 0.50100  0.92550  0.53410  Biso   1.000  H
  H255     1.0000 0.50100  0.57450  0.03410  Biso   1.000  H
  H256     1.0000 0.49900  0.07450  0.46590  Biso   1.000  H
