data_image0
_cell_length_a       11.407
_cell_length_b       22.7362
_cell_length_c       30.981
_cell_angle_alpha    90
_cell_angle_beta     96.769
_cell_angle_gamma    90

_symmetry_space_group_name_H-M    "P 1"
_symmetry_int_tables_number       1

loop_
  _symmetry_equiv_pos_as_xyz
  'x, y, z'

loop_
  _atom_site_label
  _atom_site_occupancy
  _atom_site_fract_x
  _atom_site_fract_y
  _atom_site_fract_z
  _atom_site_thermal_displace_type
  _atom_site_B_iso_or_equiv
  _atom_site_type_symbol
  Cu1      1.0000 0.87320  0.70760  0.56031  Biso   1.000  Cu
  Cu2      1.0000 0.12680  0.20760  0.93969  Biso   1.000  Cu
  Cu3      1.0000 0.12680  0.29240  0.43969  Biso   1.000  Cu
  Cu4      1.0000 0.87320  0.79240  0.06031  Biso   1.000  Cu
  Cu5      1.0000 0.72701  0.71299  0.67760  Biso   1.000  Cu
  Cu6      1.0000 0.27299  0.21299  0.82240  Biso   1.000  Cu
  Cu7      1.0000 0.27299  0.28701  0.32240  Biso   1.000  Cu
  Cu8      1.0000 0.72701  0.78701  0.17760  Biso   1.000  Cu
  Cu9      1.0000 0.96729  0.67697  0.65653  Biso   1.000  Cu
  Cu10     1.0000 0.03271  0.17697  0.84347  Biso   1.000  Cu
  Cu11     1.0000 0.03271  0.32303  0.34347  Biso   1.000  Cu
  Cu12     1.0000 0.96729  0.82303  0.15653  Biso   1.000  Cu
  Cu13     1.0000 0.78899  0.81839  0.61360  Biso   1.000  Cu
  Cu14     1.0000 0.21101  0.31839  0.88640  Biso   1.000  Cu
  Cu15     1.0000 0.21101  0.18161  0.38640  Biso   1.000  Cu
  Cu16     1.0000 0.78899  0.68161  0.11360  Biso   1.000  Cu
  Cu17     1.0000 0.65277  0.66924  0.58770  Biso   1.000  Cu
  Cu18     1.0000 0.34723  0.16924  0.91230  Biso   1.000  Cu
  Cu19     1.0000 0.34723  0.33076  0.41230  Biso   1.000  Cu
  Cu20     1.0000 0.65277  0.83076  0.08770  Biso   1.000  Cu
  Cu21     1.0000 0.99486  0.88942  0.38769  Biso   1.000  Cu
  Cu22     1.0000 0.00514  0.38942  0.11231  Biso   1.000  Cu
  Cu23     1.0000 0.00514  0.11058  0.61231  Biso   1.000  Cu
  Cu24     1.0000 0.99486  0.61058  0.88769  Biso   1.000  Cu
  Cu25     1.0000 0.65016  0.59189  0.33703  Biso   1.000  Cu
  Cu26     1.0000 0.34984  0.09189  0.16297  Biso   1.000  Cu
  Cu27     1.0000 0.34984  0.40811  0.66297  Biso   1.000  Cu
  Cu28     1.0000 0.65016  0.90811  0.83703  Biso   1.000  Cu
  N1       1.0000 0.01800  0.86320  0.44875  Biso   1.000  N
  N2       1.0000 0.98200  0.36320  0.05125  Biso   1.000  N
  N3       1.0000 0.98200  0.13680  0.55125  Biso   1.000  N
  N4       1.0000 0.01800  0.63680  0.94875  Biso   1.000  N
  N5       1.0000 0.01420  0.75041  0.59018  Biso   1.000  N
  N6       1.0000 0.98580  0.25041  0.90982  Biso   1.000  N
  N7       1.0000 0.98580  0.24959  0.40982  Biso   1.000  N
  N8       1.0000 0.01420  0.74959  0.09018  Biso   1.000  N
  N9       1.0000 0.04680  0.73964  0.63350  Biso   1.000  N
  N10      1.0000 0.95320  0.23964  0.86650  Biso   1.000  N
  N11      1.0000 0.95320  0.26036  0.36650  Biso   1.000  N
  N12      1.0000 0.04680  0.76036  0.13350  Biso   1.000  N
  N13      1.0000 0.26660  0.79950  0.78207  Biso   1.000  N
  N14      1.0000 0.73340  0.29950  0.71793  Biso   1.000  N
  N15      1.0000 0.73340  0.20050  0.21793  Biso   1.000  N
  N16      1.0000 0.26660  0.70050  0.28207  Biso   1.000  N
  N17      1.0000 0.70340  0.65240  0.38513  Biso   1.000  N
  N18      1.0000 0.29660  0.15240  0.11487  Biso   1.000  N
  N19      1.0000 0.29660  0.34760  0.61487  Biso   1.000  N
  N20      1.0000 0.70340  0.84760  0.88513  Biso   1.000  N
  N21      1.0000 0.76170  0.76595  0.53098  Biso   1.000  N
  N22      1.0000 0.23830  0.26595  0.96902  Biso   1.000  N
  N23      1.0000 0.23830  0.23405  0.46902  Biso   1.000  N
  N24      1.0000 0.76170  0.73405  0.03098  Biso   1.000  N
  N25      1.0000 0.74760  0.81696  0.55358  Biso   1.000  N
  N26      1.0000 0.25240  0.31696  0.94642  Biso   1.000  N
  N27      1.0000 0.25240  0.18304  0.44642  Biso   1.000  N
  N28      1.0000 0.74760  0.68304  0.05358  Biso   1.000  N
  N29      1.0000 0.64070  0.03650  0.56160  Biso   1.000  N
  N30      1.0000 0.35930  0.53650  0.93840  Biso   1.000  N
  N31      1.0000 0.35930  0.96350  0.43840  Biso   1.000  N
  N32      1.0000 0.64070  0.46350  0.06160  Biso   1.000  N
  N33      1.0000 0.27190  0.57680  0.52410  Biso   1.000  N
  N34      1.0000 0.72810  0.07680  0.97590  Biso   1.000  N
  N35      1.0000 0.72810  0.42320  0.47590  Biso   1.000  N
  N36      1.0000 0.27190  0.92320  0.02410  Biso   1.000  N
  N37      1.0000 0.85690  0.62306  0.56350  Biso   1.000  N
  N38      1.0000 0.14310  0.12306  0.93650  Biso   1.000  N
  N39      1.0000 0.14310  0.37694  0.43650  Biso   1.000  N
  N40      1.0000 0.85690  0.87694  0.06350  Biso   1.000  N
  N41      1.0000 0.75090  0.60651  0.57621  Biso   1.000  N
  N42      1.0000 0.24910  0.10651  0.92379  Biso   1.000  N
  N43      1.0000 0.24910  0.39349  0.42379  Biso   1.000  N
  N44      1.0000 0.75090  0.89349  0.07621  Biso   1.000  N
  N45      1.0000 0.47470  0.45485  0.63529  Biso   1.000  N
  N46      1.0000 0.52530  0.95485  0.86471  Biso   1.000  N
  N47      1.0000 0.52530  0.54515  0.36471  Biso   1.000  N
  N48      1.0000 0.47470  0.04515  0.13529  Biso   1.000  N
  N49      1.0000 0.39160  0.60360  0.75660  Biso   1.000  N
  N50      1.0000 0.60840  0.10360  0.74340  Biso   1.000  N
  N51      1.0000 0.60840  0.39640  0.24340  Biso   1.000  N
  N52      1.0000 0.39160  0.89640  0.25660  Biso   1.000  N
  N53      1.0000 0.77220  0.63238  0.68878  Biso   1.000  N
  N54      1.0000 0.22780  0.13238  0.81122  Biso   1.000  N
  N55      1.0000 0.22780  0.36762  0.31122  Biso   1.000  N
  N56      1.0000 0.77220  0.86762  0.18878  Biso   1.000  N
  N57      1.0000 0.88250  0.61620  0.67949  Biso   1.000  N
  N58      1.0000 0.11750  0.11620  0.82051  Biso   1.000  N
  N59      1.0000 0.11750  0.38380  0.32051  Biso   1.000  N
  N60      1.0000 0.88250  0.88380  0.17949  Biso   1.000  N
  N61      1.0000 0.20630  0.46070  0.66933  Biso   1.000  N
  N62      1.0000 0.79370  0.96070  0.83067  Biso   1.000  N
  N63      1.0000 0.79370  0.53930  0.33067  Biso   1.000  N
  N64      1.0000 0.20630  0.03930  0.16933  Biso   1.000  N
  N65      1.0000 0.93690  0.67395  0.84487  Biso   1.000  N
  N66      1.0000 0.06310  0.17395  0.65513  Biso   1.000  N
  N67      1.0000 0.06310  0.32605  0.15513  Biso   1.000  N
  N68      1.0000 0.93690  0.82605  0.34487  Biso   1.000  N
  N69      1.0000 0.82680  0.78070  0.70086  Biso   1.000  N
  N70      1.0000 0.17320  0.28070  0.79914  Biso   1.000  N
  N71      1.0000 0.17320  0.21930  0.29914  Biso   1.000  N
  N72      1.0000 0.82680  0.71930  0.20086  Biso   1.000  N
  N73      1.0000 0.83560  0.82682  0.67298  Biso   1.000  N
  N74      1.0000 0.16440  0.32682  0.82702  Biso   1.000  N
  N75      1.0000 0.16440  0.17318  0.32702  Biso   1.000  N
  N76      1.0000 0.83560  0.67318  0.17298  Biso   1.000  N
  N77      1.0000 0.95740  0.03694  0.63865  Biso   1.000  N
  N78      1.0000 0.04260  0.53694  0.86135  Biso   1.000  N
  N79      1.0000 0.04260  0.96306  0.36135  Biso   1.000  N
  N80      1.0000 0.95740  0.46306  0.13865  Biso   1.000  N
  N81      1.0000 0.58820  0.87415  0.77853  Biso   1.000  N
  N82      1.0000 0.41180  0.37415  0.72147  Biso   1.000  N
  N83      1.0000 0.41180  0.12585  0.22147  Biso   1.000  N
  N84      1.0000 0.58820  0.62585  0.27853  Biso   1.000  N
  N85      1.0000 0.58390  0.74749  0.64564  Biso   1.000  N
  N86      1.0000 0.41610  0.24749  0.85436  Biso   1.000  N
  N87      1.0000 0.41610  0.25251  0.35436  Biso   1.000  N
  N88      1.0000 0.58390  0.75251  0.14564  Biso   1.000  N
  N89      1.0000 0.55730  0.73097  0.60323  Biso   1.000  N
  N90      1.0000 0.44270  0.23097  0.89677  Biso   1.000  N
  N91      1.0000 0.44270  0.26903  0.39677  Biso   1.000  N
  N92      1.0000 0.55730  0.76903  0.10323  Biso   1.000  N
  N93      1.0000 0.35380  0.75880  0.44800  Biso   1.000  N
  N94      1.0000 0.64620  0.25880  0.05200  Biso   1.000  N
  N95      1.0000 0.64620  0.24120  0.55200  Biso   1.000  N
  N96      1.0000 0.35380  0.74120  0.94800  Biso   1.000  N
  C1       1.0000 0.02920  0.78500  0.49967  Biso   1.000  C
  C2       1.0000 0.97080  0.28500  0.00033  Biso   1.000  C
  C3       1.0000 0.97080  0.21500  0.50033  Biso   1.000  C
  C4       1.0000 0.02920  0.71500  0.99967  Biso   1.000  C
  H1       1.0000 0.02450  0.74460  0.50420  Biso   1.000  H
  H2       1.0000 0.97550  0.24460  0.99580  Biso   1.000  H
  H3       1.0000 0.97550  0.25540  0.49580  Biso   1.000  H
  H4       1.0000 0.02450  0.75540  0.00420  Biso   1.000  H
  C5       1.0000 0.01340  0.80690  0.45790  Biso   1.000  C
  C6       1.0000 0.98660  0.30690  0.04210  Biso   1.000  C
  C7       1.0000 0.98660  0.19310  0.54210  Biso   1.000  C
  C8       1.0000 0.01340  0.69310  0.95790  Biso   1.000  C
  H5       1.0000 0.99870  0.78040  0.43500  Biso   1.000  H
  H6       1.0000 0.00130  0.28040  0.06500  Biso   1.000  H
  H7       1.0000 0.00130  0.21960  0.56500  Biso   1.000  H
  H8       1.0000 0.99870  0.71960  0.93500  Biso   1.000  H
  C9       1.0000 0.03930  0.89930  0.48290  Biso   1.000  C
  C10      1.0000 0.96070  0.39930  0.01710  Biso   1.000  C
  C11      1.0000 0.96070  0.10070  0.51710  Biso   1.000  C
  C12      1.0000 0.03930  0.60070  0.98290  Biso   1.000  C
  H9       1.0000 0.04170  0.93950  0.47750  Biso   1.000  H
  H10      1.0000 0.95830  0.43950  0.02250  Biso   1.000  H
  H11      1.0000 0.95830  0.06050  0.52250  Biso   1.000  H
  H12      1.0000 0.04170  0.56050  0.97750  Biso   1.000  H
  C13      1.0000 0.05770  0.88090  0.52535  Biso   1.000  C
  C14      1.0000 0.94230  0.38090  0.97465  Biso   1.000  C
  C15      1.0000 0.94230  0.11910  0.47465  Biso   1.000  C
  C16      1.0000 0.05770  0.61910  0.02535  Biso   1.000  C
  H13      1.0000 0.07410  0.90810  0.54770  Biso   1.000  H
  H14      1.0000 0.92590  0.40810  0.95230  Biso   1.000  H
  H15      1.0000 0.92590  0.09190  0.45230  Biso   1.000  H
  H16      1.0000 0.07410  0.59190  0.04770  Biso   1.000  H
  C17      1.0000 0.05180  0.82190  0.53450  Biso   1.000  C
  C18      1.0000 0.94820  0.32190  0.96550  Biso   1.000  C
  C19      1.0000 0.94820  0.17810  0.46550  Biso   1.000  C
  C20      1.0000 0.05180  0.67810  0.03450  Biso   1.000  C
  C21      1.0000 0.06730  0.79980  0.57943  Biso   1.000  C
  C22      1.0000 0.93270  0.29980  0.92057  Biso   1.000  C
  C23      1.0000 0.93270  0.20020  0.42057  Biso   1.000  C
  C24      1.0000 0.06730  0.70020  0.07943  Biso   1.000  C
  C25      1.0000 0.13270  0.82260  0.61592  Biso   1.000  C
  C26      1.0000 0.86730  0.32260  0.88408  Biso   1.000  C
  C27      1.0000 0.86730  0.17740  0.38408  Biso   1.000  C
  C28      1.0000 0.13270  0.67740  0.11592  Biso   1.000  C
  H17      1.0000 0.17710  0.85700  0.61770  Biso   1.000  H
  H18      1.0000 0.82290  0.35700  0.88230  Biso   1.000  H
  H19      1.0000 0.82290  0.14300  0.38230  Biso   1.000  H
  H20      1.0000 0.17710  0.64300  0.11770  Biso   1.000  H
  C29      1.0000 0.11890  0.78390  0.64921  Biso   1.000  C
  C30      1.0000 0.88110  0.28390  0.85079  Biso   1.000  C
  C31      1.0000 0.88110  0.21610  0.35079  Biso   1.000  C
  C32      1.0000 0.11890  0.71610  0.14921  Biso   1.000  C
  C33      1.0000 0.16980  0.78800  0.69480  Biso   1.000  C
  C34      1.0000 0.83020  0.28800  0.80520  Biso   1.000  C
  C35      1.0000 0.83020  0.21200  0.30520  Biso   1.000  C
  C36      1.0000 0.16980  0.71200  0.19480  Biso   1.000  C
  C37      1.0000 0.21450  0.84140  0.71238  Biso   1.000  C
  C38      1.0000 0.78550  0.34140  0.78762  Biso   1.000  C
  C39      1.0000 0.78550  0.15860  0.28762  Biso   1.000  C
  C40      1.0000 0.21450  0.65860  0.21238  Biso   1.000  C
  H21      1.0000 0.21260  0.87480  0.69500  Biso   1.000  H
  H22      1.0000 0.78740  0.37480  0.80500  Biso   1.000  H
  H23      1.0000 0.78740  0.12520  0.30500  Biso   1.000  H
  H24      1.0000 0.21260  0.62520  0.19500  Biso   1.000  H
  C41      1.0000 0.26060  0.84440  0.75490  Biso   1.000  C
  C42      1.0000 0.73940  0.34440  0.74510  Biso   1.000  C
  C43      1.0000 0.73940  0.15560  0.24510  Biso   1.000  C
  C44      1.0000 0.26060  0.65560  0.25490  Biso   1.000  C
  H25      1.0000 0.28980  0.88050  0.76550  Biso   1.000  H
  H26      1.0000 0.71020  0.38050  0.73450  Biso   1.000  H
  H27      1.0000 0.71020  0.11950  0.23450  Biso   1.000  H
  H28      1.0000 0.28980  0.61950  0.26550  Biso   1.000  H
  C45      1.0000 0.22750  0.74870  0.76590  Biso   1.000  C
  C46      1.0000 0.77250  0.24870  0.73410  Biso   1.000  C
  C47      1.0000 0.77250  0.25130  0.23410  Biso   1.000  C
  C48      1.0000 0.22750  0.75130  0.26590  Biso   1.000  C
  H29      1.0000 0.23380  0.71610  0.78420  Biso   1.000  H
  H30      1.0000 0.76620  0.21610  0.71580  Biso   1.000  H
  H31      1.0000 0.76620  0.28390  0.21580  Biso   1.000  H
  H32      1.0000 0.23380  0.78390  0.28420  Biso   1.000  H
  C49      1.0000 0.17750  0.74050  0.72309  Biso   1.000  C
  C50      1.0000 0.82250  0.24050  0.77691  Biso   1.000  C
  C51      1.0000 0.82250  0.25950  0.27691  Biso   1.000  C
  C52      1.0000 0.17750  0.75950  0.22309  Biso   1.000  C
  H33      1.0000 0.14950  0.70370  0.71360  Biso   1.000  H
  H34      1.0000 0.85050  0.20370  0.78640  Biso   1.000  H
  H35      1.0000 0.85050  0.29630  0.28640  Biso   1.000  H
  H36      1.0000 0.14950  0.79630  0.21360  Biso   1.000  H
  C53      1.0000 0.71360  0.67410  0.46117  Biso   1.000  C
  C54      1.0000 0.28640  0.17410  0.03883  Biso   1.000  C
  C55      1.0000 0.28640  0.32590  0.53883  Biso   1.000  C
  C56      1.0000 0.71360  0.82590  0.96117  Biso   1.000  C
  H37      1.0000 0.71290  0.65960  0.48920  Biso   1.000  H
  H38      1.0000 0.28710  0.15960  0.01080  Biso   1.000  H
  H39      1.0000 0.28710  0.34040  0.51080  Biso   1.000  H
  H40      1.0000 0.71290  0.84040  0.98920  Biso   1.000  H
  C57      1.0000 0.70150  0.63700  0.42676  Biso   1.000  C
  C58      1.0000 0.29850  0.13700  0.07324  Biso   1.000  C
  C59      1.0000 0.29850  0.36300  0.57324  Biso   1.000  C
  C60      1.0000 0.70150  0.86300  0.92676  Biso   1.000  C
  H41      1.0000 0.69080  0.59730  0.43250  Biso   1.000  H
  H42      1.0000 0.30920  0.09730  0.06750  Biso   1.000  H
  H43      1.0000 0.30920  0.40270  0.56750  Biso   1.000  H
  H44      1.0000 0.69080  0.90270  0.93250  Biso   1.000  H
  C61      1.0000 0.72380  0.70900  0.37894  Biso   1.000  C
  C62      1.0000 0.27620  0.20900  0.12106  Biso   1.000  C
  C63      1.0000 0.27620  0.29100  0.62106  Biso   1.000  C
  C64      1.0000 0.72380  0.79100  0.87894  Biso   1.000  C
  H45      1.0000 0.73150  0.72160  0.35090  Biso   1.000  H
  H46      1.0000 0.26850  0.22160  0.14910  Biso   1.000  H
  H47      1.0000 0.26850  0.27840  0.64910  Biso   1.000  H
  H48      1.0000 0.73150  0.77840  0.85090  Biso   1.000  H
  C65      1.0000 0.73400  0.74990  0.41152  Biso   1.000  C
  C66      1.0000 0.26600  0.24990  0.08848  Biso   1.000  C
  C67      1.0000 0.26600  0.25010  0.58848  Biso   1.000  C
  C68      1.0000 0.73400  0.75010  0.91152  Biso   1.000  C
  H49      1.0000 0.74580  0.78920  0.40490  Biso   1.000  H
  H50      1.0000 0.25420  0.28920  0.09510  Biso   1.000  H
  H51      1.0000 0.25420  0.21080  0.59510  Biso   1.000  H
  H52      1.0000 0.74580  0.71080  0.90490  Biso   1.000  H
  C69      1.0000 0.72710  0.73350  0.45432  Biso   1.000  C
  C70      1.0000 0.27290  0.23350  0.04568  Biso   1.000  C
  C71      1.0000 0.27290  0.26650  0.54568  Biso   1.000  C
  C72      1.0000 0.72710  0.76650  0.95432  Biso   1.000  C
  C73      1.0000 0.72890  0.77820  0.48857  Biso   1.000  C
  C74      1.0000 0.27110  0.27820  0.01143  Biso   1.000  C
  C75      1.0000 0.27110  0.22180  0.51143  Biso   1.000  C
  C76      1.0000 0.72890  0.72180  0.98857  Biso   1.000  C
  C77      1.0000 0.69510  0.83660  0.48354  Biso   1.000  C
  C78      1.0000 0.30490  0.33660  0.01646  Biso   1.000  C
  C79      1.0000 0.30490  0.16340  0.51646  Biso   1.000  C
  C80      1.0000 0.69510  0.66340  0.98354  Biso   1.000  C
  H53      1.0000 0.66940  0.85610  0.45780  Biso   1.000  H
  H54      1.0000 0.33060  0.35610  0.04220  Biso   1.000  H
  H55      1.0000 0.33060  0.14390  0.54220  Biso   1.000  H
  H56      1.0000 0.66940  0.64390  0.95780  Biso   1.000  H
  C81      1.0000 0.70810  0.85970  0.52531  Biso   1.000  C
  C82      1.0000 0.29190  0.35970  0.97469  Biso   1.000  C
  C83      1.0000 0.29190  0.14030  0.47469  Biso   1.000  C
  C84      1.0000 0.70810  0.64030  0.02531  Biso   1.000  C
  C85      1.0000 0.68330  0.92000  0.53800  Biso   1.000  C
  C86      1.0000 0.31670  0.42000  0.96200  Biso   1.000  C
  C87      1.0000 0.31670  0.08000  0.46200  Biso   1.000  C
  C88      1.0000 0.68330  0.58000  0.03800  Biso   1.000  C
  C89      1.0000 0.69140  0.96540  0.50930  Biso   1.000  C
  C90      1.0000 0.30860  0.46540  0.99070  Biso   1.000  C
  C91      1.0000 0.30860  0.03460  0.49070  Biso   1.000  C
  C92      1.0000 0.69140  0.53460  0.00930  Biso   1.000  C
  H57      1.0000 0.71220  0.95830  0.48160  Biso   1.000  H
  H58      1.0000 0.28780  0.45830  0.01840  Biso   1.000  H
  H59      1.0000 0.28780  0.04170  0.51840  Biso   1.000  H
  H60      1.0000 0.71220  0.54170  0.98160  Biso   1.000  H
  C93      1.0000 0.66770  0.02220  0.52250  Biso   1.000  C
  C94      1.0000 0.33230  0.52220  0.97750  Biso   1.000  C
  C95      1.0000 0.33230  0.97780  0.47750  Biso   1.000  C
  C96      1.0000 0.66770  0.47780  0.02250  Biso   1.000  C
  H61      1.0000 0.67110  0.05240  0.50250  Biso   1.000  H
  H62      1.0000 0.32890  0.55240  0.99750  Biso   1.000  H
  H63      1.0000 0.32890  0.94760  0.49750  Biso   1.000  H
  H64      1.0000 0.67110  0.44760  0.00250  Biso   1.000  H
  C97      1.0000 0.63490  0.99370  0.58830  Biso   1.000  C
  C98      1.0000 0.36510  0.49370  0.91170  Biso   1.000  C
  C99      1.0000 0.36510  0.00630  0.41170  Biso   1.000  C
  C100     1.0000 0.63490  0.50630  0.08830  Biso   1.000  C
  H65      1.0000 0.61690  0.00250  0.61610  Biso   1.000  H
  H66      1.0000 0.38310  0.50250  0.88390  Biso   1.000  H
  H67      1.0000 0.38310  0.99750  0.38390  Biso   1.000  H
  H68      1.0000 0.61690  0.49750  0.11610  Biso   1.000  H
  C101     1.0000 0.65390  0.93470  0.57840  Biso   1.000  C
  C102     1.0000 0.34610  0.43470  0.92160  Biso   1.000  C
  C103     1.0000 0.34610  0.06530  0.42160  Biso   1.000  C
  C104     1.0000 0.65390  0.56530  0.07840  Biso   1.000  C
  H69      1.0000 0.64660  0.90560  0.59910  Biso   1.000  H
  H70      1.0000 0.35340  0.40560  0.90090  Biso   1.000  H
  H71      1.0000 0.35340  0.09440  0.40090  Biso   1.000  H
  H72      1.0000 0.64660  0.59440  0.09910  Biso   1.000  H
  C105     1.0000 0.09860  0.62370  0.54270  Biso   1.000  C
  C106     1.0000 0.90140  0.12370  0.95730  Biso   1.000  C
  C107     1.0000 0.90140  0.37630  0.45730  Biso   1.000  C
  C108     1.0000 0.09860  0.87630  0.04270  Biso   1.000  C
  H73      1.0000 0.06210  0.65950  0.54680  Biso   1.000  H
  H74      1.0000 0.93790  0.15950  0.95320  Biso   1.000  H
  H75      1.0000 0.93790  0.34050  0.45320  Biso   1.000  H
  H76      1.0000 0.06210  0.84050  0.04680  Biso   1.000  H
  C109     1.0000 0.21200  0.62310  0.53000  Biso   1.000  C
  C110     1.0000 0.78800  0.12310  0.97000  Biso   1.000  C
  C111     1.0000 0.78800  0.37690  0.47000  Biso   1.000  C
  C112     1.0000 0.21200  0.87690  0.03000  Biso   1.000  C
  H77      1.0000 0.24680  0.65920  0.52540  Biso   1.000  H
  H78      1.0000 0.75320  0.15920  0.97460  Biso   1.000  H
  H79      1.0000 0.75320  0.34080  0.47460  Biso   1.000  H
  H80      1.0000 0.24680  0.84080  0.02540  Biso   1.000  H
  C113     1.0000 0.22220  0.53090  0.53190  Biso   1.000  C
  C114     1.0000 0.77780  0.03090  0.96810  Biso   1.000  C
  C115     1.0000 0.77780  0.46910  0.46810  Biso   1.000  C
  C116     1.0000 0.22220  0.96910  0.03190  Biso   1.000  C
  H81      1.0000 0.26270  0.49590  0.52920  Biso   1.000  H
  H82      1.0000 0.73730  0.99590  0.97080  Biso   1.000  H
  H83      1.0000 0.73730  0.50410  0.47080  Biso   1.000  H
  H84      1.0000 0.26270  0.00410  0.02920  Biso   1.000  H
  C117     1.0000 0.10920  0.52740  0.54460  Biso   1.000  C
  C118     1.0000 0.89080  0.02740  0.95540  Biso   1.000  C
  C119     1.0000 0.89080  0.47260  0.45540  Biso   1.000  C
  C120     1.0000 0.10920  0.97260  0.04460  Biso   1.000  C
  H85      1.0000 0.07880  0.49060  0.55040  Biso   1.000  H
  H86      1.0000 0.92120  0.99060  0.94960  Biso   1.000  H
  H87      1.0000 0.92120  0.50940  0.44960  Biso   1.000  H
  H88      1.0000 0.07880  0.00940  0.05040  Biso   1.000  H
  C121     1.0000 0.04310  0.57500  0.54880  Biso   1.000  C
  C122     1.0000 0.95690  0.07500  0.95120  Biso   1.000  C
  C123     1.0000 0.95690  0.42500  0.45120  Biso   1.000  C
  C124     1.0000 0.04310  0.92500  0.04880  Biso   1.000  C
  C125     1.0000 0.92300  0.57390  0.56154  Biso   1.000  C
  C126     1.0000 0.07700  0.07390  0.93846  Biso   1.000  C
  C127     1.0000 0.07700  0.42610  0.43846  Biso   1.000  C
  C128     1.0000 0.92300  0.92610  0.06154  Biso   1.000  C
  C129     1.0000 0.85790  0.52580  0.57284  Biso   1.000  C
  C130     1.0000 0.14210  0.02580  0.92716  Biso   1.000  C
  C131     1.0000 0.14210  0.47420  0.42716  Biso   1.000  C
  C132     1.0000 0.85790  0.97420  0.07284  Biso   1.000  C
  H89      1.0000 0.88160  0.48660  0.57370  Biso   1.000  H
  H90      1.0000 0.11840  0.98660  0.92630  Biso   1.000  H
  H91      1.0000 0.11840  0.51340  0.42630  Biso   1.000  H
  H92      1.0000 0.88160  0.01340  0.07370  Biso   1.000  H
  C133     1.0000 0.75270  0.54730  0.58245  Biso   1.000  C
  C134     1.0000 0.24730  0.04730  0.91755  Biso   1.000  C
  C135     1.0000 0.24730  0.45270  0.41755  Biso   1.000  C
  C136     1.0000 0.75270  0.95270  0.08245  Biso   1.000  C
  C137     1.0000 0.65460  0.51610  0.59873  Biso   1.000  C
  C138     1.0000 0.34540  0.01610  0.90127  Biso   1.000  C
  C139     1.0000 0.34540  0.48390  0.40127  Biso   1.000  C
  C140     1.0000 0.65460  0.98390  0.09873  Biso   1.000  C
  C141     1.0000 0.66770  0.45770  0.61212  Biso   1.000  C
  C142     1.0000 0.33230  0.95770  0.88788  Biso   1.000  C
  C143     1.0000 0.33230  0.54230  0.38788  Biso   1.000  C
  C144     1.0000 0.66770  0.04230  0.11212  Biso   1.000  C
  H93      1.0000 0.73720  0.43770  0.60880  Biso   1.000  H
  H94      1.0000 0.26280  0.93770  0.89120  Biso   1.000  H
  H95      1.0000 0.26280  0.56230  0.39120  Biso   1.000  H
  H96      1.0000 0.73720  0.06230  0.10880  Biso   1.000  H
  C145     1.0000 0.57920  0.42940  0.63020  Biso   1.000  C
  C146     1.0000 0.42080  0.92940  0.86980  Biso   1.000  C
  C147     1.0000 0.42080  0.57060  0.36980  Biso   1.000  C
  C148     1.0000 0.57920  0.07060  0.13020  Biso   1.000  C
  H97      1.0000 0.59180  0.39070  0.63940  Biso   1.000  H
  H98      1.0000 0.40820  0.89070  0.86060  Biso   1.000  H
  H99      1.0000 0.40820  0.60930  0.36060  Biso   1.000  H
  H100     1.0000 0.59180  0.10930  0.13940  Biso   1.000  H
  C149     1.0000 0.45940  0.51000  0.62020  Biso   1.000  C
  C150     1.0000 0.54060  0.01000  0.87980  Biso   1.000  C
  C151     1.0000 0.54060  0.49000  0.37980  Biso   1.000  C
  C152     1.0000 0.45940  0.99000  0.12020  Biso   1.000  C
  H101     1.0000 0.38710  0.52820  0.62190  Biso   1.000  H
  H102     1.0000 0.61290  0.02820  0.87810  Biso   1.000  H
  H103     1.0000 0.61290  0.47180  0.37810  Biso   1.000  H
  H104     1.0000 0.38710  0.97180  0.12190  Biso   1.000  H
  C153     1.0000 0.54660  0.54090  0.60224  Biso   1.000  C
  C154     1.0000 0.45340  0.04090  0.89776  Biso   1.000  C
  C155     1.0000 0.45340  0.45910  0.39776  Biso   1.000  C
  C156     1.0000 0.54660  0.95910  0.10224  Biso   1.000  C
  H105     1.0000 0.53150  0.57910  0.59240  Biso   1.000  H
  H106     1.0000 0.46850  0.07910  0.90760  Biso   1.000  H
  H107     1.0000 0.46850  0.42090  0.40760  Biso   1.000  H
  H108     1.0000 0.53150  0.92090  0.09240  Biso   1.000  H
  C157     1.0000 0.51860  0.62440  0.70190  Biso   1.000  C
  C158     1.0000 0.48140  0.12440  0.79810  Biso   1.000  C
  C159     1.0000 0.48140  0.37560  0.29810  Biso   1.000  C
  C160     1.0000 0.51860  0.87560  0.20190  Biso   1.000  C
  H109     1.0000 0.52830  0.64370  0.67610  Biso   1.000  H
  H110     1.0000 0.47170  0.14370  0.82390  Biso   1.000  H
  H111     1.0000 0.47170  0.35630  0.32390  Biso   1.000  H
  H112     1.0000 0.52830  0.85630  0.17610  Biso   1.000  H
  C161     1.0000 0.41300  0.62940  0.72030  Biso   1.000  C
  C162     1.0000 0.58700  0.12940  0.77970  Biso   1.000  C
  C163     1.0000 0.58700  0.37060  0.27970  Biso   1.000  C
  C164     1.0000 0.41300  0.87060  0.22030  Biso   1.000  C
  H113     1.0000 0.35370  0.65260  0.70590  Biso   1.000  H
  H114     1.0000 0.64630  0.15260  0.79410  Biso   1.000  H
  H115     1.0000 0.64630  0.34740  0.29410  Biso   1.000  H
  H116     1.0000 0.35370  0.84740  0.20590  Biso   1.000  H
  C165     1.0000 0.47510  0.57040  0.77580  Biso   1.000  C
  C166     1.0000 0.52490  0.07040  0.72420  Biso   1.000  C
  C167     1.0000 0.52490  0.42960  0.22420  Biso   1.000  C
  C168     1.0000 0.47510  0.92960  0.27580  Biso   1.000  C
  H117     1.0000 0.46090  0.55100  0.80110  Biso   1.000  H
  H118     1.0000 0.53910  0.05100  0.69890  Biso   1.000  H
  H119     1.0000 0.53910  0.44900  0.19890  Biso   1.000  H
  H120     1.0000 0.46090  0.94900  0.30110  Biso   1.000  H
  C169     1.0000 0.58460  0.56200  0.76070  Biso   1.000  C
  C170     1.0000 0.41540  0.06200  0.73930  Biso   1.000  C
  C171     1.0000 0.41540  0.43800  0.23930  Biso   1.000  C
  C172     1.0000 0.58460  0.93800  0.26070  Biso   1.000  C
  H121     1.0000 0.64120  0.53790  0.77590  Biso   1.000  H
  H122     1.0000 0.35880  0.03790  0.72410  Biso   1.000  H
  H123     1.0000 0.35880  0.46210  0.22410  Biso   1.000  H
  H124     1.0000 0.64120  0.96210  0.27590  Biso   1.000  H
  C173     1.0000 0.60770  0.59030  0.72259  Biso   1.000  C
  C174     1.0000 0.39230  0.09030  0.77741  Biso   1.000  C
  C175     1.0000 0.39230  0.40970  0.27741  Biso   1.000  C
  C176     1.0000 0.60770  0.90970  0.22259  Biso   1.000  C
  C177     1.0000 0.72330  0.58560  0.70659  Biso   1.000  C
  C178     1.0000 0.27670  0.08560  0.79341  Biso   1.000  C
  C179     1.0000 0.27670  0.41440  0.29341  Biso   1.000  C
  C180     1.0000 0.72330  0.91440  0.20659  Biso   1.000  C
  C181     1.0000 0.80080  0.53930  0.70863  Biso   1.000  C
  C182     1.0000 0.19920  0.03930  0.79137  Biso   1.000  C
  C183     1.0000 0.19920  0.46070  0.29137  Biso   1.000  C
  C184     1.0000 0.80080  0.96070  0.20863  Biso   1.000  C
  H125     1.0000 0.78930  0.50210  0.71980  Biso   1.000  H
  H126     1.0000 0.21070  0.00210  0.78020  Biso   1.000  H
  H127     1.0000 0.21070  0.49790  0.28020  Biso   1.000  H
  H128     1.0000 0.78930  0.99790  0.21980  Biso   1.000  H
  C185     1.0000 0.90030  0.55880  0.69066  Biso   1.000  C
  C186     1.0000 0.09970  0.05880  0.80934  Biso   1.000  C
  C187     1.0000 0.09970  0.44120  0.30934  Biso   1.000  C
  C188     1.0000 0.90030  0.94120  0.19066  Biso   1.000  C
  C189     1.0000 0.00660  0.52690  0.68341  Biso   1.000  C
  C190     1.0000 0.99340  0.02690  0.81659  Biso   1.000  C
  C191     1.0000 0.99340  0.47310  0.31659  Biso   1.000  C
  C192     1.0000 0.00660  0.97310  0.18341  Biso   1.000  C
  C193     1.0000 0.99800  0.46810  0.66877  Biso   1.000  C
  C194     1.0000 0.00200  0.96810  0.83123  Biso   1.000  C
  C195     1.0000 0.00200  0.53190  0.33123  Biso   1.000  C
  C196     1.0000 0.99800  0.03190  0.16877  Biso   1.000  C
  H129     1.0000 0.92480  0.44990  0.66370  Biso   1.000  H
  H130     1.0000 0.07520  0.94990  0.83630  Biso   1.000  H
  H131     1.0000 0.07520  0.55010  0.33630  Biso   1.000  H
  H132     1.0000 0.92480  0.05010  0.16370  Biso   1.000  H
  C197     1.0000 0.09780  0.43840  0.66218  Biso   1.000  C
  C198     1.0000 0.90220  0.93840  0.83782  Biso   1.000  C
  C199     1.0000 0.90220  0.56160  0.33782  Biso   1.000  C
  C200     1.0000 0.09780  0.06160  0.16218  Biso   1.000  C
  H133     1.0000 0.08970  0.40000  0.65200  Biso   1.000  H
  H134     1.0000 0.91030  0.90000  0.84800  Biso   1.000  H
  H135     1.0000 0.91030  0.60000  0.34800  Biso   1.000  H
  H136     1.0000 0.08970  0.10000  0.15200  Biso   1.000  H
  C201     1.0000 0.21460  0.51570  0.68400  Biso   1.000  C
  C202     1.0000 0.78540  0.01570  0.81600  Biso   1.000  C
  C203     1.0000 0.78540  0.48430  0.31600  Biso   1.000  C
  C204     1.0000 0.21460  0.98430  0.18400  Biso   1.000  C
  H137     1.0000 0.28940  0.53210  0.69030  Biso   1.000  H
  H138     1.0000 0.71060  0.03210  0.80970  Biso   1.000  H
  H139     1.0000 0.71060  0.46790  0.30970  Biso   1.000  H
  H140     1.0000 0.28940  0.96790  0.19030  Biso   1.000  H
  C205     1.0000 0.11800  0.54940  0.69052  Biso   1.000  C
  C206     1.0000 0.88200  0.04940  0.80948  Biso   1.000  C
  C207     1.0000 0.88200  0.45060  0.30948  Biso   1.000  C
  C208     1.0000 0.11800  0.95060  0.19052  Biso   1.000  C
  H141     1.0000 0.12890  0.58800  0.69990  Biso   1.000  H
  H142     1.0000 0.87110  0.08800  0.80010  Biso   1.000  H
  H143     1.0000 0.87110  0.41200  0.30010  Biso   1.000  H
  H144     1.0000 0.12890  0.91200  0.19990  Biso   1.000  H
  C209     1.0000 0.81790  0.70710  0.78045  Biso   1.000  C
  C210     1.0000 0.18210  0.20710  0.71955  Biso   1.000  C
  C211     1.0000 0.18210  0.29290  0.21955  Biso   1.000  C
  C212     1.0000 0.81790  0.79290  0.28045  Biso   1.000  C
  H145     1.0000 0.75240  0.70080  0.76010  Biso   1.000  H
  H146     1.0000 0.24760  0.20080  0.73990  Biso   1.000  H
  H147     1.0000 0.24760  0.29920  0.23990  Biso   1.000  H
  H148     1.0000 0.75240  0.79920  0.26010  Biso   1.000  H
  C213     1.0000 0.84580  0.66830  0.81425  Biso   1.000  C
  C214     1.0000 0.15420  0.16830  0.68575  Biso   1.000  C
  C215     1.0000 0.15420  0.33170  0.18575  Biso   1.000  C
  C216     1.0000 0.84580  0.83170  0.31425  Biso   1.000  C
  H149     1.0000 0.79720  0.63560  0.81570  Biso   1.000  H
  H150     1.0000 0.20280  0.13560  0.68430  Biso   1.000  H
  H151     1.0000 0.20280  0.36440  0.18430  Biso   1.000  H
  H152     1.0000 0.79720  0.86440  0.31570  Biso   1.000  H
  C217     1.0000 0.00030  0.72260  0.84240  Biso   1.000  C
  C218     1.0000 0.99970  0.22260  0.65760  Biso   1.000  C
  C219     1.0000 0.99970  0.27740  0.15760  Biso   1.000  C
  C220     1.0000 0.00030  0.77740  0.34240  Biso   1.000  C
  H153     1.0000 0.06270  0.72880  0.86410  Biso   1.000  H
  H154     1.0000 0.93730  0.22880  0.63590  Biso   1.000  H
  H155     1.0000 0.93730  0.27120  0.13590  Biso   1.000  H
  H156     1.0000 0.06270  0.77120  0.36410  Biso   1.000  H
  C221     1.0000 0.98080  0.76460  0.81008  Biso   1.000  C
  C222     1.0000 0.01920  0.26460  0.68992  Biso   1.000  C
  C223     1.0000 0.01920  0.23540  0.18992  Biso   1.000  C
  C224     1.0000 0.98080  0.73540  0.31008  Biso   1.000  C
  H157     1.0000 0.02830  0.79790  0.81050  Biso   1.000  H
  H158     1.0000 0.97170  0.29790  0.68950  Biso   1.000  H
  H159     1.0000 0.97170  0.20210  0.18950  Biso   1.000  H
  H160     1.0000 0.02830  0.70210  0.31050  Biso   1.000  H
  C225     1.0000 0.88990  0.75630  0.77730  Biso   1.000  C
  C226     1.0000 0.11010  0.25630  0.72270  Biso   1.000  C
  C227     1.0000 0.11010  0.24370  0.22270  Biso   1.000  C
  C228     1.0000 0.88990  0.74370  0.27730  Biso   1.000  C
  C229     1.0000 0.87470  0.79720  0.74055  Biso   1.000  C
  C230     1.0000 0.12530  0.29720  0.75945  Biso   1.000  C
  C231     1.0000 0.12530  0.20280  0.25945  Biso   1.000  C
  C232     1.0000 0.87470  0.70280  0.24055  Biso   1.000  C
  C233     1.0000 0.91460  0.85470  0.73893  Biso   1.000  C
  C234     1.0000 0.08540  0.35470  0.76107  Biso   1.000  C
  C235     1.0000 0.08540  0.14530  0.26107  Biso   1.000  C
  C236     1.0000 0.91460  0.64530  0.23893  Biso   1.000  C
  H161     1.0000 0.95140  0.87690  0.76180  Biso   1.000  H
  H162     1.0000 0.04860  0.37690  0.73820  Biso   1.000  H
  H163     1.0000 0.04860  0.12310  0.23820  Biso   1.000  H
  H164     1.0000 0.95140  0.62310  0.26180  Biso   1.000  H
  C237     1.0000 0.88800  0.87190  0.69603  Biso   1.000  C
  C238     1.0000 0.11200  0.37190  0.80397  Biso   1.000  C
  C239     1.0000 0.11200  0.12810  0.30397  Biso   1.000  C
  C240     1.0000 0.88800  0.62810  0.19603  Biso   1.000  C
  C241     1.0000 0.91200  0.92870  0.67610  Biso   1.000  C
  C242     1.0000 0.08800  0.42870  0.82390  Biso   1.000  C
  C243     1.0000 0.08800  0.07130  0.32390  Biso   1.000  C
  C244     1.0000 0.91200  0.57130  0.17610  Biso   1.000  C
  C245     1.0000 0.91510  0.97960  0.69860  Biso   1.000  C
  C246     1.0000 0.08490  0.47960  0.80140  Biso   1.000  C
  C247     1.0000 0.08490  0.02040  0.30140  Biso   1.000  C
  C248     1.0000 0.91510  0.52040  0.19860  Biso   1.000  C
  H165     1.0000 0.90040  0.97910  0.72750  Biso   1.000  H
  H166     1.0000 0.09960  0.47910  0.77250  Biso   1.000  H
  H167     1.0000 0.09960  0.02090  0.27250  Biso   1.000  H
  H168     1.0000 0.90040  0.52090  0.22750  Biso   1.000  H
  C249     1.0000 0.93960  0.03220  0.67980  Biso   1.000  C
  C250     1.0000 0.06040  0.53220  0.82020  Biso   1.000  C
  C251     1.0000 0.06040  0.96780  0.32020  Biso   1.000  C
  C252     1.0000 0.93960  0.46780  0.17980  Biso   1.000  C
  H169     1.0000 0.94380  0.06590  0.69690  Biso   1.000  H
  H170     1.0000 0.05620  0.56590  0.80310  Biso   1.000  H
  H171     1.0000 0.05620  0.93410  0.30310  Biso   1.000  H
  H172     1.0000 0.94380  0.43410  0.19690  Biso   1.000  H
  C253     1.0000 0.94930  0.98850  0.61605  Biso   1.000  C
  C254     1.0000 0.05070  0.48850  0.88395  Biso   1.000  C
  C255     1.0000 0.05070  0.01150  0.38395  Biso   1.000  C
  C256     1.0000 0.94930  0.51150  0.11605  Biso   1.000  C
  H173     1.0000 0.95650  0.99080  0.58650  Biso   1.000  H
  H174     1.0000 0.04350  0.49080  0.91350  Biso   1.000  H
  H175     1.0000 0.04350  0.00920  0.41350  Biso   1.000  H
  H176     1.0000 0.95650  0.50920  0.08650  Biso   1.000  H
  C257     1.0000 0.93060  0.93410  0.63365  Biso   1.000  C
  C258     1.0000 0.06940  0.43410  0.86635  Biso   1.000  C
  C259     1.0000 0.06940  0.06590  0.36635  Biso   1.000  C
  C260     1.0000 0.93060  0.56590  0.13365  Biso   1.000  C
  H177     1.0000 0.93060  0.90070  0.61630  Biso   1.000  H
  H178     1.0000 0.06940  0.40070  0.88370  Biso   1.000  H
  H179     1.0000 0.06940  0.09930  0.38370  Biso   1.000  H
  H180     1.0000 0.93060  0.59930  0.11630  Biso   1.000  H
  C261     1.0000 0.54390  0.79200  0.73225  Biso   1.000  C
  C262     1.0000 0.45610  0.29200  0.76775  Biso   1.000  C
  C263     1.0000 0.45610  0.20800  0.26775  Biso   1.000  C
  C264     1.0000 0.54390  0.70800  0.23225  Biso   1.000  C
  H181     1.0000 0.53160  0.75160  0.73000  Biso   1.000  H
  H182     1.0000 0.46840  0.25160  0.77000  Biso   1.000  H
  H183     1.0000 0.46840  0.24840  0.27000  Biso   1.000  H
  H184     1.0000 0.53160  0.74840  0.23000  Biso   1.000  H
  C265     1.0000 0.56480  0.81700  0.77196  Biso   1.000  C
  C266     1.0000 0.43520  0.31700  0.72804  Biso   1.000  C
  C267     1.0000 0.43520  0.18300  0.22804  Biso   1.000  C
  C268     1.0000 0.56480  0.68300  0.27196  Biso   1.000  C
  H185     1.0000 0.56280  0.79300  0.79620  Biso   1.000  H
  H186     1.0000 0.43720  0.29300  0.70380  Biso   1.000  H
  H187     1.0000 0.43720  0.20700  0.20380  Biso   1.000  H
  H188     1.0000 0.56280  0.70700  0.29620  Biso   1.000  H
  C269     1.0000 0.57890  0.90660  0.74258  Biso   1.000  C
  C270     1.0000 0.42110  0.40660  0.75742  Biso   1.000  C
  C271     1.0000 0.42110  0.09340  0.25742  Biso   1.000  C
  C272     1.0000 0.57890  0.59340  0.24258  Biso   1.000  C
  H189     1.0000 0.58900  0.94700  0.74600  Biso   1.000  H
  H190     1.0000 0.41100  0.44700  0.75400  Biso   1.000  H
  H191     1.0000 0.41100  0.05300  0.25400  Biso   1.000  H
  H192     1.0000 0.58900  0.55300  0.24600  Biso   1.000  H
  C273     1.0000 0.55560  0.88550  0.70086  Biso   1.000  C
  C274     1.0000 0.44440  0.38550  0.79914  Biso   1.000  C
  C275     1.0000 0.44440  0.11450  0.29914  Biso   1.000  C
  C276     1.0000 0.55560  0.61450  0.20086  Biso   1.000  C
  H193     1.0000 0.55020  0.91110  0.67730  Biso   1.000  H
  H194     1.0000 0.44980  0.41110  0.82270  Biso   1.000  H
  H195     1.0000 0.44980  0.08890  0.32270  Biso   1.000  H
  H196     1.0000 0.55020  0.58890  0.17730  Biso   1.000  H
  C277     1.0000 0.54040  0.82550  0.69462  Biso   1.000  C
  C278     1.0000 0.45960  0.32550  0.80538  Biso   1.000  C
  C279     1.0000 0.45960  0.17450  0.30538  Biso   1.000  C
  C280     1.0000 0.54040  0.67450  0.19462  Biso   1.000  C
  C281     1.0000 0.52620  0.79850  0.65134  Biso   1.000  C
  C282     1.0000 0.47380  0.29850  0.84866  Biso   1.000  C
  C283     1.0000 0.47380  0.20150  0.34866  Biso   1.000  C
  C284     1.0000 0.52620  0.70150  0.15134  Biso   1.000  C
  C285     1.0000 0.46240  0.81520  0.61264  Biso   1.000  C
  C286     1.0000 0.53760  0.31520  0.88736  Biso   1.000  C
  C287     1.0000 0.53760  0.18480  0.38736  Biso   1.000  C
  C288     1.0000 0.46240  0.68480  0.11264  Biso   1.000  C
  H197     1.0000 0.41520  0.84840  0.60760  Biso   1.000  H
  H198     1.0000 0.58480  0.34840  0.89240  Biso   1.000  H
  H199     1.0000 0.58480  0.15160  0.39240  Biso   1.000  H
  H200     1.0000 0.41520  0.65160  0.10760  Biso   1.000  H
  C289     1.0000 0.48360  0.77190  0.58259  Biso   1.000  C
  C290     1.0000 0.51640  0.27190  0.91741  Biso   1.000  C
  C291     1.0000 0.51640  0.22810  0.41741  Biso   1.000  C
  C292     1.0000 0.48360  0.72810  0.08259  Biso   1.000  C
  C293     1.0000 0.44060  0.76680  0.53635  Biso   1.000  C
  C294     1.0000 0.55940  0.26680  0.96365  Biso   1.000  C
  C295     1.0000 0.55940  0.23320  0.46365  Biso   1.000  C
  C296     1.0000 0.44060  0.73320  0.03635  Biso   1.000  C
  C297     1.0000 0.38270  0.81370  0.51430  Biso   1.000  C
  C298     1.0000 0.61730  0.31370  0.98570  Biso   1.000  C
  C299     1.0000 0.61730  0.18630  0.48570  Biso   1.000  C
  C300     1.0000 0.38270  0.68630  0.01430  Biso   1.000  C
  H201     1.0000 0.37230  0.84880  0.52870  Biso   1.000  H
  H202     1.0000 0.62770  0.34880  0.97130  Biso   1.000  H
  H203     1.0000 0.62770  0.15120  0.47130  Biso   1.000  H
  H204     1.0000 0.37230  0.65120  0.02870  Biso   1.000  H
  C301     1.0000 0.34080  0.80760  0.47090  Biso   1.000  C
  C302     1.0000 0.65920  0.30760  0.02910  Biso   1.000  C
  C303     1.0000 0.65920  0.19240  0.52910  Biso   1.000  C
  C304     1.0000 0.34080  0.69240  0.97090  Biso   1.000  C
  H205     1.0000 0.30130  0.83920  0.45680  Biso   1.000  H
  H206     1.0000 0.69870  0.33920  0.04320  Biso   1.000  H
  H207     1.0000 0.69870  0.16080  0.54320  Biso   1.000  H
  H208     1.0000 0.30130  0.66080  0.95680  Biso   1.000  H
  C305     1.0000 0.40720  0.71500  0.46920  Biso   1.000  C
  C306     1.0000 0.59280  0.21500  0.03080  Biso   1.000  C
  C307     1.0000 0.59280  0.28500  0.53080  Biso   1.000  C
  C308     1.0000 0.40720  0.78500  0.96920  Biso   1.000  C
  H209     1.0000 0.41650  0.68040  0.45400  Biso   1.000  H
  H210     1.0000 0.58350  0.18040  0.04600  Biso   1.000  H
  H211     1.0000 0.58350  0.31960  0.54600  Biso   1.000  H
  H212     1.0000 0.41650  0.81960  0.95400  Biso   1.000  H
  C309     1.0000 0.45060  0.71670  0.51238  Biso   1.000  C
  C310     1.0000 0.54940  0.21670  0.98762  Biso   1.000  C
  C311     1.0000 0.54940  0.28330  0.48762  Biso   1.000  C
  C312     1.0000 0.45060  0.78330  0.01238  Biso   1.000  C
  H213     1.0000 0.48700  0.68360  0.52550  Biso   1.000  H
  H214     1.0000 0.51300  0.18360  0.97450  Biso   1.000  H
  H215     1.0000 0.51300  0.31640  0.47450  Biso   1.000  H
  H216     1.0000 0.48700  0.81640  0.02550  Biso   1.000  H
  Cl1      1.0000 0.72050  0.49918  0.87699  Biso   1.000  Cl
  Cl2      1.0000 0.27950  0.99918  0.62301  Biso   1.000  Cl
  Cl3      1.0000 0.27950  0.50082  0.12301  Biso   1.000  Cl
  Cl4      1.0000 0.72050  0.00082  0.37699  Biso   1.000  Cl
  O1       1.0000 0.75240  0.46590  0.90990  Biso   1.000  O
  O2       1.0000 0.24760  0.96590  0.59010  Biso   1.000  O
  O3       1.0000 0.24760  0.53410  0.09010  Biso   1.000  O
  O4       1.0000 0.75240  0.03410  0.40990  Biso   1.000  O
  O5       1.0000 0.60370  0.50310  0.86740  Biso   1.000  O
  O6       1.0000 0.39630  0.00310  0.63260  Biso   1.000  O
  O7       1.0000 0.39630  0.49690  0.13260  Biso   1.000  O
  O8       1.0000 0.60370  0.99690  0.36740  Biso   1.000  O
  O9       1.0000 0.77030  0.48220  0.83960  Biso   1.000  O
  O10      1.0000 0.22970  0.98220  0.66040  Biso   1.000  O
  O11      1.0000 0.22970  0.51780  0.16040  Biso   1.000  O
  O12      1.0000 0.77030  0.01780  0.33960  Biso   1.000  O
  O13      1.0000 0.75100  0.55410  0.88550  Biso   1.000  O
  O14      1.0000 0.24900  0.05410  0.61450  Biso   1.000  O
  O15      1.0000 0.24900  0.44590  0.11450  Biso   1.000  O
  O16      1.0000 0.75100  0.94590  0.38550  Biso   1.000  O
  O17      1.0000 0.24980  0.80550  0.87393  Biso   1.000  O
  O18      1.0000 0.75020  0.30550  0.62607  Biso   1.000  O
  O19      1.0000 0.75020  0.19450  0.12607  Biso   1.000  O
  O20      1.0000 0.24980  0.69450  0.37393  Biso   1.000  O
  H217     1.0000 0.24470  0.80730  0.84640  Biso   1.000  H
  H218     1.0000 0.75530  0.30730  0.65360  Biso   1.000  H
  H219     1.0000 0.75530  0.19270  0.15360  Biso   1.000  H
  H220     1.0000 0.24470  0.69270  0.34640  Biso   1.000  H
  H221     1.0000 0.19250  0.82450  0.88240  Biso   1.000  H
  H222     1.0000 0.80750  0.32450  0.61760  Biso   1.000  H
  H223     1.0000 0.80750  0.17550  0.11760  Biso   1.000  H
  H224     1.0000 0.19250  0.67550  0.38240  Biso   1.000  H
  O21      1.0000 0.08830  0.86220  0.91470  Biso   1.000  O
  O22      1.0000 0.91170  0.36220  0.58530  Biso   1.000  O
  O23      1.0000 0.91170  0.13780  0.08530  Biso   1.000  O
  O24      1.0000 0.08830  0.63780  0.41470  Biso   1.000  O
  H225     1.0000 0.02090  0.85610  0.90060  Biso   1.000  H
  H226     1.0000 0.97910  0.35610  0.59940  Biso   1.000  H
  H227     1.0000 0.97910  0.14390  0.09940  Biso   1.000  H
  H228     1.0000 0.02090  0.64390  0.40060  Biso   1.000  H
  H229     1.0000 0.08790  0.84650  0.93960  Biso   1.000  H
  H230     1.0000 0.91210  0.34650  0.56040  Biso   1.000  H
  H231     1.0000 0.91210  0.15350  0.06040  Biso   1.000  H
  H232     1.0000 0.08790  0.65350  0.43960  Biso   1.000  H
  O25      1.0000 0.73250  0.13930  0.65070  Biso   1.000  O
  O26      1.0000 0.26750  0.63930  0.84930  Biso   1.000  O
  O27      1.0000 0.26750  0.86070  0.34930  Biso   1.000  O
  O28      1.0000 0.73250  0.36070  0.15070  Biso   1.000  O
  H233     1.0000 0.66080  0.13550  0.64000  Biso   1.000  H
  H234     1.0000 0.33920  0.63550  0.86000  Biso   1.000  H
  H235     1.0000 0.33920  0.86450  0.36000  Biso   1.000  H
  H236     1.0000 0.66080  0.36450  0.14000  Biso   1.000  H
  H237     1.0000 0.76040  0.10630  0.65990  Biso   1.000  H
  H238     1.0000 0.23960  0.60630  0.84010  Biso   1.000  H
  H239     1.0000 0.23960  0.89370  0.34010  Biso   1.000  H
  H240     1.0000 0.76040  0.39370  0.15990  Biso   1.000  H
  O29      1.0000 0.49650  0.12030  0.60760  Biso   1.000  O
  O30      1.0000 0.50350  0.62030  0.89240  Biso   1.000  O
  O31      1.0000 0.50350  0.87970  0.39240  Biso   1.000  O
  O32      1.0000 0.49650  0.37970  0.10760  Biso   1.000  O
  H241     1.0000 0.47080  0.08730  0.61540  Biso   1.000  H
  H242     1.0000 0.52920  0.58730  0.88460  Biso   1.000  H
  H243     1.0000 0.52920  0.91270  0.38460  Biso   1.000  H
  H244     1.0000 0.47080  0.41270  0.11540  Biso   1.000  H
  H245     1.0000 0.49860  0.12080  0.58030  Biso   1.000  H
  H246     1.0000 0.50140  0.62080  0.91970  Biso   1.000  H
  H247     1.0000 0.50140  0.87920  0.41970  Biso   1.000  H
  H248     1.0000 0.49860  0.37920  0.08030  Biso   1.000  H
  O33      1.0000 0.50030  0.56660  0.49170  Biso   1.000  O
  O34      1.0000 0.49970  0.06660  0.00830  Biso   1.000  O
  O35      1.0000 0.49970  0.43340  0.50830  Biso   1.000  O
  O36      1.0000 0.50030  0.93340  0.99170  Biso   1.000  O
  H249     1.0000 0.43440  0.57530  0.50040  Biso   1.000  H
  H250     1.0000 0.56560  0.07530  0.99960  Biso   1.000  H
  H251     1.0000 0.56560  0.42470  0.49960  Biso   1.000  H
  H252     1.0000 0.43440  0.92470  0.00040  Biso   1.000  H
  H253     1.0000 0.51060  0.52970  0.49470  Biso   1.000  H
  H254     1.0000 0.48940  0.02970  0.00530  Biso   1.000  H
  H255     1.0000 0.48940  0.47030  0.50530  Biso   1.000  H
  H256     1.0000 0.51060  0.97030  0.99470  Biso   1.000  H
