data_image0
_cell_length_a       20.6349
_cell_length_b       47.189
_cell_length_c       17.9398
_cell_angle_alpha    90
_cell_angle_beta     118.891
_cell_angle_gamma    90

_symmetry_space_group_name_H-M    "P 1"
_symmetry_int_tables_number       1

loop_
  _symmetry_equiv_pos_as_xyz
  'x, y, z'

loop_
  _atom_site_label
  _atom_site_occupancy
  _atom_site_fract_x
  _atom_site_fract_y
  _atom_site_fract_z
  _atom_site_thermal_displace_type
  _atom_site_B_iso_or_equiv
  _atom_site_type_symbol
  Cu1      1.0000 0.40429  0.56996  0.01596  Biso   1.000  Cu
  Cu2      1.0000 0.40429  0.43004  0.51596  Biso   1.000  Cu
  Cu3      1.0000 0.90429  0.06996  0.01596  Biso   1.000  Cu
  Cu4      1.0000 0.90429  0.93004  0.51596  Biso   1.000  Cu
  Cu5      1.0000 0.84775  0.67556  0.76306  Biso   1.000  Cu
  Cu6      1.0000 0.84775  0.32444  0.26306  Biso   1.000  Cu
  Cu7      1.0000 0.34775  0.17556  0.76306  Biso   1.000  Cu
  Cu8      1.0000 0.34775  0.82444  0.26306  Biso   1.000  Cu
  Cu9      1.0000 0.40606  0.68518  0.79663  Biso   1.000  Cu
  Cu10     1.0000 0.40606  0.31482  0.29663  Biso   1.000  Cu
  Cu11     1.0000 0.90606  0.18518  0.79663  Biso   1.000  Cu
  Cu12     1.0000 0.90606  0.81482  0.29663  Biso   1.000  Cu
  Cu13     1.0000 0.86219  0.57173  0.54193  Biso   1.000  Cu
  Cu14     1.0000 0.86219  0.42827  0.04193  Biso   1.000  Cu
  Cu15     1.0000 0.36219  0.07173  0.54193  Biso   1.000  Cu
  Cu16     1.0000 0.36219  0.92827  0.04193  Biso   1.000  Cu
  P1       1.0000 0.49522  0.60056  0.07008  Biso   1.000  P
  P2       1.0000 0.49522  0.39944  0.57008  Biso   1.000  P
  P3       1.0000 0.99522  0.10056  0.07008  Biso   1.000  P
  P4       1.0000 0.99522  0.89944  0.57008  Biso   1.000  P
  P5       1.0000 0.49547  0.65375  0.84678  Biso   1.000  P
  P6       1.0000 0.49547  0.34625  0.34678  Biso   1.000  P
  P7       1.0000 0.99547  0.15375  0.84678  Biso   1.000  P
  P8       1.0000 0.99547  0.84625  0.34678  Biso   1.000  P
  P9       1.0000 0.75487  0.64605  0.71453  Biso   1.000  P
  P10      1.0000 0.75487  0.35395  0.21453  Biso   1.000  P
  P11      1.0000 0.25487  0.14605  0.71453  Biso   1.000  P
  P12      1.0000 0.25487  0.85395  0.21453  Biso   1.000  P
  P13      1.0000 0.76262  0.59841  0.48731  Biso   1.000  P
  P14      1.0000 0.76262  0.40159  0.98731  Biso   1.000  P
  P15      1.0000 0.26262  0.09841  0.48731  Biso   1.000  P
  P16      1.0000 0.26262  0.90159  0.98731  Biso   1.000  P
  N1       1.0000 0.39150  0.54034  0.09110  Biso   1.000  N
  N2       1.0000 0.39150  0.45966  0.59110  Biso   1.000  N
  N3       1.0000 0.89150  0.04034  0.09110  Biso   1.000  N
  N4       1.0000 0.89150  0.95966  0.59110  Biso   1.000  N
  N5       1.0000 0.39330  0.45308  0.41190  Biso   1.000  N
  N6       1.0000 0.39330  0.54692  0.91190  Biso   1.000  N
  N7       1.0000 0.89330  0.95308  0.41190  Biso   1.000  N
  N8       1.0000 0.89330  0.04692  0.91190  Biso   1.000  N
  N9       1.0000 0.30230  0.58997  0.96380  Biso   1.000  N
  N10      1.0000 0.30230  0.41003  0.46380  Biso   1.000  N
  N11      1.0000 0.80230  0.08997  0.96380  Biso   1.000  N
  N12      1.0000 0.80230  0.91003  0.46380  Biso   1.000  N
  N13      1.0000 0.94800  0.65415  0.80830  Biso   1.000  N
  N14      1.0000 0.94800  0.34585  0.30830  Biso   1.000  N
  N15      1.0000 0.44800  0.15415  0.80830  Biso   1.000  N
  N16      1.0000 0.44800  0.84585  0.30830  Biso   1.000  N
  N17      1.0000 0.86750  0.70311  0.85990  Biso   1.000  N
  N18      1.0000 0.86750  0.29689  0.35990  Biso   1.000  N
  N19      1.0000 0.36750  0.20311  0.85990  Biso   1.000  N
  N20      1.0000 0.36750  0.79689  0.35990  Biso   1.000  N
  N21      1.0000 0.89260  0.78980  0.19660  Biso   1.000  N
  N22      1.0000 0.89260  0.21020  0.69660  Biso   1.000  N
  N23      1.0000 0.39260  0.28980  0.19660  Biso   1.000  N
  N24      1.0000 0.39260  0.71020  0.69660  Biso   1.000  N
  N25      1.0000 0.30240  0.66555  0.75570  Biso   1.000  N
  N26      1.0000 0.30240  0.33445  0.25570  Biso   1.000  N
  N27      1.0000 0.80240  0.16555  0.75570  Biso   1.000  N
  N28      1.0000 0.80240  0.83445  0.25570  Biso   1.000  N
  N29      1.0000 0.96010  0.59419  0.59930  Biso   1.000  N
  N30      1.0000 0.96010  0.40581  0.09930  Biso   1.000  N
  N31      1.0000 0.46010  0.09419  0.59930  Biso   1.000  N
  N32      1.0000 0.46010  0.90581  0.09930  Biso   1.000  N
  N33      1.0000 0.85510  0.70173  0.67490  Biso   1.000  N
  N34      1.0000 0.85510  0.29827  0.17490  Biso   1.000  N
  N35      1.0000 0.35510  0.20173  0.67490  Biso   1.000  N
  N36      1.0000 0.35510  0.79827  0.17490  Biso   1.000  N
  N37      1.0000 0.90580  0.78470  0.38040  Biso   1.000  N
  N38      1.0000 0.90580  0.21530  0.88040  Biso   1.000  N
  N39      1.0000 0.40580  0.28470  0.38040  Biso   1.000  N
  N40      1.0000 0.40580  0.71530  0.88040  Biso   1.000  N
  N41      1.0000 0.87540  0.54495  0.45860  Biso   1.000  N
  N42      1.0000 0.87540  0.45505  0.95860  Biso   1.000  N
  N43      1.0000 0.37540  0.04495  0.45860  Biso   1.000  N
  N44      1.0000 0.37540  0.95505  0.95860  Biso   1.000  N
  N45      1.0000 0.86550  0.45475  0.13440  Biso   1.000  N
  N46      1.0000 0.86550  0.54525  0.63440  Biso   1.000  N
  N47      1.0000 0.36550  0.95475  0.13440  Biso   1.000  N
  N48      1.0000 0.36550  0.04525  0.63440  Biso   1.000  N
  C1       1.0000 0.43370  0.51720  0.11960  Biso   1.000  C
  C2       1.0000 0.43370  0.48280  0.61960  Biso   1.000  C
  C3       1.0000 0.93370  0.01720  0.11960  Biso   1.000  C
  C4       1.0000 0.93370  0.98280  0.61960  Biso   1.000  C
  H1       1.0000 0.46790  0.51350  0.09970  Biso   1.000  H
  H2       1.0000 0.46790  0.48650  0.59970  Biso   1.000  H
  H3       1.0000 0.96790  0.01350  0.09970  Biso   1.000  H
  H4       1.0000 0.96790  0.98650  0.59970  Biso   1.000  H
  C5       1.0000 0.43030  0.49830  0.17670  Biso   1.000  C
  C6       1.0000 0.43030  0.50170  0.67670  Biso   1.000  C
  C7       1.0000 0.93030  0.99830  0.17670  Biso   1.000  C
  C8       1.0000 0.93030  0.00170  0.67670  Biso   1.000  C
  H5       1.0000 0.46120  0.48200  0.19380  Biso   1.000  H
  H6       1.0000 0.46120  0.51800  0.69380  Biso   1.000  H
  H7       1.0000 0.96120  0.98200  0.19380  Biso   1.000  H
  H8       1.0000 0.96120  0.01800  0.69380  Biso   1.000  H
  C9       1.0000 0.38350  0.50282  0.20820  Biso   1.000  C
  C10      1.0000 0.38350  0.49718  0.70820  Biso   1.000  C
  C11      1.0000 0.88350  0.00282  0.20820  Biso   1.000  C
  C12      1.0000 0.88350  0.99718  0.70820  Biso   1.000  C
  C13      1.0000 0.33510  0.52610  0.17550  Biso   1.000  C
  C14      1.0000 0.33510  0.47390  0.67550  Biso   1.000  C
  C15      1.0000 0.83510  0.02610  0.17550  Biso   1.000  C
  C16      1.0000 0.83510  0.97390  0.67550  Biso   1.000  C
  H9       1.0000 0.29800  0.52890  0.19160  Biso   1.000  H
  H10      1.0000 0.29800  0.47110  0.69160  Biso   1.000  H
  H11      1.0000 0.79800  0.02890  0.19160  Biso   1.000  H
  H12      1.0000 0.79800  0.97110  0.69160  Biso   1.000  H
  C17      1.0000 0.34110  0.54460  0.12050  Biso   1.000  C
  C18      1.0000 0.34110  0.45540  0.62050  Biso   1.000  C
  C19      1.0000 0.84110  0.04460  0.12050  Biso   1.000  C
  C20      1.0000 0.84110  0.95540  0.62050  Biso   1.000  C
  H13      1.0000 0.31000  0.56090  0.10200  Biso   1.000  H
  H14      1.0000 0.31000  0.43910  0.60200  Biso   1.000  H
  H15      1.0000 0.81000  0.06090  0.10200  Biso   1.000  H
  H16      1.0000 0.81000  0.93910  0.60200  Biso   1.000  H
  C21      1.0000 0.40880  0.44260  0.35620  Biso   1.000  C
  C22      1.0000 0.40880  0.55740  0.85620  Biso   1.000  C
  C23      1.0000 0.90880  0.94260  0.35620  Biso   1.000  C
  C24      1.0000 0.90880  0.05740  0.85620  Biso   1.000  C
  H17      1.0000 0.42540  0.42350  0.36410  Biso   1.000  H
  H18      1.0000 0.42540  0.57650  0.86410  Biso   1.000  H
  H19      1.0000 0.92540  0.92350  0.36410  Biso   1.000  H
  H20      1.0000 0.92540  0.07650  0.86410  Biso   1.000  H
  C25      1.0000 0.40360  0.45620  0.28790  Biso   1.000  C
  C26      1.0000 0.40360  0.54380  0.78790  Biso   1.000  C
  C27      1.0000 0.90360  0.95620  0.28790  Biso   1.000  C
  C28      1.0000 0.90360  0.04380  0.78790  Biso   1.000  C
  H21      1.0000 0.41320  0.44630  0.24810  Biso   1.000  H
  H22      1.0000 0.41320  0.55370  0.74810  Biso   1.000  H
  H23      1.0000 0.91320  0.94630  0.24810  Biso   1.000  H
  H24      1.0000 0.91320  0.05370  0.74810  Biso   1.000  H
  C29      1.0000 0.38400  0.48499  0.27490  Biso   1.000  C
  C30      1.0000 0.38400  0.51501  0.77490  Biso   1.000  C
  C31      1.0000 0.88400  0.98499  0.27490  Biso   1.000  C
  C32      1.0000 0.88400  0.01501  0.77490  Biso   1.000  C
  C33      1.0000 0.36620  0.49580  0.33570  Biso   1.000  C
  C34      1.0000 0.36620  0.50420  0.83570  Biso   1.000  C
  C35      1.0000 0.86620  0.99580  0.33570  Biso   1.000  C
  C36      1.0000 0.86620  0.00420  0.83570  Biso   1.000  C
  H25      1.0000 0.34990  0.51490  0.33130  Biso   1.000  H
  H26      1.0000 0.34990  0.48510  0.83130  Biso   1.000  H
  H27      1.0000 0.84990  0.01490  0.33130  Biso   1.000  H
  H28      1.0000 0.84990  0.98510  0.83130  Biso   1.000  H
  C37      1.0000 0.37210  0.47950  0.40020  Biso   1.000  C
  C38      1.0000 0.37210  0.52050  0.90020  Biso   1.000  C
  C39      1.0000 0.87210  0.97950  0.40020  Biso   1.000  C
  C40      1.0000 0.87210  0.02050  0.90020  Biso   1.000  C
  H29      1.0000 0.36010  0.48790  0.44010  Biso   1.000  H
  H30      1.0000 0.36010  0.51210  0.94010  Biso   1.000  H
  H31      1.0000 0.86010  0.98790  0.44010  Biso   1.000  H
  H32      1.0000 0.86010  0.01210  0.94010  Biso   1.000  H
  C41      1.0000 0.29150  0.61610  0.98690  Biso   1.000  C
  C42      1.0000 0.29150  0.38390  0.48690  Biso   1.000  C
  C43      1.0000 0.79150  0.11610  0.98690  Biso   1.000  C
  C44      1.0000 0.79150  0.88390  0.48690  Biso   1.000  C
  H33      1.0000 0.33400  0.62630  0.02600  Biso   1.000  H
  H34      1.0000 0.33400  0.37370  0.52600  Biso   1.000  H
  H35      1.0000 0.83400  0.12630  0.02600  Biso   1.000  H
  H36      1.0000 0.83400  0.87370  0.52600  Biso   1.000  H
  C45      1.0000 0.22510  0.62860  0.95890  Biso   1.000  C
  C46      1.0000 0.22510  0.37140  0.45890  Biso   1.000  C
  C47      1.0000 0.72510  0.12860  0.95890  Biso   1.000  C
  C48      1.0000 0.72510  0.87140  0.45890  Biso   1.000  C
  H37      1.0000 0.22230  0.64700  0.97890  Biso   1.000  H
  H38      1.0000 0.22230  0.35300  0.47890  Biso   1.000  H
  H39      1.0000 0.72230  0.14700  0.97890  Biso   1.000  H
  H40      1.0000 0.72230  0.85300  0.47890  Biso   1.000  H
  C49      1.0000 0.16130  0.61510  0.90140  Biso   1.000  C
  C50      1.0000 0.16130  0.38490  0.40140  Biso   1.000  C
  C51      1.0000 0.66130  0.11510  0.90140  Biso   1.000  C
  C52      1.0000 0.66130  0.88490  0.40140  Biso   1.000  C
  C53      1.0000 0.16970  0.58740  0.88070  Biso   1.000  C
  C54      1.0000 0.16970  0.41260  0.38070  Biso   1.000  C
  C55      1.0000 0.66970  0.08740  0.88070  Biso   1.000  C
  C56      1.0000 0.66970  0.91260  0.38070  Biso   1.000  C
  H41      1.0000 0.12760  0.57640  0.84460  Biso   1.000  H
  H42      1.0000 0.12760  0.42360  0.34460  Biso   1.000  H
  H43      1.0000 0.62760  0.07640  0.84460  Biso   1.000  H
  H44      1.0000 0.62760  0.92360  0.34460  Biso   1.000  H
  C57      1.0000 0.24040  0.57610  0.91330  Biso   1.000  C
  C58      1.0000 0.24040  0.42390  0.41330  Biso   1.000  C
  C59      1.0000 0.74040  0.07610  0.91330  Biso   1.000  C
  C60      1.0000 0.74040  0.92390  0.41330  Biso   1.000  C
  H45      1.0000 0.24470  0.55710  0.89840  Biso   1.000  H
  H46      1.0000 0.24470  0.44290  0.39840  Biso   1.000  H
  H47      1.0000 0.74470  0.05710  0.89840  Biso   1.000  H
  H48      1.0000 0.74470  0.94290  0.39840  Biso   1.000  H
  C61      1.0000 0.00950  0.66900  0.82360  Biso   1.000  C
  C62      1.0000 0.00950  0.33100  0.32360  Biso   1.000  C
  C63      1.0000 0.50950  0.16900  0.82360  Biso   1.000  C
  C64      1.0000 0.50950  0.83100  0.32360  Biso   1.000  C
  H49      1.0000 0.00480  0.68890  0.81360  Biso   1.000  H
  H50      1.0000 0.00480  0.31110  0.31360  Biso   1.000  H
  H51      1.0000 0.50480  0.18890  0.81360  Biso   1.000  H
  H52      1.0000 0.50480  0.81110  0.31360  Biso   1.000  H
  C65      1.0000 0.07900  0.65680  0.85310  Biso   1.000  C
  C66      1.0000 0.07900  0.34320  0.35310  Biso   1.000  C
  C67      1.0000 0.57900  0.15680  0.85310  Biso   1.000  C
  C68      1.0000 0.57900  0.84320  0.35310  Biso   1.000  C
  H53      1.0000 0.12060  0.66820  0.86320  Biso   1.000  H
  H54      1.0000 0.12060  0.33180  0.36320  Biso   1.000  H
  H55      1.0000 0.62060  0.16820  0.86320  Biso   1.000  H
  H56      1.0000 0.62060  0.83180  0.36320  Biso   1.000  H
  C69      1.0000 0.08640  0.62820  0.86720  Biso   1.000  C
  C70      1.0000 0.08640  0.37180  0.36720  Biso   1.000  C
  C71      1.0000 0.58640  0.12820  0.86720  Biso   1.000  C
  C72      1.0000 0.58640  0.87180  0.36720  Biso   1.000  C
  C73      1.0000 0.02310  0.61280  0.85200  Biso   1.000  C
  C74      1.0000 0.02310  0.38720  0.35200  Biso   1.000  C
  C75      1.0000 0.52310  0.11280  0.85200  Biso   1.000  C
  C76      1.0000 0.52310  0.88720  0.35200  Biso   1.000  C
  H57      1.0000 0.02620  0.59300  0.86220  Biso   1.000  H
  H58      1.0000 0.02620  0.40700  0.36220  Biso   1.000  H
  H59      1.0000 0.52620  0.09300  0.86220  Biso   1.000  H
  H60      1.0000 0.52620  0.90700  0.36220  Biso   1.000  H
  C77      1.0000 0.95780  0.62650  0.82280  Biso   1.000  C
  C78      1.0000 0.95780  0.37350  0.32280  Biso   1.000  C
  C79      1.0000 0.45780  0.12650  0.82280  Biso   1.000  C
  C80      1.0000 0.45780  0.87350  0.32280  Biso   1.000  C
  H61      1.0000 0.91560  0.61540  0.81190  Biso   1.000  H
  H62      1.0000 0.91560  0.38460  0.31190  Biso   1.000  H
  H63      1.0000 0.41560  0.11540  0.81190  Biso   1.000  H
  H64      1.0000 0.41560  0.88460  0.31190  Biso   1.000  H
  C81      1.0000 0.91740  0.69840  0.94070  Biso   1.000  C
  C82      1.0000 0.91740  0.30160  0.44070  Biso   1.000  C
  C83      1.0000 0.41740  0.19840  0.94070  Biso   1.000  C
  C84      1.0000 0.41740  0.80160  0.44070  Biso   1.000  C
  H65      1.0000 0.94930  0.68250  0.95330  Biso   1.000  H
  H66      1.0000 0.94930  0.31750  0.45330  Biso   1.000  H
  H67      1.0000 0.44930  0.18250  0.95330  Biso   1.000  H
  H68      1.0000 0.44930  0.81750  0.45330  Biso   1.000  H
  C85      1.0000 0.92510  0.71530  0.00670  Biso   1.000  C
  C86      1.0000 0.92510  0.28470  0.50670  Biso   1.000  C
  C87      1.0000 0.42510  0.21530  0.00670  Biso   1.000  C
  C88      1.0000 0.42510  0.78470  0.50670  Biso   1.000  C
  H69      1.0000 0.96150  0.71080  0.06330  Biso   1.000  H
  H70      1.0000 0.96150  0.28920  0.56330  Biso   1.000  H
  H71      1.0000 0.46150  0.21080  0.06330  Biso   1.000  H
  H72      1.0000 0.46150  0.78920  0.56330  Biso   1.000  H
  C89      1.0000 0.88070  0.73874  0.99180  Biso   1.000  C
  C90      1.0000 0.88070  0.26126  0.49180  Biso   1.000  C
  C91      1.0000 0.38070  0.23874  0.99180  Biso   1.000  C
  C92      1.0000 0.38070  0.76126  0.49180  Biso   1.000  C
  C93      1.0000 0.82920  0.74410  0.90890  Biso   1.000  C
  C94      1.0000 0.82920  0.25590  0.40890  Biso   1.000  C
  C95      1.0000 0.32920  0.24410  0.90890  Biso   1.000  C
  C96      1.0000 0.32920  0.75590  0.40890  Biso   1.000  C
  H73      1.0000 0.79680  0.75990  0.89500  Biso   1.000  H
  H74      1.0000 0.79680  0.24010  0.39500  Biso   1.000  H
  H75      1.0000 0.29680  0.25990  0.89500  Biso   1.000  H
  H76      1.0000 0.29680  0.74010  0.39500  Biso   1.000  H
  C97      1.0000 0.82530  0.72620  0.84590  Biso   1.000  C
  C98      1.0000 0.82530  0.27380  0.34590  Biso   1.000  C
  C99      1.0000 0.32530  0.22620  0.84590  Biso   1.000  C
  C100     1.0000 0.32530  0.77380  0.34590  Biso   1.000  C
  H77      1.0000 0.79020  0.73060  0.78860  Biso   1.000  H
  H78      1.0000 0.79020  0.26940  0.28860  Biso   1.000  H
  H79      1.0000 0.29020  0.23060  0.78860  Biso   1.000  H
  H80      1.0000 0.29020  0.76940  0.28860  Biso   1.000  H
  C101     1.0000 0.93780  0.76900  0.21050  Biso   1.000  C
  C102     1.0000 0.93780  0.23100  0.71050  Biso   1.000  C
  C103     1.0000 0.43780  0.26900  0.21050  Biso   1.000  C
  C104     1.0000 0.43780  0.73100  0.71050  Biso   1.000  C
  H81      1.0000 0.97490  0.76520  0.26730  Biso   1.000  H
  H82      1.0000 0.97490  0.23480  0.76730  Biso   1.000  H
  H83      1.0000 0.47490  0.26520  0.26730  Biso   1.000  H
  H84      1.0000 0.47490  0.73480  0.76730  Biso   1.000  H
  C105     1.0000 0.93410  0.75170  0.14430  Biso   1.000  C
  C106     1.0000 0.93410  0.24830  0.64430  Biso   1.000  C
  C107     1.0000 0.43410  0.25170  0.14430  Biso   1.000  C
  C108     1.0000 0.43410  0.74830  0.64430  Biso   1.000  C
  H85      1.0000 0.96680  0.73600  0.15770  Biso   1.000  H
  H86      1.0000 0.96680  0.26400  0.65770  Biso   1.000  H
  H87      1.0000 0.46680  0.23600  0.15770  Biso   1.000  H
  H88      1.0000 0.46680  0.76400  0.65770  Biso   1.000  H
  C109     1.0000 0.88540  0.75713  0.06330  Biso   1.000  C
  C110     1.0000 0.88540  0.24287  0.56330  Biso   1.000  C
  C111     1.0000 0.38540  0.25713  0.06330  Biso   1.000  C
  C112     1.0000 0.38540  0.74287  0.56330  Biso   1.000  C
  C113     1.0000 0.83920  0.77940  0.04830  Biso   1.000  C
  C114     1.0000 0.83920  0.22060  0.54830  Biso   1.000  C
  C115     1.0000 0.33920  0.27940  0.04830  Biso   1.000  C
  C116     1.0000 0.33920  0.72060  0.54830  Biso   1.000  C
  H89      1.0000 0.80410  0.78410  0.99140  Biso   1.000  H
  H90      1.0000 0.80410  0.21590  0.49140  Biso   1.000  H
  H91      1.0000 0.30410  0.28410  0.99140  Biso   1.000  H
  H92      1.0000 0.30410  0.71590  0.49140  Biso   1.000  H
  C117     1.0000 0.84240  0.79530  0.11420  Biso   1.000  C
  C118     1.0000 0.84240  0.20470  0.61420  Biso   1.000  C
  C119     1.0000 0.34240  0.29530  0.11420  Biso   1.000  C
  C120     1.0000 0.34240  0.70470  0.61420  Biso   1.000  C
  H93      1.0000 0.80860  0.81050  0.10180  Biso   1.000  H
  H94      1.0000 0.80860  0.18950  0.60180  Biso   1.000  H
  H95      1.0000 0.30860  0.31050  0.10180  Biso   1.000  H
  H96      1.0000 0.30860  0.68950  0.60180  Biso   1.000  H
  C121     1.0000 0.29860  0.63860  0.77590  Biso   1.000  C
  C122     1.0000 0.29860  0.36140  0.27590  Biso   1.000  C
  C123     1.0000 0.79860  0.13860  0.77590  Biso   1.000  C
  C124     1.0000 0.79860  0.86140  0.27590  Biso   1.000  C
  H97      1.0000 0.34350  0.62910  0.81250  Biso   1.000  H
  H98      1.0000 0.34350  0.37090  0.31250  Biso   1.000  H
  H99      1.0000 0.84350  0.12910  0.81250  Biso   1.000  H
  H100     1.0000 0.84350  0.87090  0.31250  Biso   1.000  H
  C125     1.0000 0.23410  0.62410  0.74690  Biso   1.000  C
  C126     1.0000 0.23410  0.37590  0.24690  Biso   1.000  C
  C127     1.0000 0.73410  0.12410  0.74690  Biso   1.000  C
  C128     1.0000 0.73410  0.87590  0.24690  Biso   1.000  C
  H101     1.0000 0.23480  0.60450  0.75960  Biso   1.000  H
  H102     1.0000 0.23480  0.39550  0.25960  Biso   1.000  H
  H103     1.0000 0.73480  0.10450  0.75960  Biso   1.000  H
  H104     1.0000 0.73480  0.89550  0.25960  Biso   1.000  H
  C129     1.0000 0.16700  0.63790  0.69860  Biso   1.000  C
  C130     1.0000 0.16700  0.36210  0.19860  Biso   1.000  C
  C131     1.0000 0.66700  0.13790  0.69860  Biso   1.000  C
  C132     1.0000 0.66700  0.86210  0.19860  Biso   1.000  C
  C133     1.0000 0.17280  0.66680  0.68680  Biso   1.000  C
  C134     1.0000 0.17280  0.33320  0.18680  Biso   1.000  C
  C135     1.0000 0.67280  0.16680  0.68680  Biso   1.000  C
  C136     1.0000 0.67280  0.83320  0.18680  Biso   1.000  C
  H105     1.0000 0.12910  0.67790  0.66020  Biso   1.000  H
  H106     1.0000 0.12910  0.32210  0.16020  Biso   1.000  H
  H107     1.0000 0.62910  0.17790  0.66020  Biso   1.000  H
  H108     1.0000 0.62910  0.82210  0.16020  Biso   1.000  H
  C137     1.0000 0.23930  0.67930  0.71250  Biso   1.000  C
  C138     1.0000 0.23930  0.32070  0.21250  Biso   1.000  C
  C139     1.0000 0.73930  0.17930  0.71250  Biso   1.000  C
  C140     1.0000 0.73930  0.82070  0.21250  Biso   1.000  C
  H109     1.0000 0.24060  0.69870  0.69890  Biso   1.000  H
  H110     1.0000 0.24060  0.30130  0.19890  Biso   1.000  H
  H111     1.0000 0.74060  0.19870  0.69890  Biso   1.000  H
  H112     1.0000 0.74060  0.80130  0.19890  Biso   1.000  H
  C141     1.0000 0.02610  0.58080  0.62060  Biso   1.000  C
  C142     1.0000 0.02610  0.41920  0.12060  Biso   1.000  C
  C143     1.0000 0.52610  0.08080  0.62060  Biso   1.000  C
  C144     1.0000 0.52610  0.91920  0.12060  Biso   1.000  C
  H113     1.0000 0.02580  0.56090  0.61210  Biso   1.000  H
  H114     1.0000 0.02580  0.43910  0.11210  Biso   1.000  H
  H115     1.0000 0.52580  0.06090  0.61210  Biso   1.000  H
  H116     1.0000 0.52580  0.93910  0.11210  Biso   1.000  H
  C145     1.0000 0.09140  0.59480  0.65320  Biso   1.000  C
  C146     1.0000 0.09140  0.40520  0.15320  Biso   1.000  C
  C147     1.0000 0.59140  0.09480  0.65320  Biso   1.000  C
  C148     1.0000 0.59140  0.90520  0.15320  Biso   1.000  C
  H117     1.0000 0.13550  0.58450  0.66770  Biso   1.000  H
  H118     1.0000 0.13550  0.41550  0.16770  Biso   1.000  H
  H119     1.0000 0.63550  0.08450  0.66770  Biso   1.000  H
  H120     1.0000 0.63550  0.91550  0.16770  Biso   1.000  H
  C149     1.0000 0.09510  0.62290  0.66530  Biso   1.000  C
  C150     1.0000 0.09510  0.37710  0.16530  Biso   1.000  C
  C151     1.0000 0.59510  0.12290  0.66530  Biso   1.000  C
  C152     1.0000 0.59510  0.87710  0.16530  Biso   1.000  C
  C153     1.0000 0.03070  0.63740  0.64530  Biso   1.000  C
  C154     1.0000 0.03070  0.36260  0.14530  Biso   1.000  C
  C155     1.0000 0.53070  0.13740  0.64530  Biso   1.000  C
  C156     1.0000 0.53070  0.86260  0.14530  Biso   1.000  C
  H121     1.0000 0.03050  0.65730  0.65240  Biso   1.000  H
  H122     1.0000 0.03050  0.34270  0.15240  Biso   1.000  H
  H123     1.0000 0.53050  0.15730  0.65240  Biso   1.000  H
  H124     1.0000 0.53050  0.84270  0.15240  Biso   1.000  H
  C157     1.0000 0.96600  0.62150  0.61410  Biso   1.000  C
  C158     1.0000 0.96600  0.37850  0.11410  Biso   1.000  C
  C159     1.0000 0.46600  0.12150  0.61410  Biso   1.000  C
  C160     1.0000 0.46600  0.87850  0.11410  Biso   1.000  C
  H125     1.0000 0.92200  0.63140  0.60240  Biso   1.000  H
  H126     1.0000 0.92200  0.36860  0.10240  Biso   1.000  H
  H127     1.0000 0.42200  0.13140  0.60240  Biso   1.000  H
  H128     1.0000 0.42200  0.86860  0.10240  Biso   1.000  H
  C161     1.0000 0.89150  0.72550  0.69580  Biso   1.000  C
  C162     1.0000 0.89150  0.27450  0.19580  Biso   1.000  C
  C163     1.0000 0.39150  0.22550  0.69580  Biso   1.000  C
  C164     1.0000 0.39150  0.77450  0.19580  Biso   1.000  C
  H129     1.0000 0.91000  0.73190  0.75270  Biso   1.000  H
  H130     1.0000 0.91000  0.26810  0.25270  Biso   1.000  H
  H131     1.0000 0.41000  0.23190  0.75270  Biso   1.000  H
  H132     1.0000 0.41000  0.76810  0.25270  Biso   1.000  H
  C165     1.0000 0.90540  0.74190  0.64200  Biso   1.000  C
  C166     1.0000 0.90540  0.25810  0.14200  Biso   1.000  C
  C167     1.0000 0.40540  0.24190  0.64200  Biso   1.000  C
  C168     1.0000 0.40540  0.75810  0.14200  Biso   1.000  C
  H133     1.0000 0.93260  0.75910  0.66170  Biso   1.000  H
  H134     1.0000 0.93260  0.24090  0.16170  Biso   1.000  H
  H135     1.0000 0.43260  0.25910  0.66170  Biso   1.000  H
  H136     1.0000 0.43260  0.74090  0.16170  Biso   1.000  H
  C169     1.0000 0.87900  0.73320  0.55810  Biso   1.000  C
  C170     1.0000 0.87900  0.26680  0.05810  Biso   1.000  C
  C171     1.0000 0.37900  0.23320  0.55810  Biso   1.000  C
  C172     1.0000 0.37900  0.76680  0.05810  Biso   1.000  C
  C173     1.0000 0.84130  0.70770  0.53630  Biso   1.000  C
  C174     1.0000 0.84130  0.29230  0.03630  Biso   1.000  C
  C175     1.0000 0.34130  0.20770  0.53630  Biso   1.000  C
  C176     1.0000 0.34130  0.79230  0.03630  Biso   1.000  C
  H137     1.0000 0.82300  0.70040  0.48030  Biso   1.000  H
  H138     1.0000 0.82300  0.29960  0.98030  Biso   1.000  H
  H139     1.0000 0.32300  0.20040  0.48030  Biso   1.000  H
  H140     1.0000 0.32300  0.79960  0.98030  Biso   1.000  H
  C177     1.0000 0.83030  0.69300  0.59430  Biso   1.000  C
  C178     1.0000 0.83030  0.30700  0.09430  Biso   1.000  C
  C179     1.0000 0.33030  0.19300  0.59430  Biso   1.000  C
  C180     1.0000 0.33030  0.80700  0.09430  Biso   1.000  C
  H141     1.0000 0.80370  0.67570  0.57710  Biso   1.000  H
  H142     1.0000 0.80370  0.32430  0.07710  Biso   1.000  H
  H143     1.0000 0.30370  0.17570  0.57710  Biso   1.000  H
  H144     1.0000 0.30370  0.82430  0.07710  Biso   1.000  H
  C181     1.0000 0.95920  0.78310  0.46040  Biso   1.000  C
  C182     1.0000 0.95920  0.21690  0.96040  Biso   1.000  C
  C183     1.0000 0.45920  0.28310  0.46040  Biso   1.000  C
  C184     1.0000 0.45920  0.71690  0.96040  Biso   1.000  C
  H145     1.0000 0.00340  0.79360  0.47700  Biso   1.000  H
  H146     1.0000 0.00340  0.20640  0.97700  Biso   1.000  H
  H147     1.0000 0.50340  0.29360  0.47700  Biso   1.000  H
  H148     1.0000 0.50340  0.70640  0.97700  Biso   1.000  H
  C185     1.0000 0.95310  0.76650  0.52250  Biso   1.000  C
  C186     1.0000 0.95310  0.23350  0.02250  Biso   1.000  C
  C187     1.0000 0.45310  0.26650  0.52250  Biso   1.000  C
  C188     1.0000 0.45310  0.73350  0.02250  Biso   1.000  C
  H149     1.0000 0.99140  0.76610  0.58010  Biso   1.000  H
  H150     1.0000 0.99140  0.23390  0.08010  Biso   1.000  H
  H151     1.0000 0.49140  0.26610  0.58010  Biso   1.000  H
  H152     1.0000 0.49140  0.73390  0.08010  Biso   1.000  H
  C189     1.0000 0.88890  0.75070  0.49580  Biso   1.000  C
  C190     1.0000 0.88890  0.24930  0.99580  Biso   1.000  C
  C191     1.0000 0.38890  0.25070  0.49580  Biso   1.000  C
  C192     1.0000 0.38890  0.74930  0.99580  Biso   1.000  C
  C193     1.0000 0.84410  0.74930  0.41400  Biso   1.000  C
  C194     1.0000 0.84410  0.25070  0.91400  Biso   1.000  C
  C195     1.0000 0.34410  0.24930  0.41400  Biso   1.000  C
  C196     1.0000 0.34410  0.75070  0.91400  Biso   1.000  C
  H153     1.0000 0.80420  0.73620  0.39230  Biso   1.000  H
  H154     1.0000 0.80420  0.26380  0.89230  Biso   1.000  H
  H155     1.0000 0.30420  0.23620  0.39230  Biso   1.000  H
  H156     1.0000 0.30420  0.76380  0.89230  Biso   1.000  H
  C197     1.0000 0.85440  0.76680  0.35910  Biso   1.000  C
  C198     1.0000 0.85440  0.23320  0.85910  Biso   1.000  C
  C199     1.0000 0.35440  0.26680  0.35910  Biso   1.000  C
  C200     1.0000 0.35440  0.73320  0.85910  Biso   1.000  C
  H157     1.0000 0.81990  0.76520  0.30010  Biso   1.000  H
  H158     1.0000 0.81990  0.23480  0.80010  Biso   1.000  H
  H159     1.0000 0.31990  0.26520  0.30010  Biso   1.000  H
  H160     1.0000 0.31990  0.73480  0.80010  Biso   1.000  H
  C201     1.0000 0.91470  0.55050  0.42320  Biso   1.000  C
  C202     1.0000 0.91470  0.44950  0.92320  Biso   1.000  C
  C203     1.0000 0.41470  0.05050  0.42320  Biso   1.000  C
  C204     1.0000 0.41470  0.94950  0.92320  Biso   1.000  C
  H161     1.0000 0.94550  0.56680  0.44230  Biso   1.000  H
  H162     1.0000 0.94550  0.43320  0.94230  Biso   1.000  H
  H163     1.0000 0.44550  0.06680  0.44230  Biso   1.000  H
  H164     1.0000 0.44550  0.93320  0.94230  Biso   1.000  H
  C205     1.0000 0.91590  0.53430  0.35790  Biso   1.000  C
  C206     1.0000 0.91590  0.46570  0.85790  Biso   1.000  C
  C207     1.0000 0.41590  0.03430  0.35790  Biso   1.000  C
  C208     1.0000 0.41590  0.96570  0.85790  Biso   1.000  C
  H165     1.0000 0.94390  0.54030  0.33150  Biso   1.000  H
  H166     1.0000 0.94390  0.45970  0.83150  Biso   1.000  H
  H167     1.0000 0.44390  0.04030  0.33150  Biso   1.000  H
  H168     1.0000 0.44390  0.95970  0.83150  Biso   1.000  H
  C209     1.0000 0.87380  0.50840  0.33200  Biso   1.000  C
  C210     1.0000 0.87380  0.49160  0.83200  Biso   1.000  C
  C211     1.0000 0.37380  0.00840  0.33200  Biso   1.000  C
  C212     1.0000 0.37380  0.99160  0.83200  Biso   1.000  C
  C213     1.0000 0.83250  0.50310  0.37220  Biso   1.000  C
  C214     1.0000 0.83250  0.49690  0.87220  Biso   1.000  C
  C215     1.0000 0.33250  0.00310  0.37220  Biso   1.000  C
  C216     1.0000 0.33250  0.99690  0.87220  Biso   1.000  C
  H169     1.0000 0.80340  0.48640  0.35940  Biso   1.000  H
  H170     1.0000 0.80340  0.51360  0.85940  Biso   1.000  H
  H171     1.0000 0.30340  0.98640  0.35940  Biso   1.000  H
  H172     1.0000 0.30340  0.01360  0.85940  Biso   1.000  H
  C217     1.0000 0.83390  0.52210  0.43060  Biso   1.000  C
  C218     1.0000 0.83390  0.47790  0.93060  Biso   1.000  C
  C219     1.0000 0.33390  0.02210  0.43060  Biso   1.000  C
  C220     1.0000 0.33390  0.97790  0.93060  Biso   1.000  C
  H173     1.0000 0.80150  0.51840  0.45320  Biso   1.000  H
  H174     1.0000 0.80150  0.48160  0.95320  Biso   1.000  H
  H175     1.0000 0.30150  0.01840  0.45320  Biso   1.000  H
  H176     1.0000 0.30150  0.98160  0.95320  Biso   1.000  H
  C221     1.0000 0.80710  0.45920  0.14690  Biso   1.000  C
  C222     1.0000 0.80710  0.54080  0.64690  Biso   1.000  C
  C223     1.0000 0.30710  0.95920  0.14690  Biso   1.000  C
  C224     1.0000 0.30710  0.04080  0.64690  Biso   1.000  C
  H177     1.0000 0.76140  0.45040  0.10890  Biso   1.000  H
  H178     1.0000 0.76140  0.54960  0.60890  Biso   1.000  H
  H179     1.0000 0.26140  0.95040  0.10890  Biso   1.000  H
  H180     1.0000 0.26140  0.04960  0.60890  Biso   1.000  H
  C225     1.0000 0.80940  0.47560  0.21150  Biso   1.000  C
  C226     1.0000 0.80940  0.52440  0.71150  Biso   1.000  C
  C227     1.0000 0.30940  0.97560  0.21150  Biso   1.000  C
  C228     1.0000 0.30940  0.02440  0.71150  Biso   1.000  C
  H181     1.0000 0.76680  0.47720  0.21850  Biso   1.000  H
  H182     1.0000 0.76680  0.52280  0.71850  Biso   1.000  H
  H183     1.0000 0.26680  0.97720  0.21850  Biso   1.000  H
  H184     1.0000 0.26680  0.02280  0.71850  Biso   1.000  H
  C229     1.0000 0.87220  0.48960  0.26500  Biso   1.000  C
  C230     1.0000 0.87220  0.51040  0.76500  Biso   1.000  C
  C231     1.0000 0.37220  0.98960  0.26500  Biso   1.000  C
  C232     1.0000 0.37220  0.01040  0.76500  Biso   1.000  C
  C233     1.0000 0.93120  0.48730  0.25140  Biso   1.000  C
  C234     1.0000 0.93120  0.51270  0.75140  Biso   1.000  C
  C235     1.0000 0.43120  0.98730  0.25140  Biso   1.000  C
  C236     1.0000 0.43120  0.01270  0.75140  Biso   1.000  C
  H185     1.0000 0.97500  0.49800  0.28460  Biso   1.000  H
  H186     1.0000 0.97500  0.50200  0.78460  Biso   1.000  H
  H187     1.0000 0.47500  0.99800  0.28460  Biso   1.000  H
  H188     1.0000 0.47500  0.00200  0.78460  Biso   1.000  H
  C237     1.0000 0.92670  0.46950  0.18950  Biso   1.000  C
  C238     1.0000 0.92670  0.53050  0.68950  Biso   1.000  C
  C239     1.0000 0.42670  0.96950  0.18950  Biso   1.000  C
  C240     1.0000 0.42670  0.03050  0.68950  Biso   1.000  C
  H189     1.0000 0.97000  0.46720  0.18430  Biso   1.000  H
  H190     1.0000 0.97000  0.53280  0.68430  Biso   1.000  H
  H191     1.0000 0.47000  0.96720  0.18430  Biso   1.000  H
  H192     1.0000 0.47000  0.03280  0.68430  Biso   1.000  H
  C241     1.0000 0.49370  0.62250  0.98940  Biso   1.000  C
  C242     1.0000 0.49370  0.37750  0.48940  Biso   1.000  C
  C243     1.0000 0.99370  0.12250  0.98940  Biso   1.000  C
  C244     1.0000 0.99370  0.87750  0.48940  Biso   1.000  C
  C245     1.0000 0.49490  0.63381  0.92950  Biso   1.000  C
  C246     1.0000 0.49490  0.36619  0.42950  Biso   1.000  C
  C247     1.0000 0.99490  0.13381  0.92950  Biso   1.000  C
  C248     1.0000 0.99490  0.86619  0.42950  Biso   1.000  C
  C249     1.0000 0.75310  0.62560  0.62950  Biso   1.000  C
  C250     1.0000 0.75310  0.37440  0.12950  Biso   1.000  C
  C251     1.0000 0.25310  0.12560  0.62950  Biso   1.000  C
  C252     1.0000 0.25310  0.87440  0.12950  Biso   1.000  C
  C253     1.0000 0.75400  0.61560  0.57120  Biso   1.000  C
  C254     1.0000 0.75400  0.38440  0.07120  Biso   1.000  C
  C255     1.0000 0.25400  0.11560  0.57120  Biso   1.000  C
  C256     1.0000 0.25400  0.88440  0.07120  Biso   1.000  C
  C257     1.0000 0.59140  0.58960  0.12030  Biso   1.000  C
  C258     1.0000 0.59140  0.41040  0.62030  Biso   1.000  C
  C259     1.0000 0.09140  0.08960  0.12030  Biso   1.000  C
  C260     1.0000 0.09140  0.91040  0.62030  Biso   1.000  C
  C261     1.0000 0.60650  0.56070  0.11930  Biso   1.000  C
  C262     1.0000 0.60650  0.43930  0.61930  Biso   1.000  C
  C263     1.0000 0.10650  0.06070  0.11930  Biso   1.000  C
  C264     1.0000 0.10650  0.93930  0.61930  Biso   1.000  C
  H193     1.0000 0.56720  0.54740  0.09290  Biso   1.000  H
  H194     1.0000 0.56720  0.45260  0.59290  Biso   1.000  H
  H195     1.0000 0.06720  0.04740  0.09290  Biso   1.000  H
  H196     1.0000 0.06720  0.95260  0.59290  Biso   1.000  H
  C265     1.0000 0.68090  0.55150  0.15780  Biso   1.000  C
  C266     1.0000 0.68090  0.44850  0.65780  Biso   1.000  C
  C267     1.0000 0.18090  0.05150  0.15780  Biso   1.000  C
  C268     1.0000 0.18090  0.94850  0.65780  Biso   1.000  C
  H197     1.0000 0.69340  0.53200  0.16000  Biso   1.000  H
  H198     1.0000 0.69340  0.46800  0.66000  Biso   1.000  H
  H199     1.0000 0.19340  0.03200  0.16000  Biso   1.000  H
  H200     1.0000 0.19340  0.96800  0.66000  Biso   1.000  H
  C269     1.0000 0.73740  0.57330  0.19380  Biso   1.000  C
  C270     1.0000 0.73740  0.42670  0.69380  Biso   1.000  C
  C271     1.0000 0.23740  0.07330  0.19380  Biso   1.000  C
  C272     1.0000 0.23740  0.92670  0.69380  Biso   1.000  C
  H201     1.0000 0.78800  0.56800  0.21850  Biso   1.000  H
  H202     1.0000 0.78800  0.43200  0.71850  Biso   1.000  H
  H203     1.0000 0.28800  0.06800  0.21850  Biso   1.000  H
  H204     1.0000 0.28800  0.93200  0.71850  Biso   1.000  H
  C273     1.0000 0.72080  0.59980  0.19320  Biso   1.000  C
  C274     1.0000 0.72080  0.40020  0.69320  Biso   1.000  C
  C275     1.0000 0.22080  0.09980  0.19320  Biso   1.000  C
  C276     1.0000 0.22080  0.90020  0.69320  Biso   1.000  C
  H205     1.0000 0.75940  0.61350  0.21820  Biso   1.000  H
  H206     1.0000 0.75940  0.38650  0.71820  Biso   1.000  H
  H207     1.0000 0.25940  0.11350  0.21820  Biso   1.000  H
  H208     1.0000 0.25940  0.88650  0.71820  Biso   1.000  H
  C277     1.0000 0.64850  0.60850  0.15720  Biso   1.000  C
  C278     1.0000 0.64850  0.39150  0.65720  Biso   1.000  C
  C279     1.0000 0.14850  0.10850  0.15720  Biso   1.000  C
  C280     1.0000 0.14850  0.89150  0.65720  Biso   1.000  C
  H209     1.0000 0.63790  0.62810  0.15780  Biso   1.000  H
  H210     1.0000 0.63790  0.37190  0.65780  Biso   1.000  H
  H211     1.0000 0.13790  0.12810  0.15780  Biso   1.000  H
  H212     1.0000 0.13790  0.87190  0.65780  Biso   1.000  H
  C281     1.0000 0.49200  0.62630  0.14410  Biso   1.000  C
  C282     1.0000 0.49200  0.37370  0.64410  Biso   1.000  C
  C283     1.0000 0.99200  0.12630  0.14410  Biso   1.000  C
  C284     1.0000 0.99200  0.87370  0.64410  Biso   1.000  C
  C285     1.0000 0.48490  0.61620  0.21170  Biso   1.000  C
  C286     1.0000 0.48490  0.38380  0.71170  Biso   1.000  C
  C287     1.0000 0.98490  0.11620  0.21170  Biso   1.000  C
  C288     1.0000 0.98490  0.88380  0.71170  Biso   1.000  C
  H213     1.0000 0.48120  0.59620  0.21550  Biso   1.000  H
  H214     1.0000 0.48120  0.40380  0.71550  Biso   1.000  H
  H215     1.0000 0.98120  0.09620  0.21550  Biso   1.000  H
  H216     1.0000 0.98120  0.90380  0.71550  Biso   1.000  H
  C289     1.0000 0.48260  0.63200  0.27300  Biso   1.000  C
  C290     1.0000 0.48260  0.36800  0.77300  Biso   1.000  C
  C291     1.0000 0.98260  0.13200  0.27300  Biso   1.000  C
  C292     1.0000 0.98260  0.86800  0.77300  Biso   1.000  C
  H217     1.0000 0.47620  0.62410  0.31770  Biso   1.000  H
  H218     1.0000 0.47620  0.37590  0.81770  Biso   1.000  H
  H219     1.0000 0.97620  0.12410  0.31770  Biso   1.000  H
  H220     1.0000 0.97620  0.87590  0.81770  Biso   1.000  H
  C293     1.0000 0.49040  0.66140  0.26480  Biso   1.000  C
  C294     1.0000 0.49040  0.33860  0.76480  Biso   1.000  C
  C295     1.0000 0.99040  0.16140  0.26480  Biso   1.000  C
  C296     1.0000 0.99040  0.83860  0.76480  Biso   1.000  C
  H221     1.0000 0.49520  0.67350  0.30960  Biso   1.000  H
  H222     1.0000 0.49520  0.32650  0.80960  Biso   1.000  H
  H223     1.0000 0.99520  0.17350  0.30960  Biso   1.000  H
  H224     1.0000 0.99520  0.82650  0.80960  Biso   1.000  H
  C297     1.0000 0.49150  0.67290  0.19940  Biso   1.000  C
  C298     1.0000 0.49150  0.32710  0.69940  Biso   1.000  C
  C299     1.0000 0.99150  0.17290  0.19940  Biso   1.000  C
  C300     1.0000 0.99150  0.82710  0.69940  Biso   1.000  C
  H225     1.0000 0.48540  0.69280  0.18990  Biso   1.000  H
  H226     1.0000 0.48540  0.30720  0.68990  Biso   1.000  H
  H227     1.0000 0.98540  0.19280  0.18990  Biso   1.000  H
  H228     1.0000 0.98540  0.80720  0.68990  Biso   1.000  H
  C301     1.0000 0.50230  0.65420  0.14090  Biso   1.000  C
  C302     1.0000 0.50230  0.34580  0.64090  Biso   1.000  C
  C303     1.0000 0.00230  0.15420  0.14090  Biso   1.000  C
  C304     1.0000 0.00230  0.84580  0.64090  Biso   1.000  C
  H229     1.0000 0.51630  0.66170  0.10170  Biso   1.000  H
  H230     1.0000 0.51630  0.33830  0.60170  Biso   1.000  H
  H231     1.0000 0.01630  0.16170  0.10170  Biso   1.000  H
  H232     1.0000 0.01630  0.83830  0.60170  Biso   1.000  H
  C305     1.0000 0.59220  0.66530  0.89690  Biso   1.000  C
  C306     1.0000 0.59220  0.33470  0.39690  Biso   1.000  C
  C307     1.0000 0.09220  0.16530  0.89690  Biso   1.000  C
  C308     1.0000 0.09220  0.83470  0.39690  Biso   1.000  C
  C309     1.0000 0.64620  0.65180  0.96940  Biso   1.000  C
  C310     1.0000 0.64620  0.34820  0.46940  Biso   1.000  C
  C311     1.0000 0.14620  0.15180  0.96940  Biso   1.000  C
  C312     1.0000 0.14620  0.84820  0.46940  Biso   1.000  C
  H233     1.0000 0.63490  0.63610  0.99410  Biso   1.000  H
  H234     1.0000 0.63490  0.36390  0.49410  Biso   1.000  H
  H235     1.0000 0.13490  0.13610  0.99410  Biso   1.000  H
  H236     1.0000 0.13490  0.86390  0.49410  Biso   1.000  H
  C313     1.0000 0.71710  0.66260  0.00360  Biso   1.000  C
  C314     1.0000 0.71710  0.33740  0.50360  Biso   1.000  C
  C315     1.0000 0.21710  0.16260  0.00360  Biso   1.000  C
  C316     1.0000 0.21710  0.83740  0.50360  Biso   1.000  C
  H237     1.0000 0.75540  0.65490  0.05500  Biso   1.000  H
  H238     1.0000 0.75540  0.34510  0.55500  Biso   1.000  H
  H239     1.0000 0.25540  0.15490  0.05500  Biso   1.000  H
  H240     1.0000 0.25540  0.84510  0.55500  Biso   1.000  H
  C317     1.0000 0.73280  0.68470  0.96340  Biso   1.000  C
  C318     1.0000 0.73280  0.31530  0.46340  Biso   1.000  C
  C319     1.0000 0.23280  0.18470  0.96340  Biso   1.000  C
  C320     1.0000 0.23280  0.81530  0.46340  Biso   1.000  C
  H241     1.0000 0.78280  0.69030  0.98420  Biso   1.000  H
  H242     1.0000 0.78280  0.30970  0.48420  Biso   1.000  H
  H243     1.0000 0.28280  0.19030  0.98420  Biso   1.000  H
  H244     1.0000 0.28280  0.80970  0.48420  Biso   1.000  H
  C321     1.0000 0.68080  0.69780  0.89790  Biso   1.000  C
  C322     1.0000 0.68080  0.30220  0.39790  Biso   1.000  C
  C323     1.0000 0.18080  0.19780  0.89790  Biso   1.000  C
  C324     1.0000 0.18080  0.80220  0.39790  Biso   1.000  C
  H245     1.0000 0.69060  0.71460  0.87580  Biso   1.000  H
  H246     1.0000 0.69060  0.28540  0.37580  Biso   1.000  H
  H247     1.0000 0.19060  0.21460  0.87580  Biso   1.000  H
  H248     1.0000 0.19060  0.78540  0.37580  Biso   1.000  H
  C325     1.0000 0.61080  0.68620  0.86240  Biso   1.000  C
  C326     1.0000 0.61080  0.31380  0.36240  Biso   1.000  C
  C327     1.0000 0.11080  0.18620  0.86240  Biso   1.000  C
  C328     1.0000 0.11080  0.81380  0.36240  Biso   1.000  C
  H249     1.0000 0.57380  0.69370  0.80990  Biso   1.000  H
  H250     1.0000 0.57380  0.30630  0.30990  Biso   1.000  H
  H251     1.0000 0.07380  0.19370  0.80990  Biso   1.000  H
  H252     1.0000 0.07380  0.80630  0.30990  Biso   1.000  H
  C329     1.0000 0.48960  0.62680  0.77230  Biso   1.000  C
  C330     1.0000 0.48960  0.37320  0.27230  Biso   1.000  C
  C331     1.0000 0.98960  0.12680  0.77230  Biso   1.000  C
  C332     1.0000 0.98960  0.87320  0.27230  Biso   1.000  C
  C333     1.0000 0.54350  0.60560  0.78960  Biso   1.000  C
  C334     1.0000 0.54350  0.39440  0.28960  Biso   1.000  C
  C335     1.0000 0.04350  0.10560  0.78960  Biso   1.000  C
  C336     1.0000 0.04350  0.89440  0.28960  Biso   1.000  C
  H253     1.0000 0.58670  0.60450  0.84370  Biso   1.000  H
  H254     1.0000 0.58670  0.39550  0.34370  Biso   1.000  H
  H255     1.0000 0.08670  0.10450  0.84370  Biso   1.000  H
  H256     1.0000 0.08670  0.89550  0.34370  Biso   1.000  H
  C337     1.0000 0.53190  0.58660  0.72610  Biso   1.000  C
  C338     1.0000 0.53190  0.41340  0.22610  Biso   1.000  C
  C339     1.0000 0.03190  0.08660  0.72610  Biso   1.000  C
  C340     1.0000 0.03190  0.91340  0.22610  Biso   1.000  C
  H257     1.0000 0.57050  0.57370  0.73550  Biso   1.000  H
  H258     1.0000 0.57050  0.42630  0.23550  Biso   1.000  H
  H259     1.0000 0.07050  0.07370  0.73550  Biso   1.000  H
  H260     1.0000 0.07050  0.92630  0.23550  Biso   1.000  H
  C341     1.0000 0.46870  0.58540  0.65140  Biso   1.000  C
  C342     1.0000 0.46870  0.41460  0.15140  Biso   1.000  C
  C343     1.0000 0.96870  0.08540  0.65140  Biso   1.000  C
  C344     1.0000 0.96870  0.91460  0.15140  Biso   1.000  C
  H261     1.0000 0.46350  0.57150  0.61040  Biso   1.000  H
  H262     1.0000 0.46350  0.42850  0.11040  Biso   1.000  H
  H263     1.0000 0.96350  0.07150  0.61040  Biso   1.000  H
  H264     1.0000 0.96350  0.92850  0.11040  Biso   1.000  H
  C345     1.0000 0.41140  0.60410  0.63330  Biso   1.000  C
  C346     1.0000 0.41140  0.39590  0.13330  Biso   1.000  C
  C347     1.0000 0.91140  0.10410  0.63330  Biso   1.000  C
  C348     1.0000 0.91140  0.89590  0.13330  Biso   1.000  C
  H265     1.0000 0.36650  0.60280  0.58100  Biso   1.000  H
  H266     1.0000 0.36650  0.39720  0.08100  Biso   1.000  H
  H267     1.0000 0.86650  0.10280  0.58100  Biso   1.000  H
  H268     1.0000 0.86650  0.89720  0.08100  Biso   1.000  H
  C349     1.0000 0.42050  0.62480  0.69320  Biso   1.000  C
  C350     1.0000 0.42050  0.37520  0.19320  Biso   1.000  C
  C351     1.0000 0.92050  0.12480  0.69320  Biso   1.000  C
  C352     1.0000 0.92050  0.87520  0.19320  Biso   1.000  C
  H269     1.0000 0.38130  0.63760  0.68200  Biso   1.000  H
  H270     1.0000 0.38130  0.36240  0.18200  Biso   1.000  H
  H271     1.0000 0.88130  0.13760  0.68200  Biso   1.000  H
  H272     1.0000 0.88130  0.86240  0.18200  Biso   1.000  H
  C353     1.0000 0.65830  0.65880  0.66490  Biso   1.000  C
  C354     1.0000 0.65830  0.34120  0.16490  Biso   1.000  C
  C355     1.0000 0.15830  0.15880  0.66490  Biso   1.000  C
  C356     1.0000 0.15830  0.84120  0.16490  Biso   1.000  C
  C357     1.0000 0.64670  0.68750  0.67230  Biso   1.000  C
  C358     1.0000 0.64670  0.31250  0.17230  Biso   1.000  C
  C359     1.0000 0.14670  0.18750  0.67230  Biso   1.000  C
  C360     1.0000 0.14670  0.81250  0.17230  Biso   1.000  C
  H273     1.0000 0.68690  0.69990  0.70490  Biso   1.000  H
  H274     1.0000 0.68690  0.30010  0.20490  Biso   1.000  H
  H275     1.0000 0.18690  0.19990  0.70490  Biso   1.000  H
  H276     1.0000 0.18690  0.80010  0.20490  Biso   1.000  H
  C361     1.0000 0.57290  0.69770  0.62980  Biso   1.000  C
  C362     1.0000 0.57290  0.30230  0.12980  Biso   1.000  C
  C363     1.0000 0.07290  0.19770  0.62980  Biso   1.000  C
  C364     1.0000 0.07290  0.80230  0.12980  Biso   1.000  C
  H277     1.0000 0.56430  0.71740  0.63120  Biso   1.000  H
  H278     1.0000 0.56430  0.28260  0.13120  Biso   1.000  H
  H279     1.0000 0.06430  0.21740  0.63120  Biso   1.000  H
  H280     1.0000 0.06430  0.78260  0.13120  Biso   1.000  H
  C365     1.0000 0.51400  0.68030  0.58710  Biso   1.000  C
  C366     1.0000 0.51400  0.31970  0.08710  Biso   1.000  C
  C367     1.0000 0.01400  0.18030  0.58710  Biso   1.000  C
  C368     1.0000 0.01400  0.81970  0.08710  Biso   1.000  C
  H281     1.0000 0.46480  0.68740  0.55760  Biso   1.000  H
  H282     1.0000 0.46480  0.31260  0.05760  Biso   1.000  H
  H283     1.0000 0.96480  0.18740  0.55760  Biso   1.000  H
  H284     1.0000 0.96480  0.81260  0.05760  Biso   1.000  H
  C369     1.0000 0.52910  0.65220  0.58870  Biso   1.000  C
  C370     1.0000 0.52910  0.34780  0.08870  Biso   1.000  C
  C371     1.0000 0.02910  0.15220  0.58870  Biso   1.000  C
  C372     1.0000 0.02910  0.84780  0.08870  Biso   1.000  C
  H285     1.0000 0.48880  0.63940  0.56260  Biso   1.000  H
  H286     1.0000 0.48880  0.36060  0.06260  Biso   1.000  H
  H287     1.0000 0.98880  0.13940  0.56260  Biso   1.000  H
  H288     1.0000 0.98880  0.86060  0.06260  Biso   1.000  H
  C373     1.0000 0.59750  0.64190  0.62510  Biso   1.000  C
  C374     1.0000 0.59750  0.35810  0.12510  Biso   1.000  C
  C375     1.0000 0.09750  0.14190  0.62510  Biso   1.000  C
  C376     1.0000 0.09750  0.85810  0.12510  Biso   1.000  C
  H289     1.0000 0.60430  0.62210  0.62320  Biso   1.000  H
  H290     1.0000 0.60430  0.37790  0.12320  Biso   1.000  H
  H291     1.0000 0.10430  0.12210  0.62320  Biso   1.000  H
  H292     1.0000 0.10430  0.87790  0.12320  Biso   1.000  H
  C377     1.0000 0.76070  0.61850  0.78910  Biso   1.000  C
  C378     1.0000 0.76070  0.38150  0.28910  Biso   1.000  C
  C379     1.0000 0.26070  0.11850  0.78910  Biso   1.000  C
  C380     1.0000 0.26070  0.88150  0.28910  Biso   1.000  C
  C381     1.0000 0.73130  0.59150  0.76800  Biso   1.000  C
  C382     1.0000 0.73130  0.40850  0.26800  Biso   1.000  C
  C383     1.0000 0.23130  0.09150  0.76800  Biso   1.000  C
  C384     1.0000 0.23130  0.90850  0.26800  Biso   1.000  C
  H293     1.0000 0.70510  0.58620  0.70970  Biso   1.000  H
  H294     1.0000 0.70510  0.41380  0.20970  Biso   1.000  H
  H295     1.0000 0.20510  0.08620  0.70970  Biso   1.000  H
  H296     1.0000 0.20510  0.91380  0.20970  Biso   1.000  H
  C385     1.0000 0.73850  0.57270  0.82600  Biso   1.000  C
  C386     1.0000 0.73850  0.42730  0.32600  Biso   1.000  C
  C387     1.0000 0.23850  0.07270  0.82600  Biso   1.000  C
  C388     1.0000 0.23850  0.92730  0.32600  Biso   1.000  C
  H297     1.0000 0.72100  0.55390  0.80950  Biso   1.000  H
  H298     1.0000 0.72100  0.44610  0.30950  Biso   1.000  H
  H299     1.0000 0.22100  0.05390  0.80950  Biso   1.000  H
  H300     1.0000 0.22100  0.94610  0.30950  Biso   1.000  H
  C389     1.0000 0.77020  0.58010  0.90810  Biso   1.000  C
  C390     1.0000 0.77020  0.41990  0.40810  Biso   1.000  C
  C391     1.0000 0.27020  0.08010  0.90810  Biso   1.000  C
  C392     1.0000 0.27020  0.91990  0.40810  Biso   1.000  C
  H301     1.0000 0.77410  0.56680  0.94980  Biso   1.000  H
  H302     1.0000 0.77410  0.43320  0.44980  Biso   1.000  H
  H303     1.0000 0.27410  0.06680  0.94980  Biso   1.000  H
  H304     1.0000 0.27410  0.93320  0.44980  Biso   1.000  H
  C393     1.0000 0.79530  0.60520  0.93000  Biso   1.000  C
  C394     1.0000 0.79530  0.39480  0.43000  Biso   1.000  C
  C395     1.0000 0.29530  0.10520  0.93000  Biso   1.000  C
  C396     1.0000 0.29530  0.89480  0.43000  Biso   1.000  C
  H305     1.0000 0.81520  0.61030  0.98830  Biso   1.000  H
  H306     1.0000 0.81520  0.38970  0.48830  Biso   1.000  H
  H307     1.0000 0.31520  0.11030  0.98830  Biso   1.000  H
  H308     1.0000 0.31520  0.88970  0.48830  Biso   1.000  H
  C397     1.0000 0.79520  0.62580  0.87350  Biso   1.000  C
  C398     1.0000 0.79520  0.37420  0.37350  Biso   1.000  C
  C399     1.0000 0.29520  0.12580  0.87350  Biso   1.000  C
  C400     1.0000 0.29520  0.87420  0.37350  Biso   1.000  C
  H309     1.0000 0.81780  0.64380  0.89270  Biso   1.000  H
  H310     1.0000 0.81780  0.35620  0.39270  Biso   1.000  H
  H311     1.0000 0.31780  0.14380  0.89270  Biso   1.000  H
  H312     1.0000 0.31780  0.85620  0.39270  Biso   1.000  H
  C401     1.0000 0.75770  0.62800  0.41980  Biso   1.000  C
  C402     1.0000 0.75770  0.37200  0.91980  Biso   1.000  C
  C403     1.0000 0.25770  0.12800  0.41980  Biso   1.000  C
  C404     1.0000 0.25770  0.87200  0.91980  Biso   1.000  C
  C405     1.0000 0.81450  0.63250  0.40220  Biso   1.000  C
  C406     1.0000 0.81450  0.36750  0.90220  Biso   1.000  C
  C407     1.0000 0.31450  0.13250  0.40220  Biso   1.000  C
  C408     1.0000 0.31450  0.86750  0.90220  Biso   1.000  C
  H313     1.0000 0.85490  0.61960  0.42600  Biso   1.000  H
  H314     1.0000 0.85490  0.38040  0.92600  Biso   1.000  H
  H315     1.0000 0.35490  0.11960  0.42600  Biso   1.000  H
  H316     1.0000 0.35490  0.88040  0.92600  Biso   1.000  H
  C409     1.0000 0.81770  0.65300  0.35550  Biso   1.000  C
  C410     1.0000 0.81770  0.34700  0.85550  Biso   1.000  C
  C411     1.0000 0.31770  0.15300  0.35550  Biso   1.000  C
  C412     1.0000 0.31770  0.84700  0.85550  Biso   1.000  C
  H317     1.0000 0.85810  0.65430  0.34410  Biso   1.000  H
  H318     1.0000 0.85810  0.34570  0.84410  Biso   1.000  H
  H319     1.0000 0.35810  0.15430  0.34410  Biso   1.000  H
  H320     1.0000 0.35810  0.84570  0.84410  Biso   1.000  H
  C413     1.0000 0.76340  0.67200  0.32400  Biso   1.000  C
  C414     1.0000 0.76340  0.32800  0.82400  Biso   1.000  C
  C415     1.0000 0.26340  0.17200  0.32400  Biso   1.000  C
  C416     1.0000 0.26340  0.82800  0.82400  Biso   1.000  C
  H321     1.0000 0.76770  0.68790  0.29400  Biso   1.000  H
  H322     1.0000 0.76770  0.31210  0.79400  Biso   1.000  H
  H323     1.0000 0.26770  0.18790  0.29400  Biso   1.000  H
  H324     1.0000 0.26770  0.81210  0.79400  Biso   1.000  H
  C417     1.0000 0.70240  0.66950  0.33320  Biso   1.000  C
  C418     1.0000 0.70240  0.33050  0.83320  Biso   1.000  C
  C419     1.0000 0.20240  0.16950  0.33320  Biso   1.000  C
  C420     1.0000 0.20240  0.83050  0.83320  Biso   1.000  C
  H325     1.0000 0.66310  0.68280  0.30650  Biso   1.000  H
  H326     1.0000 0.66310  0.31720  0.80650  Biso   1.000  H
  H327     1.0000 0.16310  0.18280  0.30650  Biso   1.000  H
  H328     1.0000 0.16310  0.81720  0.80650  Biso   1.000  H
  C421     1.0000 0.69690  0.64620  0.38470  Biso   1.000  C
  C422     1.0000 0.69690  0.35380  0.88470  Biso   1.000  C
  C423     1.0000 0.19690  0.14620  0.38470  Biso   1.000  C
  C424     1.0000 0.19690  0.85380  0.88470  Biso   1.000  C
  H329     1.0000 0.65530  0.64380  0.39330  Biso   1.000  H
  H330     1.0000 0.65530  0.35620  0.89330  Biso   1.000  H
  H331     1.0000 0.15530  0.14380  0.39330  Biso   1.000  H
  H332     1.0000 0.15530  0.85620  0.89330  Biso   1.000  H
  C425     1.0000 0.67360  0.58040  0.42850  Biso   1.000  C
  C426     1.0000 0.67360  0.41960  0.92850  Biso   1.000  C
  C427     1.0000 0.17360  0.08040  0.42850  Biso   1.000  C
  C428     1.0000 0.17360  0.91960  0.92850  Biso   1.000  C
  C429     1.0000 0.65730  0.56510  0.35660  Biso   1.000  C
  C430     1.0000 0.65730  0.43490  0.85660  Biso   1.000  C
  C431     1.0000 0.15730  0.06510  0.35660  Biso   1.000  C
  C432     1.0000 0.15730  0.93490  0.85660  Biso   1.000  C
  H333     1.0000 0.69200  0.56660  0.33630  Biso   1.000  H
  H334     1.0000 0.69200  0.43340  0.83630  Biso   1.000  H
  H335     1.0000 0.19200  0.06660  0.33630  Biso   1.000  H
  H336     1.0000 0.19200  0.93340  0.83630  Biso   1.000  H
  C433     1.0000 0.60060  0.54870  0.31240  Biso   1.000  C
  C434     1.0000 0.60060  0.45130  0.81240  Biso   1.000  C
  C435     1.0000 0.10060  0.04870  0.31240  Biso   1.000  C
  C436     1.0000 0.10060  0.95130  0.81240  Biso   1.000  C
  H337     1.0000 0.59450  0.53780  0.26500  Biso   1.000  H
  H338     1.0000 0.59450  0.46220  0.76500  Biso   1.000  H
  H339     1.0000 0.09450  0.03780  0.26500  Biso   1.000  H
  H340     1.0000 0.09450  0.96220  0.76500  Biso   1.000  H
  C437     1.0000 0.54750  0.54920  0.34440  Biso   1.000  C
  C438     1.0000 0.54750  0.45080  0.84440  Biso   1.000  C
  C439     1.0000 0.04750  0.04920  0.34440  Biso   1.000  C
  C440     1.0000 0.04750  0.95080  0.84440  Biso   1.000  C
  H341     1.0000 0.50220  0.53930  0.31260  Biso   1.000  H
  H342     1.0000 0.50220  0.46070  0.81260  Biso   1.000  H
  H343     1.0000 0.00220  0.03930  0.31260  Biso   1.000  H
  H344     1.0000 0.00220  0.96070  0.81260  Biso   1.000  H
  C441     1.0000 0.55780  0.56220  0.41310  Biso   1.000  C
  C442     1.0000 0.55780  0.43780  0.91310  Biso   1.000  C
  C443     1.0000 0.05780  0.06220  0.41310  Biso   1.000  C
  C444     1.0000 0.05780  0.93780  0.91310  Biso   1.000  C
  H345     1.0000 0.52360  0.56050  0.43400  Biso   1.000  H
  H346     1.0000 0.52360  0.43950  0.93400  Biso   1.000  H
  H347     1.0000 0.02360  0.06050  0.43400  Biso   1.000  H
  H348     1.0000 0.02360  0.93950  0.93400  Biso   1.000  H
  C445     1.0000 0.62360  0.57930  0.45630  Biso   1.000  C
  C446     1.0000 0.62360  0.42070  0.95630  Biso   1.000  C
  C447     1.0000 0.12360  0.07930  0.45630  Biso   1.000  C
  C448     1.0000 0.12360  0.92070  0.95630  Biso   1.000  C
  H349     1.0000 0.63170  0.59000  0.50490  Biso   1.000  H
  H350     1.0000 0.63170  0.41000  0.00490  Biso   1.000  H
  H351     1.0000 0.13170  0.09000  0.50490  Biso   1.000  H
  H352     1.0000 0.13170  0.91000  0.00490  Biso   1.000  H
  B1       1.0000 0.10950  0.73490  0.74960  Biso   1.000  B
  B2       1.0000 0.10950  0.26510  0.24960  Biso   1.000  B
  B3       1.0000 0.60950  0.23490  0.74960  Biso   1.000  B
  B4       1.0000 0.60950  0.76510  0.24960  Biso   1.000  B
  F1       1.0000 0.07750  0.76070  0.73630  Biso   1.000  F
  F2       1.0000 0.07750  0.23930  0.23630  Biso   1.000  F
  F3       1.0000 0.57750  0.26070  0.73630  Biso   1.000  F
  F4       1.0000 0.57750  0.73930  0.23630  Biso   1.000  F
  F5       1.0000 0.07360  0.71820  0.68310  Biso   1.000  F
  F6       1.0000 0.07360  0.28180  0.18310  Biso   1.000  F
  F7       1.0000 0.57360  0.21820  0.68310  Biso   1.000  F
  F8       1.0000 0.57360  0.78180  0.18310  Biso   1.000  F
  F9       1.0000 0.10690  0.72230  0.81550  Biso   1.000  F
  F10      1.0000 0.10690  0.27770  0.31550  Biso   1.000  F
  F11      1.0000 0.60690  0.22230  0.81550  Biso   1.000  F
  F12      1.0000 0.60690  0.77770  0.31550  Biso   1.000  F
  F13      1.0000 0.17850  0.73470  0.76050  Biso   1.000  F
  F14      1.0000 0.17850  0.26530  0.26050  Biso   1.000  F
  F15      1.0000 0.67850  0.23470  0.76050  Biso   1.000  F
  F16      1.0000 0.67850  0.76530  0.26050  Biso   1.000  F
  B5       1.0000 0.63340  0.77600  0.77970  Biso   1.000  B
  B6       1.0000 0.63340  0.22400  0.27970  Biso   1.000  B
  B7       1.0000 0.13340  0.27600  0.77970  Biso   1.000  B
  B8       1.0000 0.13340  0.72400  0.27970  Biso   1.000  B
  F17      1.0000 0.58460  0.79300  0.71420  Biso   1.000  F
  F18      1.0000 0.58460  0.20700  0.21420  Biso   1.000  F
  F19      1.0000 0.08460  0.29300  0.71420  Biso   1.000  F
  F20      1.0000 0.08460  0.70700  0.21420  Biso   1.000  F
  F21      1.0000 0.59980  0.76060  0.80950  Biso   1.000  F
  F22      1.0000 0.59980  0.23940  0.30950  Biso   1.000  F
  F23      1.0000 0.09980  0.26060  0.80950  Biso   1.000  F
  F24      1.0000 0.09980  0.73940  0.30950  Biso   1.000  F
  F25      1.0000 0.68570  0.79130  0.84600  Biso   1.000  F
  F26      1.0000 0.68570  0.20870  0.34600  Biso   1.000  F
  F27      1.0000 0.18570  0.29130  0.84600  Biso   1.000  F
  F28      1.0000 0.18570  0.70870  0.34600  Biso   1.000  F
  F29      1.0000 0.66330  0.75560  0.75580  Biso   1.000  F
  F30      1.0000 0.66330  0.24440  0.25580  Biso   1.000  F
  F31      1.0000 0.16330  0.25560  0.75580  Biso   1.000  F
  F32      1.0000 0.16330  0.74440  0.25580  Biso   1.000  F
  B9       1.0000 0.08430  0.97410  0.11140  Biso   1.000  B
  B10      1.0000 0.08430  0.02590  0.61140  Biso   1.000  B
  B11      1.0000 0.58430  0.47410  0.11140  Biso   1.000  B
  B12      1.0000 0.58430  0.52590  0.61140  Biso   1.000  B
  F33      1.0000 0.09280  0.98140  0.19040  Biso   1.000  F
  F34      1.0000 0.09280  0.01860  0.69040  Biso   1.000  F
  F35      1.0000 0.59280  0.48140  0.19040  Biso   1.000  F
  F36      1.0000 0.59280  0.51860  0.69040  Biso   1.000  F
  F37      1.0000 0.01490  0.96950  0.06290  Biso   1.000  F
  F38      1.0000 0.01490  0.03050  0.56290  Biso   1.000  F
  F39      1.0000 0.51490  0.46950  0.06290  Biso   1.000  F
  F40      1.0000 0.51490  0.53050  0.56290  Biso   1.000  F
  F41      1.0000 0.12350  0.94950  0.12260  Biso   1.000  F
  F42      1.0000 0.12350  0.05050  0.62260  Biso   1.000  F
  F43      1.0000 0.62350  0.44950  0.12260  Biso   1.000  F
  F44      1.0000 0.62350  0.55050  0.62260  Biso   1.000  F
  F45      1.0000 0.10850  0.99460  0.07920  Biso   1.000  F
  F46      1.0000 0.10850  0.00540  0.57920  Biso   1.000  F
  F47      1.0000 0.60850  0.49460  0.07920  Biso   1.000  F
  F48      1.0000 0.60850  0.50540  0.57920  Biso   1.000  F
  B13      1.0000 0.64630  0.01730  0.71760  Biso   1.000  B
  B14      1.0000 0.64630  0.98270  0.21760  Biso   1.000  B
  B15      1.0000 0.14630  0.51730  0.71760  Biso   1.000  B
  B16      1.0000 0.14630  0.48270  0.21760  Biso   1.000  B
  F49      1.0000 0.68320  0.99210  0.72650  Biso   1.000  F
  F50      1.0000 0.68320  0.00790  0.22650  Biso   1.000  F
  F51      1.0000 0.18320  0.49210  0.72650  Biso   1.000  F
  F52      1.0000 0.18320  0.50790  0.22650  Biso   1.000  F
  F53      1.0000 0.58530  0.01690  0.64520  Biso   1.000  F
  F54      1.0000 0.58530  0.98310  0.14520  Biso   1.000  F
  F55      1.0000 0.08530  0.51690  0.64520  Biso   1.000  F
  F56      1.0000 0.08530  0.48310  0.14520  Biso   1.000  F
  F57      1.0000 0.69330  0.03940  0.72970  Biso   1.000  F
  F58      1.0000 0.69330  0.96060  0.22970  Biso   1.000  F
  F59      1.0000 0.19330  0.53940  0.72970  Biso   1.000  F
  F60      1.0000 0.19330  0.46060  0.22970  Biso   1.000  F
  F61      1.0000 0.61880  0.02290  0.76950  Biso   1.000  F
  F62      1.0000 0.61880  0.97710  0.26950  Biso   1.000  F
  F63      1.0000 0.11880  0.52290  0.76950  Biso   1.000  F
  F64      1.0000 0.11880  0.47710  0.26950  Biso   1.000  F
  C449     1.0000 0.08240  0.76600  0.94400  Biso   1.000  C
  C450     1.0000 0.08240  0.23400  0.44400  Biso   1.000  C
  C451     1.0000 0.58240  0.26600  0.94400  Biso   1.000  C
  C452     1.0000 0.58240  0.73400  0.44400  Biso   1.000  C
  H353     1.0000 0.09650  0.75360  0.90920  Biso   1.000  H
  H354     1.0000 0.09650  0.24640  0.40920  Biso   1.000  H
  H355     1.0000 0.59650  0.25360  0.90920  Biso   1.000  H
  H356     1.0000 0.59650  0.74640  0.40920  Biso   1.000  H
  H357     1.0000 0.09640  0.75630  0.99820  Biso   1.000  H
  H358     1.0000 0.09640  0.24370  0.49820  Biso   1.000  H
  H359     1.0000 0.59640  0.25630  0.99820  Biso   1.000  H
  H360     1.0000 0.59640  0.74370  0.49820  Biso   1.000  H
  Cl1      1.0000 0.98940  0.77150  0.89080  Biso   1.000  Cl
  Cl2      1.0000 0.98940  0.22850  0.39080  Biso   1.000  Cl
  Cl3      1.0000 0.48940  0.27150  0.89080  Biso   1.000  Cl
  Cl4      1.0000 0.48940  0.72850  0.39080  Biso   1.000  Cl
  Cl5      1.0000 0.12870  0.79730  0.96280  Biso   1.000  Cl
  Cl6      1.0000 0.12870  0.20270  0.46280  Biso   1.000  Cl
  Cl7      1.0000 0.62870  0.29730  0.96280  Biso   1.000  Cl
  Cl8      1.0000 0.62870  0.70270  0.46280  Biso   1.000  Cl
  C453     1.0000 0.17420  0.77230  0.58600  Biso   1.000  C
  C454     1.0000 0.17420  0.22770  0.08600  Biso   1.000  C
  C455     1.0000 0.67420  0.27230  0.58600  Biso   1.000  C
  C456     1.0000 0.67420  0.72770  0.08600  Biso   1.000  C
  H361     1.0000 0.16370  0.77390  0.52650  Biso   1.000  H
  H362     1.0000 0.16370  0.22610  0.02650  Biso   1.000  H
  H363     1.0000 0.66370  0.27390  0.52650  Biso   1.000  H
  H364     1.0000 0.66370  0.72610  0.02650  Biso   1.000  H
  H365     1.0000 0.14780  0.75570  0.59240  Biso   1.000  H
  H366     1.0000 0.14780  0.24430  0.09240  Biso   1.000  H
  H367     1.0000 0.64780  0.25570  0.59240  Biso   1.000  H
  H368     1.0000 0.64780  0.74430  0.09240  Biso   1.000  H
  Cl9      1.0000 0.26710  0.77100  0.65570  Biso   1.000  Cl
  Cl10     1.0000 0.26710  0.22900  0.15570  Biso   1.000  Cl
  Cl11     1.0000 0.76710  0.27100  0.65570  Biso   1.000  Cl
  Cl12     1.0000 0.76710  0.72900  0.15570  Biso   1.000  Cl
  Cl13     1.0000 0.15250  0.80280  0.62100  Biso   1.000  Cl
  Cl14     1.0000 0.15250  0.19720  0.12100  Biso   1.000  Cl
  Cl15     1.0000 0.65250  0.30280  0.62100  Biso   1.000  Cl
  Cl16     1.0000 0.65250  0.69720  0.12100  Biso   1.000  Cl
  N49      1.0000 0.79300  0.85520  0.93200  Biso   1.000  N
  N50      1.0000 0.79300  0.14480  0.43200  Biso   1.000  N
  N51      1.0000 0.29300  0.35520  0.93200  Biso   1.000  N
  N52      1.0000 0.29300  0.64480  0.43200  Biso   1.000  N
  C457     1.0000 0.75100  0.85960  0.95800  Biso   1.000  C
  C458     1.0000 0.75100  0.14040  0.45800  Biso   1.000  C
  C459     1.0000 0.25100  0.35960  0.95800  Biso   1.000  C
  C460     1.0000 0.25100  0.64040  0.45800  Biso   1.000  C
  C461     1.0000 0.71120  0.86130  0.01000  Biso   1.000  C
  C462     1.0000 0.71120  0.13870  0.51000  Biso   1.000  C
  C463     1.0000 0.21120  0.36130  0.01000  Biso   1.000  C
  C464     1.0000 0.21120  0.63870  0.51000  Biso   1.000  C
  H369     1.0000 0.74320  0.87030  0.06450  Biso   1.000  H
  H370     1.0000 0.74320  0.12970  0.56450  Biso   1.000  H
  H371     1.0000 0.24320  0.37030  0.06450  Biso   1.000  H
  H372     1.0000 0.24320  0.62970  0.56450  Biso   1.000  H
  H373     1.0000 0.69840  0.84210  0.01920  Biso   1.000  H
  H374     1.0000 0.69840  0.15790  0.51920  Biso   1.000  H
  H375     1.0000 0.19840  0.34210  0.01920  Biso   1.000  H
  H376     1.0000 0.19840  0.65790  0.51920  Biso   1.000  H
  H377     1.0000 0.66590  0.87250  0.97840  Biso   1.000  H
  H378     1.0000 0.66590  0.12750  0.47840  Biso   1.000  H
  H379     1.0000 0.16590  0.37250  0.97840  Biso   1.000  H
  H380     1.0000 0.16590  0.62750  0.47840  Biso   1.000  H
  N53      1.0000 0.65500  0.92680  0.58500  Biso   1.000  N
  N54      1.0000 0.65500  0.07320  0.08500  Biso   1.000  N
  N55      1.0000 0.15500  0.42680  0.58500  Biso   1.000  N
  N56      1.0000 0.15500  0.57320  0.08500  Biso   1.000  N
  C465     1.0000 0.64240  0.94730  0.54450  Biso   1.000  C
  C466     1.0000 0.64240  0.05270  0.04450  Biso   1.000  C
  C467     1.0000 0.14240  0.44730  0.54450  Biso   1.000  C
  C468     1.0000 0.14240  0.55270  0.04450  Biso   1.000  C
  C469     1.0000 0.61030  0.96620  0.46750  Biso   1.000  C
  C470     1.0000 0.61030  0.03380  0.96750  Biso   1.000  C
  C471     1.0000 0.11030  0.46620  0.46750  Biso   1.000  C
  C472     1.0000 0.11030  0.53380  0.96750  Biso   1.000  C
  H381     1.0000 0.61370  0.98600  0.48540  Biso   1.000  H
  H382     1.0000 0.61370  0.01400  0.98540  Biso   1.000  H
  H383     1.0000 0.11370  0.48600  0.48540  Biso   1.000  H
  H384     1.0000 0.11370  0.51400  0.98540  Biso   1.000  H
  H385     1.0000 0.55830  0.96120  0.43040  Biso   1.000  H
  H386     1.0000 0.55830  0.03880  0.93040  Biso   1.000  H
  H387     1.0000 0.05830  0.46120  0.43040  Biso   1.000  H
  H388     1.0000 0.05830  0.53880  0.93040  Biso   1.000  H
  H389     1.0000 0.63800  0.96370  0.43640  Biso   1.000  H
  H390     1.0000 0.63800  0.03630  0.93640  Biso   1.000  H
  H391     1.0000 0.13800  0.46370  0.43640  Biso   1.000  H
  H392     1.0000 0.13800  0.53630  0.93640  Biso   1.000  H
  N57      1.0000 0.91590  0.68170  0.22370  Biso   1.000  N
  N58      1.0000 0.91590  0.31830  0.72370  Biso   1.000  N
  N59      1.0000 0.41590  0.18170  0.22370  Biso   1.000  N
  N60      1.0000 0.41590  0.81830  0.72370  Biso   1.000  N
  C473     1.0000 0.91030  0.66290  0.17930  Biso   1.000  C
  C474     1.0000 0.91030  0.33710  0.67930  Biso   1.000  C
  C475     1.0000 0.41030  0.16290  0.17930  Biso   1.000  C
  C476     1.0000 0.41030  0.83710  0.67930  Biso   1.000  C
  C477     1.0000 0.92570  0.64260  0.12480  Biso   1.000  C
  C478     1.0000 0.92570  0.35740  0.62480  Biso   1.000  C
  C479     1.0000 0.42570  0.14260  0.12480  Biso   1.000  C
  C480     1.0000 0.42570  0.85740  0.62480  Biso   1.000  C
  H393     1.0000 0.88750  0.64470  0.06520  Biso   1.000  H
  H394     1.0000 0.88750  0.35530  0.56520  Biso   1.000  H
  H395     1.0000 0.38750  0.14470  0.06520  Biso   1.000  H
  H396     1.0000 0.38750  0.85530  0.56520  Biso   1.000  H
  H397     1.0000 0.92530  0.62310  0.14360  Biso   1.000  H
  H398     1.0000 0.92530  0.37690  0.64360  Biso   1.000  H
  H399     1.0000 0.42530  0.12310  0.14360  Biso   1.000  H
  H400     1.0000 0.42530  0.87690  0.64360  Biso   1.000  H
  H401     1.0000 0.97430  0.64680  0.13030  Biso   1.000  H
  H402     1.0000 0.97430  0.35320  0.63030  Biso   1.000  H
  H403     1.0000 0.47430  0.14680  0.13030  Biso   1.000  H
  H404     1.0000 0.47430  0.85320  0.63030  Biso   1.000  H
  O1       1.0000 0.25110  0.98099  0.53220  Biso   1.000  O
  O2       1.0000 0.25110  0.01901  0.03220  Biso   1.000  O
  O3       1.0000 0.75110  0.48099  0.53220  Biso   1.000  O
  O4       1.0000 0.75110  0.51901  0.03220  Biso   1.000  O
  H405     1.0000 0.23300  0.96780  0.54450  Biso   1.000  H
  H406     1.0000 0.23300  0.03220  0.04450  Biso   1.000  H
  H407     1.0000 0.73300  0.46780  0.54450  Biso   1.000  H
  H408     1.0000 0.73300  0.53220  0.04450  Biso   1.000  H
  H409     1.0000 0.22850  0.98170  0.48000  Biso   1.000  H
  H410     1.0000 0.22850  0.01830  0.98000  Biso   1.000  H
  H411     1.0000 0.72850  0.48170  0.48000  Biso   1.000  H
  H412     1.0000 0.72850  0.51830  0.98000  Biso   1.000  H
  O5       1.0000 0.47920  0.94490  0.47420  Biso   1.000  O
  O6       1.0000 0.47920  0.05510  0.97420  Biso   1.000  O
  O7       1.0000 0.97920  0.44490  0.47420  Biso   1.000  O
  O8       1.0000 0.97920  0.55510  0.97420  Biso   1.000  O
  H413     1.0000 0.45850  0.94550  0.50770  Biso   1.000  H
  H414     1.0000 0.45850  0.05450  0.00770  Biso   1.000  H
  H415     1.0000 0.95850  0.44550  0.50770  Biso   1.000  H
  H416     1.0000 0.95850  0.55450  0.00770  Biso   1.000  H
  H417     1.0000 0.47820  0.96320  0.45960  Biso   1.000  H
  H418     1.0000 0.47820  0.03680  0.95960  Biso   1.000  H
  H419     1.0000 0.97820  0.46320  0.45960  Biso   1.000  H
  H420     1.0000 0.97820  0.53680  0.95960  Biso   1.000  H
  O9       1.0000 0.99880  0.69400  0.46290  Biso   1.000  O
  O10      1.0000 0.99880  0.30600  0.96290  Biso   1.000  O
  O11      1.0000 0.49880  0.19400  0.46290  Biso   1.000  O
  O12      1.0000 0.49880  0.80600  0.96290  Biso   1.000  O
  H421     1.0000 0.02110  0.67990  0.44850  Biso   1.000  H
  H422     1.0000 0.02110  0.32010  0.94850  Biso   1.000  H
  H423     1.0000 0.52110  0.17990  0.44850  Biso   1.000  H
  H424     1.0000 0.52110  0.82010  0.94850  Biso   1.000  H
  H425     1.0000 0.97880  0.68650  0.49390  Biso   1.000  H
  H426     1.0000 0.97880  0.31350  0.99390  Biso   1.000  H
  H427     1.0000 0.47880  0.18650  0.49390  Biso   1.000  H
  H428     1.0000 0.47880  0.81350  0.99390  Biso   1.000  H
