data_image0
_cell_length_a       25.859
_cell_length_b       13.52
_cell_length_c       26.671
_cell_angle_alpha    90
_cell_angle_beta     96.82
_cell_angle_gamma    90

_symmetry_space_group_name_H-M    "P 1"
_symmetry_int_tables_number       1

loop_
  _symmetry_equiv_pos_as_xyz
  'x, y, z'

loop_
  _atom_site_label
  _atom_site_occupancy
  _atom_site_fract_x
  _atom_site_fract_y
  _atom_site_fract_z
  _atom_site_thermal_displace_type
  _atom_site_B_iso_or_equiv
  _atom_site_type_symbol
  Cu1      1.0000 0.21145  0.65962  0.17810  Biso   1.000  Cu
  Cu2      1.0000 0.78855  0.15962  0.32190  Biso   1.000  Cu
  Cu3      1.0000 0.78855  0.34038  0.82190  Biso   1.000  Cu
  Cu4      1.0000 0.21145  0.84038  0.67810  Biso   1.000  Cu
  Cu5      1.0000 0.20821  0.85515  0.17627  Biso   1.000  Cu
  Cu6      1.0000 0.79179  0.35515  0.32373  Biso   1.000  Cu
  Cu7      1.0000 0.79179  0.14485  0.82373  Biso   1.000  Cu
  Cu8      1.0000 0.20821  0.64485  0.67627  Biso   1.000  Cu
  Se1      1.0000 0.22447  0.75546  0.10102  Biso   1.000  Se
  Se2      1.0000 0.77553  0.25546  0.39898  Biso   1.000  Se
  Se3      1.0000 0.77553  0.24454  0.89898  Biso   1.000  Se
  Se4      1.0000 0.22447  0.74454  0.60102  Biso   1.000  Se
  Se5      1.0000 0.26031  0.76045  0.24469  Biso   1.000  Se
  Se6      1.0000 0.73969  0.26045  0.25531  Biso   1.000  Se
  Se7      1.0000 0.73969  0.23955  0.75531  Biso   1.000  Se
  Se8      1.0000 0.26031  0.73955  0.74469  Biso   1.000  Se
  P1       1.0000 0.12628  0.64258  0.18570  Biso   1.000  P
  P2       1.0000 0.87372  0.14258  0.31430  Biso   1.000  P
  P3       1.0000 0.87372  0.35742  0.81430  Biso   1.000  P
  P4       1.0000 0.12628  0.85742  0.68570  Biso   1.000  P
  P5       1.0000 0.12319  0.86624  0.18428  Biso   1.000  P
  P6       1.0000 0.87681  0.36624  0.31572  Biso   1.000  P
  P7       1.0000 0.87681  0.13376  0.81572  Biso   1.000  P
  P8       1.0000 0.12319  0.63376  0.68428  Biso   1.000  P
  N1       1.0000 0.24580  0.51990  0.17560  Biso   1.000  N
  N2       1.0000 0.75420  0.01990  0.32440  Biso   1.000  N
  N3       1.0000 0.75420  0.48010  0.82440  Biso   1.000  N
  N4       1.0000 0.24580  0.98010  0.67560  Biso   1.000  N
  N5       1.0000 0.24150  0.99330  0.17140  Biso   1.000  N
  N6       1.0000 0.75850  0.49330  0.32860  Biso   1.000  N
  N7       1.0000 0.75850  0.00670  0.82860  Biso   1.000  N
  N8       1.0000 0.24150  0.50670  0.67140  Biso   1.000  N
  C1       1.0000 0.16150  0.74700  0.05580  Biso   1.000  C
  C2       1.0000 0.83850  0.24700  0.44420  Biso   1.000  C
  C3       1.0000 0.83850  0.25300  0.94420  Biso   1.000  C
  C4       1.0000 0.16150  0.75300  0.55580  Biso   1.000  C
  C5       1.0000 0.13510  0.83300  0.03670  Biso   1.000  C
  C6       1.0000 0.86490  0.33300  0.46330  Biso   1.000  C
  C7       1.0000 0.86490  0.16700  0.96330  Biso   1.000  C
  C8       1.0000 0.13510  0.66700  0.53670  Biso   1.000  C
  H1       1.0000 0.14710  0.89590  0.04900  Biso   1.000  H
  H2       1.0000 0.85290  0.39590  0.45100  Biso   1.000  H
  H3       1.0000 0.85290  0.10410  0.95100  Biso   1.000  H
  H4       1.0000 0.14710  0.60410  0.54900  Biso   1.000  H
  C9       1.0000 0.09190  0.82770  0.00020  Biso   1.000  C
  C10      1.0000 0.90810  0.32770  0.49980  Biso   1.000  C
  C11      1.0000 0.90810  0.17230  0.99980  Biso   1.000  C
  C12      1.0000 0.09190  0.67230  0.50020  Biso   1.000  C
  H5       1.0000 0.07500  0.88640  0.98730  Biso   1.000  H
  H6       1.0000 0.92500  0.38640  0.51270  Biso   1.000  H
  H7       1.0000 0.92500  0.11360  0.01270  Biso   1.000  H
  H8       1.0000 0.07500  0.61360  0.48730  Biso   1.000  H
  C13      1.0000 0.07390  0.73540  0.98300  Biso   1.000  C
  C14      1.0000 0.92610  0.23540  0.51700  Biso   1.000  C
  C15      1.0000 0.92610  0.26460  0.01700  Biso   1.000  C
  C16      1.0000 0.07390  0.76460  0.48300  Biso   1.000  C
  H9       1.0000 0.04520  0.73080  0.95740  Biso   1.000  H
  H10      1.0000 0.95480  0.23080  0.54260  Biso   1.000  H
  H11      1.0000 0.95480  0.26920  0.04260  Biso   1.000  H
  H12      1.0000 0.04520  0.76920  0.45740  Biso   1.000  H
  C17      1.0000 0.09730  0.65170  0.00270  Biso   1.000  C
  C18      1.0000 0.90270  0.15170  0.49730  Biso   1.000  C
  C19      1.0000 0.90270  0.34830  0.99730  Biso   1.000  C
  C20      1.0000 0.09730  0.84830  0.50270  Biso   1.000  C
  H13      1.0000 0.08400  0.58880  0.99170  Biso   1.000  H
  H14      1.0000 0.91600  0.08880  0.50830  Biso   1.000  H
  H15      1.0000 0.91600  0.41120  0.00830  Biso   1.000  H
  H16      1.0000 0.08400  0.91120  0.49170  Biso   1.000  H
  C21      1.0000 0.14090  0.65750  0.03890  Biso   1.000  C
  C22      1.0000 0.85910  0.15750  0.46110  Biso   1.000  C
  C23      1.0000 0.85910  0.34250  0.96110  Biso   1.000  C
  C24      1.0000 0.14090  0.84250  0.53890  Biso   1.000  C
  H17      1.0000 0.15660  0.59810  0.05220  Biso   1.000  H
  H18      1.0000 0.84340  0.09810  0.44780  Biso   1.000  H
  H19      1.0000 0.84340  0.40190  0.94780  Biso   1.000  H
  H20      1.0000 0.15660  0.90190  0.55220  Biso   1.000  H
  C25      1.0000 0.32970  0.77830  0.22940  Biso   1.000  C
  C26      1.0000 0.67030  0.27830  0.27060  Biso   1.000  C
  C27      1.0000 0.67030  0.22170  0.77060  Biso   1.000  C
  C28      1.0000 0.32970  0.72170  0.72940  Biso   1.000  C
  C29      1.0000 0.36170  0.85180  0.25020  Biso   1.000  C
  C30      1.0000 0.63830  0.35180  0.24980  Biso   1.000  C
  C31      1.0000 0.63830  0.14820  0.74980  Biso   1.000  C
  C32      1.0000 0.36170  0.64820  0.75020  Biso   1.000  C
  H21      1.0000 0.34930  0.89870  0.27250  Biso   1.000  H
  H22      1.0000 0.65070  0.39870  0.22750  Biso   1.000  H
  H23      1.0000 0.65070  0.10130  0.72750  Biso   1.000  H
  H24      1.0000 0.34930  0.60130  0.77250  Biso   1.000  H
  C33      1.0000 0.41410  0.85700  0.23810  Biso   1.000  C
  C34      1.0000 0.58590  0.35700  0.26190  Biso   1.000  C
  C35      1.0000 0.58590  0.14300  0.76190  Biso   1.000  C
  C36      1.0000 0.41410  0.64300  0.73810  Biso   1.000  C
  H25      1.0000 0.43760  0.89580  0.26000  Biso   1.000  H
  H26      1.0000 0.56240  0.39580  0.24000  Biso   1.000  H
  H27      1.0000 0.56240  0.10420  0.74000  Biso   1.000  H
  H28      1.0000 0.43760  0.60420  0.76000  Biso   1.000  H
  C37      1.0000 0.43290  0.81460  0.20060  Biso   1.000  C
  C38      1.0000 0.56710  0.31460  0.29940  Biso   1.000  C
  C39      1.0000 0.56710  0.18540  0.79940  Biso   1.000  C
  C40      1.0000 0.43290  0.68540  0.70060  Biso   1.000  C
  H29      1.0000 0.46800  0.82260  0.19420  Biso   1.000  H
  H30      1.0000 0.53200  0.32260  0.30580  Biso   1.000  H
  H31      1.0000 0.53200  0.17740  0.80580  Biso   1.000  H
  H32      1.0000 0.46800  0.67740  0.69420  Biso   1.000  H
  C41      1.0000 0.39790  0.75750  0.17110  Biso   1.000  C
  C42      1.0000 0.60210  0.25750  0.32890  Biso   1.000  C
  C43      1.0000 0.60210  0.24250  0.82890  Biso   1.000  C
  C44      1.0000 0.39790  0.74250  0.67110  Biso   1.000  C
  H33      1.0000 0.40850  0.72720  0.14180  Biso   1.000  H
  H34      1.0000 0.59150  0.22720  0.35820  Biso   1.000  H
  H35      1.0000 0.59150  0.27280  0.85820  Biso   1.000  H
  H36      1.0000 0.40850  0.77280  0.64180  Biso   1.000  H
  C45      1.0000 0.34790  0.74210  0.18210  Biso   1.000  C
  C46      1.0000 0.65210  0.24210  0.31790  Biso   1.000  C
  C47      1.0000 0.65210  0.25790  0.81790  Biso   1.000  C
  C48      1.0000 0.34790  0.75790  0.68210  Biso   1.000  C
  H37      1.0000 0.32420  0.70710  0.15850  Biso   1.000  H
  H38      1.0000 0.67580  0.20710  0.34150  Biso   1.000  H
  H39      1.0000 0.67580  0.29290  0.84150  Biso   1.000  H
  H40      1.0000 0.32420  0.79290  0.65850  Biso   1.000  H
  C49      1.0000 0.24560  0.47030  0.13140  Biso   1.000  C
  C50      1.0000 0.75440  0.97030  0.36860  Biso   1.000  C
  C51      1.0000 0.75440  0.52970  0.86860  Biso   1.000  C
  C52      1.0000 0.24560  0.02970  0.63140  Biso   1.000  C
  H41      1.0000 0.24360  0.50710  0.10090  Biso   1.000  H
  H42      1.0000 0.75640  0.00710  0.39910  Biso   1.000  H
  H43      1.0000 0.75640  0.49290  0.89910  Biso   1.000  H
  H44      1.0000 0.24360  0.99290  0.60090  Biso   1.000  H
  C53      1.0000 0.24830  0.36880  0.12900  Biso   1.000  C
  C54      1.0000 0.75170  0.86880  0.37100  Biso   1.000  C
  C55      1.0000 0.75170  0.63120  0.87100  Biso   1.000  C
  C56      1.0000 0.24830  0.13120  0.62900  Biso   1.000  C
  H45      1.0000 0.24740  0.33770  0.09700  Biso   1.000  H
  H46      1.0000 0.75260  0.83770  0.40300  Biso   1.000  H
  H47      1.0000 0.75260  0.66230  0.90300  Biso   1.000  H
  H48      1.0000 0.24740  0.16230  0.59700  Biso   1.000  H
  C57      1.0000 0.25230  0.31110  0.17180  Biso   1.000  C
  C58      1.0000 0.74770  0.81110  0.32820  Biso   1.000  C
  C59      1.0000 0.74770  0.68890  0.82820  Biso   1.000  C
  C60      1.0000 0.25230  0.18890  0.67180  Biso   1.000  C
  C61      1.0000 0.25380  0.36340  0.21740  Biso   1.000  C
  C62      1.0000 0.74620  0.86340  0.28260  Biso   1.000  C
  C63      1.0000 0.74620  0.63660  0.78260  Biso   1.000  C
  C64      1.0000 0.25380  0.13660  0.71740  Biso   1.000  C
  H49      1.0000 0.25730  0.32850  0.24850  Biso   1.000  H
  H50      1.0000 0.74270  0.82850  0.25150  Biso   1.000  H
  H51      1.0000 0.74270  0.67150  0.75150  Biso   1.000  H
  H52      1.0000 0.25730  0.17150  0.74850  Biso   1.000  H
  C65      1.0000 0.25030  0.46450  0.21730  Biso   1.000  C
  C66      1.0000 0.74970  0.96450  0.28270  Biso   1.000  C
  C67      1.0000 0.74970  0.53550  0.78270  Biso   1.000  C
  C68      1.0000 0.25030  0.03550  0.71730  Biso   1.000  C
  H53      1.0000 0.25110  0.49720  0.24890  Biso   1.000  H
  H54      1.0000 0.74890  0.99720  0.25110  Biso   1.000  H
  H55      1.0000 0.74890  0.50280  0.75110  Biso   1.000  H
  H56      1.0000 0.25110  0.00280  0.74890  Biso   1.000  H
  C69      1.0000 0.23600  0.04650  0.12800  Biso   1.000  C
  C70      1.0000 0.76400  0.54650  0.37200  Biso   1.000  C
  C71      1.0000 0.76400  0.95350  0.87200  Biso   1.000  C
  C72      1.0000 0.23600  0.45350  0.62800  Biso   1.000  C
  H57      1.0000 0.22900  0.01240  0.09680  Biso   1.000  H
  H58      1.0000 0.77100  0.51240  0.40320  Biso   1.000  H
  H59      1.0000 0.77100  0.98760  0.90320  Biso   1.000  H
  H60      1.0000 0.22900  0.48760  0.59680  Biso   1.000  H
  C73      1.0000 0.24020  0.14820  0.12740  Biso   1.000  C
  C74      1.0000 0.75980  0.64820  0.37260  Biso   1.000  C
  C75      1.0000 0.75980  0.85180  0.87260  Biso   1.000  C
  C76      1.0000 0.24020  0.35180  0.62740  Biso   1.000  C
  H61      1.0000 0.23500  0.18230  0.09600  Biso   1.000  H
  H62      1.0000 0.76500  0.68230  0.40400  Biso   1.000  H
  H63      1.0000 0.76500  0.81770  0.90400  Biso   1.000  H
  H64      1.0000 0.23500  0.31770  0.59600  Biso   1.000  H
  C77      1.0000 0.25170  0.20070  0.17130  Biso   1.000  C
  C78      1.0000 0.74830  0.70070  0.32870  Biso   1.000  C
  C79      1.0000 0.74830  0.79930  0.82870  Biso   1.000  C
  C80      1.0000 0.25170  0.29930  0.67130  Biso   1.000  C
  C81      1.0000 0.26130  0.14480  0.21530  Biso   1.000  C
  C82      1.0000 0.73870  0.64480  0.28470  Biso   1.000  C
  C83      1.0000 0.73870  0.85520  0.78470  Biso   1.000  C
  C84      1.0000 0.26130  0.35520  0.71530  Biso   1.000  C
  H65      1.0000 0.27190  0.17740  0.24640  Biso   1.000  H
  H66      1.0000 0.72810  0.67740  0.25360  Biso   1.000  H
  H67      1.0000 0.72810  0.82260  0.75360  Biso   1.000  H
  H68      1.0000 0.27190  0.32260  0.74640  Biso   1.000  H
  C85      1.0000 0.25580  0.04420  0.21480  Biso   1.000  C
  C86      1.0000 0.74420  0.54420  0.28520  Biso   1.000  C
  C87      1.0000 0.74420  0.95580  0.78520  Biso   1.000  C
  C88      1.0000 0.25580  0.45580  0.71480  Biso   1.000  C
  H69      1.0000 0.26210  0.00890  0.24570  Biso   1.000  H
  H70      1.0000 0.73790  0.50890  0.25430  Biso   1.000  H
  H71      1.0000 0.73790  0.99110  0.75430  Biso   1.000  H
  H72      1.0000 0.26210  0.49110  0.74570  Biso   1.000  H
  C89      1.0000 0.10440  0.61510  0.24230  Biso   1.000  C
  C90      1.0000 0.89560  0.11510  0.25770  Biso   1.000  C
  C91      1.0000 0.89560  0.38490  0.75770  Biso   1.000  C
  C92      1.0000 0.10440  0.88490  0.74230  Biso   1.000  C
  C93      1.0000 0.05440  0.59690  0.25040  Biso   1.000  C
  C94      1.0000 0.94560  0.09690  0.24960  Biso   1.000  C
  C95      1.0000 0.94560  0.40310  0.74960  Biso   1.000  C
  C96      1.0000 0.05440  0.90310  0.75040  Biso   1.000  C
  H73      1.0000 0.02850  0.59550  0.22190  Biso   1.000  H
  H74      1.0000 0.97150  0.09550  0.27810  Biso   1.000  H
  H75      1.0000 0.97150  0.40450  0.77810  Biso   1.000  H
  H76      1.0000 0.02850  0.90450  0.72190  Biso   1.000  H
  C97      1.0000 0.03900  0.58020  0.29760  Biso   1.000  C
  C98      1.0000 0.96100  0.08020  0.20240  Biso   1.000  C
  C99      1.0000 0.96100  0.41980  0.70240  Biso   1.000  C
  C100     1.0000 0.03900  0.91980  0.79760  Biso   1.000  C
  H77      1.0000 0.00330  0.56980  0.30140  Biso   1.000  H
  H78      1.0000 0.99670  0.06980  0.19860  Biso   1.000  H
  H79      1.0000 0.99670  0.43020  0.69860  Biso   1.000  H
  H80      1.0000 0.00330  0.93020  0.80140  Biso   1.000  H
  C101     1.0000 0.07830  0.57890  0.34130  Biso   1.000  C
  C102     1.0000 0.92170  0.07890  0.15870  Biso   1.000  C
  C103     1.0000 0.92170  0.42110  0.65870  Biso   1.000  C
  C104     1.0000 0.07830  0.92110  0.84130  Biso   1.000  C
  H81      1.0000 0.06850  0.57060  0.37430  Biso   1.000  H
  H82      1.0000 0.93150  0.07060  0.12570  Biso   1.000  H
  H83      1.0000 0.93150  0.42940  0.62570  Biso   1.000  H
  H84      1.0000 0.06850  0.92940  0.87430  Biso   1.000  H
  C105     1.0000 0.12980  0.58980  0.33450  Biso   1.000  C
  C106     1.0000 0.87020  0.08980  0.16550  Biso   1.000  C
  C107     1.0000 0.87020  0.41020  0.66550  Biso   1.000  C
  C108     1.0000 0.12980  0.91020  0.83450  Biso   1.000  C
  H85      1.0000 0.15620  0.58550  0.36240  Biso   1.000  H
  H86      1.0000 0.84380  0.08550  0.13760  Biso   1.000  H
  H87      1.0000 0.84380  0.41450  0.63760  Biso   1.000  H
  H88      1.0000 0.15620  0.91450  0.86240  Biso   1.000  H
  C109     1.0000 0.14310  0.60770  0.28470  Biso   1.000  C
  C110     1.0000 0.85690  0.10770  0.21530  Biso   1.000  C
  C111     1.0000 0.85690  0.39230  0.71530  Biso   1.000  C
  C112     1.0000 0.14310  0.89230  0.78470  Biso   1.000  C
  H89      1.0000 0.17870  0.61480  0.27980  Biso   1.000  H
  H90      1.0000 0.82130  0.11480  0.22020  Biso   1.000  H
  H91      1.0000 0.82130  0.38520  0.72020  Biso   1.000  H
  H92      1.0000 0.17870  0.88520  0.77980  Biso   1.000  H
  C113     1.0000 0.09510  0.53910  0.15990  Biso   1.000  C
  C114     1.0000 0.90490  0.03910  0.34010  Biso   1.000  C
  C115     1.0000 0.90490  0.46090  0.84010  Biso   1.000  C
  C116     1.0000 0.09510  0.96090  0.65990  Biso   1.000  C
  C117     1.0000 0.10890  0.44390  0.17710  Biso   1.000  C
  C118     1.0000 0.89110  0.94390  0.32290  Biso   1.000  C
  C119     1.0000 0.89110  0.55610  0.82290  Biso   1.000  C
  C120     1.0000 0.10890  0.05610  0.67710  Biso   1.000  C
  H93      1.0000 0.13290  0.43860  0.20690  Biso   1.000  H
  H94      1.0000 0.86710  0.93860  0.29310  Biso   1.000  H
  H95      1.0000 0.86710  0.56140  0.79310  Biso   1.000  H
  H96      1.0000 0.13290  0.06140  0.70690  Biso   1.000  H
  C121     1.0000 0.09090  0.35920  0.15490  Biso   1.000  C
  C122     1.0000 0.90910  0.85920  0.34510  Biso   1.000  C
  C123     1.0000 0.90910  0.64080  0.84510  Biso   1.000  C
  C124     1.0000 0.09090  0.14080  0.65490  Biso   1.000  C
  H97      1.0000 0.10310  0.29690  0.16790  Biso   1.000  H
  H98      1.0000 0.89690  0.79690  0.33210  Biso   1.000  H
  H99      1.0000 0.89690  0.70310  0.83210  Biso   1.000  H
  H100     1.0000 0.10310  0.20310  0.66790  Biso   1.000  H
  C125     1.0000 0.05560  0.36480  0.11430  Biso   1.000  C
  C126     1.0000 0.94440  0.86480  0.38570  Biso   1.000  C
  C127     1.0000 0.94440  0.63520  0.88570  Biso   1.000  C
  C128     1.0000 0.05560  0.13520  0.61430  Biso   1.000  C
  H101     1.0000 0.04160  0.30480  0.09990  Biso   1.000  H
  H102     1.0000 0.95840  0.80480  0.40010  Biso   1.000  H
  H103     1.0000 0.95840  0.69520  0.90010  Biso   1.000  H
  H104     1.0000 0.04160  0.19520  0.59990  Biso   1.000  H
  C129     1.0000 0.03830  0.45090  0.09230  Biso   1.000  C
  C130     1.0000 0.96170  0.95090  0.40770  Biso   1.000  C
  C131     1.0000 0.96170  0.54910  0.90770  Biso   1.000  C
  C132     1.0000 0.03830  0.04910  0.59230  Biso   1.000  C
  H105     1.0000 0.01390  0.45220  0.06270  Biso   1.000  H
  H106     1.0000 0.98610  0.95220  0.43730  Biso   1.000  H
  H107     1.0000 0.98610  0.54780  0.93730  Biso   1.000  H
  H108     1.0000 0.01390  0.04780  0.56270  Biso   1.000  H
  C133     1.0000 0.05980  0.54370  0.11710  Biso   1.000  C
  C134     1.0000 0.94020  0.04370  0.38290  Biso   1.000  C
  C135     1.0000 0.94020  0.45630  0.88290  Biso   1.000  C
  C136     1.0000 0.05980  0.95630  0.61710  Biso   1.000  C
  H109     1.0000 0.04900  0.60610  0.10320  Biso   1.000  H
  H110     1.0000 0.95100  0.10610  0.39680  Biso   1.000  H
  H111     1.0000 0.95100  0.39390  0.89680  Biso   1.000  H
  H112     1.0000 0.04900  0.89390  0.60320  Biso   1.000  H
  C137     1.0000 0.08910  0.75200  0.16160  Biso   1.000  C
  C138     1.0000 0.91090  0.25200  0.33840  Biso   1.000  C
  C139     1.0000 0.91090  0.24800  0.83840  Biso   1.000  C
  C140     1.0000 0.08910  0.74800  0.66160  Biso   1.000  C
  H113     1.0000 0.05410  0.75050  0.17310  Biso   1.000  H
  H114     1.0000 0.94590  0.25050  0.32690  Biso   1.000  H
  H115     1.0000 0.94590  0.24950  0.82690  Biso   1.000  H
  H116     1.0000 0.05410  0.74950  0.67310  Biso   1.000  H
  H117     1.0000 0.08470  0.75100  0.12420  Biso   1.000  H
  H118     1.0000 0.91530  0.25100  0.37580  Biso   1.000  H
  H119     1.0000 0.91530  0.24900  0.87580  Biso   1.000  H
  H120     1.0000 0.08470  0.74900  0.62420  Biso   1.000  H
  C141     1.0000 0.10150  0.89300  0.24210  Biso   1.000  C
  C142     1.0000 0.89850  0.39300  0.25790  Biso   1.000  C
  C143     1.0000 0.89850  0.10700  0.75790  Biso   1.000  C
  C144     1.0000 0.10150  0.60700  0.74210  Biso   1.000  C
  C145     1.0000 0.13770  0.89340  0.28500  Biso   1.000  C
  C146     1.0000 0.86230  0.39340  0.21500  Biso   1.000  C
  C147     1.0000 0.86230  0.10660  0.71500  Biso   1.000  C
  C148     1.0000 0.13770  0.60660  0.78500  Biso   1.000  C
  H121     1.0000 0.17370  0.88540  0.28190  Biso   1.000  H
  H122     1.0000 0.82630  0.38540  0.21810  Biso   1.000  H
  H123     1.0000 0.82630  0.11460  0.71810  Biso   1.000  H
  H124     1.0000 0.17370  0.61460  0.78190  Biso   1.000  H
  C149     1.0000 0.12150  0.90550  0.33220  Biso   1.000  C
  C150     1.0000 0.87850  0.40550  0.16780  Biso   1.000  C
  C151     1.0000 0.87850  0.09450  0.66780  Biso   1.000  C
  C152     1.0000 0.12150  0.59450  0.83220  Biso   1.000  C
  H125     1.0000 0.14620  0.90040  0.36140  Biso   1.000  H
  H126     1.0000 0.85380  0.40040  0.13860  Biso   1.000  H
  H127     1.0000 0.85380  0.09960  0.63860  Biso   1.000  H
  H128     1.0000 0.14620  0.59960  0.86140  Biso   1.000  H
  C153     1.0000 0.06970  0.92490  0.33740  Biso   1.000  C
  C154     1.0000 0.93030  0.42490  0.16260  Biso   1.000  C
  C155     1.0000 0.93030  0.07510  0.66260  Biso   1.000  C
  C156     1.0000 0.06970  0.57510  0.83740  Biso   1.000  C
  H129     1.0000 0.05930  0.93580  0.36990  Biso   1.000  H
  H130     1.0000 0.94070  0.43580  0.13010  Biso   1.000  H
  H131     1.0000 0.94070  0.06420  0.63010  Biso   1.000  H
  H132     1.0000 0.05930  0.56420  0.86990  Biso   1.000  H
  C157     1.0000 0.03130  0.92840  0.29260  Biso   1.000  C
  C158     1.0000 0.96870  0.42840  0.20740  Biso   1.000  C
  C159     1.0000 0.96870  0.07160  0.70740  Biso   1.000  C
  C160     1.0000 0.03130  0.57160  0.79260  Biso   1.000  C
  H133     1.0000 0.99550  0.93930  0.29520  Biso   1.000  H
  H134     1.0000 0.00450  0.43930  0.20480  Biso   1.000  H
  H135     1.0000 0.00450  0.06070  0.70480  Biso   1.000  H
  H136     1.0000 0.99550  0.56070  0.79520  Biso   1.000  H
  C161     1.0000 0.04890  0.91560  0.24700  Biso   1.000  C
  C162     1.0000 0.95110  0.41560  0.25300  Biso   1.000  C
  C163     1.0000 0.95110  0.08440  0.75300  Biso   1.000  C
  C164     1.0000 0.04890  0.58440  0.74700  Biso   1.000  C
  H137     1.0000 0.02500  0.92190  0.21730  Biso   1.000  H
  H138     1.0000 0.97500  0.42190  0.28270  Biso   1.000  H
  H139     1.0000 0.97500  0.07810  0.78270  Biso   1.000  H
  H140     1.0000 0.02500  0.57810  0.71730  Biso   1.000  H
  C165     1.0000 0.09090  0.96750  0.15520  Biso   1.000  C
  C166     1.0000 0.90910  0.46750  0.34480  Biso   1.000  C
  C167     1.0000 0.90910  0.03250  0.84480  Biso   1.000  C
  C168     1.0000 0.09090  0.53250  0.65520  Biso   1.000  C
  C169     1.0000 0.10710  0.06260  0.17430  Biso   1.000  C
  C170     1.0000 0.89290  0.56260  0.32570  Biso   1.000  C
  C171     1.0000 0.89290  0.93740  0.82570  Biso   1.000  C
  C172     1.0000 0.10710  0.43740  0.67430  Biso   1.000  C
  H141     1.0000 0.13310  0.06800  0.20250  Biso   1.000  H
  H142     1.0000 0.86690  0.56800  0.29750  Biso   1.000  H
  H143     1.0000 0.86690  0.93200  0.79750  Biso   1.000  H
  H144     1.0000 0.13310  0.43200  0.70250  Biso   1.000  H
  C173     1.0000 0.08520  0.14550  0.15200  Biso   1.000  C
  C174     1.0000 0.91480  0.64550  0.34800  Biso   1.000  C
  C175     1.0000 0.91480  0.85450  0.84800  Biso   1.000  C
  C176     1.0000 0.08520  0.35450  0.65200  Biso   1.000  C
  H145     1.0000 0.09370  0.20830  0.16680  Biso   1.000  H
  H146     1.0000 0.90630  0.70830  0.33320  Biso   1.000  H
  H147     1.0000 0.90630  0.79170  0.83320  Biso   1.000  H
  H148     1.0000 0.09370  0.29170  0.66680  Biso   1.000  H
  C177     1.0000 0.05110  0.14040  0.10870  Biso   1.000  C
  C178     1.0000 0.94890  0.64040  0.39130  Biso   1.000  C
  C179     1.0000 0.94890  0.85960  0.89130  Biso   1.000  C
  C180     1.0000 0.05110  0.35960  0.60870  Biso   1.000  C
  H149     1.0000 0.03920  0.19930  0.09160  Biso   1.000  H
  H150     1.0000 0.96080  0.69930  0.40840  Biso   1.000  H
  H151     1.0000 0.96080  0.80070  0.90840  Biso   1.000  H
  H152     1.0000 0.03920  0.30070  0.59160  Biso   1.000  H
  C181     1.0000 0.03370  0.04790  0.08950  Biso   1.000  C
  C182     1.0000 0.96630  0.54790  0.41050  Biso   1.000  C
  C183     1.0000 0.96630  0.95210  0.91050  Biso   1.000  C
  C184     1.0000 0.03370  0.45210  0.58950  Biso   1.000  C
  H153     1.0000 0.00760  0.04370  0.06130  Biso   1.000  H
  H154     1.0000 0.99240  0.54370  0.43870  Biso   1.000  H
  H155     1.0000 0.99240  0.95630  0.93870  Biso   1.000  H
  H156     1.0000 0.00760  0.45630  0.56130  Biso   1.000  H
  C185     1.0000 0.05600  0.96020  0.11300  Biso   1.000  C
  C186     1.0000 0.94400  0.46020  0.38700  Biso   1.000  C
  C187     1.0000 0.94400  0.03980  0.88700  Biso   1.000  C
  C188     1.0000 0.05600  0.53980  0.61300  Biso   1.000  C
  H157     1.0000 0.04660  0.89720  0.09910  Biso   1.000  H
  H158     1.0000 0.95340  0.39720  0.40090  Biso   1.000  H
  H159     1.0000 0.95340  0.10280  0.90090  Biso   1.000  H
  H160     1.0000 0.04660  0.60280  0.59910  Biso   1.000  H
  Cu9      1.0000 0.27855  0.17594  0.93444  Biso   1.000  Cu
  Cu10     1.0000 0.72145  0.67594  0.56556  Biso   1.000  Cu
  Cu11     1.0000 0.72145  0.82406  0.06556  Biso   1.000  Cu
  Cu12     1.0000 0.27855  0.32406  0.43444  Biso   1.000  Cu
  Cu13     1.0000 0.27128  0.36544  0.92500  Biso   1.000  Cu
  Cu14     1.0000 0.72872  0.86544  0.57500  Biso   1.000  Cu
  Cu15     1.0000 0.72872  0.63456  0.07500  Biso   1.000  Cu
  Cu16     1.0000 0.27128  0.13456  0.42500  Biso   1.000  Cu
  Se9      1.0000 0.23089  0.27726  0.99233  Biso   1.000  Se
  Se10     1.0000 0.76911  0.77726  0.50767  Biso   1.000  Se
  Se11     1.0000 0.76911  0.72274  0.00767  Biso   1.000  Se
  Se12     1.0000 0.23089  0.22274  0.49233  Biso   1.000  Se
  Se13     1.0000 0.26298  0.25914  0.85006  Biso   1.000  Se
  Se14     1.0000 0.73702  0.75914  0.64994  Biso   1.000  Se
  Se15     1.0000 0.73702  0.74086  0.14994  Biso   1.000  Se
  Se16     1.0000 0.26298  0.24086  0.35006  Biso   1.000  Se
  P9       1.0000 0.35870  0.17223  0.97810  Biso   1.000  P
  P10      1.0000 0.64130  0.67223  0.52190  Biso   1.000  P
  P11      1.0000 0.64130  0.82777  0.02190  Biso   1.000  P
  P12      1.0000 0.35870  0.32777  0.47810  Biso   1.000  P
  P13      1.0000 0.35554  0.39023  0.95427  Biso   1.000  P
  P14      1.0000 0.64446  0.89023  0.54573  Biso   1.000  P
  P15      1.0000 0.64446  0.60977  0.04573  Biso   1.000  P
  P16      1.0000 0.35554  0.10977  0.45427  Biso   1.000  P
  N9       1.0000 0.24390  0.50680  0.91390  Biso   1.000  N
  N10      1.0000 0.75610  0.00680  0.58610  Biso   1.000  N
  N11      1.0000 0.75610  0.49320  0.08610  Biso   1.000  N
  N12      1.0000 0.24390  0.99320  0.41390  Biso   1.000  N
  N13      1.0000 0.25280  0.03350  0.92220  Biso   1.000  N
  N14      1.0000 0.74720  0.53350  0.57780  Biso   1.000  N
  N15      1.0000 0.74720  0.96650  0.07780  Biso   1.000  N
  N16      1.0000 0.25280  0.46650  0.42220  Biso   1.000  N
  C189     1.0000 0.15680  0.26740  0.97120  Biso   1.000  C
  C190     1.0000 0.84320  0.76740  0.52880  Biso   1.000  C
  C191     1.0000 0.84320  0.73260  0.02880  Biso   1.000  C
  C192     1.0000 0.15680  0.23260  0.47120  Biso   1.000  C
  C193     1.0000 0.12460  0.20650  0.99380  Biso   1.000  C
  C194     1.0000 0.87540  0.70650  0.50620  Biso   1.000  C
  C195     1.0000 0.87540  0.79350  0.00620  Biso   1.000  C
  C196     1.0000 0.12460  0.29350  0.49380  Biso   1.000  C
  H161     1.0000 0.13910  0.16390  0.02010  Biso   1.000  H
  H162     1.0000 0.86090  0.66390  0.47990  Biso   1.000  H
  H163     1.0000 0.86090  0.83610  0.97990  Biso   1.000  H
  H164     1.0000 0.13910  0.33610  0.52010  Biso   1.000  H
  C197     1.0000 0.07180  0.20450  0.97970  Biso   1.000  C
  C198     1.0000 0.92820  0.70450  0.52030  Biso   1.000  C
  C199     1.0000 0.92820  0.79550  0.02030  Biso   1.000  C
  C200     1.0000 0.07180  0.29550  0.47970  Biso   1.000  C
  H165     1.0000 0.05100  0.16060  0.99660  Biso   1.000  H
  H166     1.0000 0.94900  0.66060  0.50340  Biso   1.000  H
  H167     1.0000 0.94900  0.83940  0.00340  Biso   1.000  H
  H168     1.0000 0.05100  0.33940  0.49660  Biso   1.000  H
  C201     1.0000 0.04800  0.26480  0.94150  Biso   1.000  C
  C202     1.0000 0.95200  0.76480  0.55850  Biso   1.000  C
  C203     1.0000 0.95200  0.73520  0.05850  Biso   1.000  C
  C204     1.0000 0.04800  0.23520  0.44150  Biso   1.000  C
  H169     1.0000 0.01150  0.26160  0.93150  Biso   1.000  H
  H170     1.0000 0.98850  0.76160  0.56850  Biso   1.000  H
  H171     1.0000 0.98850  0.73840  0.06850  Biso   1.000  H
  H172     1.0000 0.01150  0.23840  0.43150  Biso   1.000  H
  C205     1.0000 0.07970  0.33030  0.91860  Biso   1.000  C
  C206     1.0000 0.92030  0.83030  0.58140  Biso   1.000  C
  C207     1.0000 0.92030  0.66970  0.08140  Biso   1.000  C
  C208     1.0000 0.07970  0.16970  0.41860  Biso   1.000  C
  H173     1.0000 0.06370  0.37330  0.89310  Biso   1.000  H
  H174     1.0000 0.93630  0.87330  0.60690  Biso   1.000  H
  H175     1.0000 0.93630  0.62670  0.10690  Biso   1.000  H
  H176     1.0000 0.06370  0.12670  0.39310  Biso   1.000  H
  C209     1.0000 0.13240  0.33560  0.93090  Biso   1.000  C
  C210     1.0000 0.86760  0.83560  0.56910  Biso   1.000  C
  C211     1.0000 0.86760  0.66440  0.06910  Biso   1.000  C
  C212     1.0000 0.13240  0.16440  0.43090  Biso   1.000  C
  H177     1.0000 0.15290  0.38100  0.91450  Biso   1.000  H
  H178     1.0000 0.84710  0.88100  0.58550  Biso   1.000  H
  H179     1.0000 0.84710  0.61900  0.08550  Biso   1.000  H
  H180     1.0000 0.15290  0.11900  0.41450  Biso   1.000  H
  C213     1.0000 0.18860  0.25210  0.82660  Biso   1.000  C
  C214     1.0000 0.81140  0.75210  0.67340  Biso   1.000  C
  C215     1.0000 0.81140  0.74790  0.17340  Biso   1.000  C
  C216     1.0000 0.18860  0.24790  0.32660  Biso   1.000  C
  C217     1.0000 0.15860  0.16070  0.83110  Biso   1.000  C
  C218     1.0000 0.84140  0.66070  0.66890  Biso   1.000  C
  C219     1.0000 0.84140  0.83930  0.16890  Biso   1.000  C
  C220     1.0000 0.15860  0.33930  0.33110  Biso   1.000  C
  H181     1.0000 0.17380  0.10680  0.85040  Biso   1.000  H
  H182     1.0000 0.82620  0.60680  0.64960  Biso   1.000  H
  H183     1.0000 0.82620  0.89320  0.14960  Biso   1.000  H
  H184     1.0000 0.17380  0.39320  0.35040  Biso   1.000  H
  C221     1.0000 0.11050  0.15360  0.80820  Biso   1.000  C
  C222     1.0000 0.88950  0.65360  0.69180  Biso   1.000  C
  C223     1.0000 0.88950  0.84640  0.19180  Biso   1.000  C
  C224     1.0000 0.11050  0.34640  0.30820  Biso   1.000  C
  H185     1.0000 0.09270  0.09200  0.80590  Biso   1.000  H
  H186     1.0000 0.90730  0.59200  0.69410  Biso   1.000  H
  H187     1.0000 0.90730  0.90800  0.19410  Biso   1.000  H
  H188     1.0000 0.09270  0.40800  0.30590  Biso   1.000  H
  C225     1.0000 0.08500  0.24540  0.78600  Biso   1.000  C
  C226     1.0000 0.91500  0.74540  0.71400  Biso   1.000  C
  C227     1.0000 0.91500  0.75460  0.21400  Biso   1.000  C
  C228     1.0000 0.08500  0.25460  0.28600  Biso   1.000  C
  H189     1.0000 0.04870  0.24450  0.77460  Biso   1.000  H
  H190     1.0000 0.95130  0.74450  0.72540  Biso   1.000  H
  H191     1.0000 0.95130  0.75550  0.22540  Biso   1.000  H
  H192     1.0000 0.04870  0.25550  0.27460  Biso   1.000  H
  C229     1.0000 0.11020  0.32310  0.78220  Biso   1.000  C
  C230     1.0000 0.88980  0.82310  0.71780  Biso   1.000  C
  C231     1.0000 0.88980  0.67690  0.21780  Biso   1.000  C
  C232     1.0000 0.11020  0.17690  0.28220  Biso   1.000  C
  H193     1.0000 0.09390  0.37870  0.76520  Biso   1.000  H
  H194     1.0000 0.90610  0.87870  0.73480  Biso   1.000  H
  H195     1.0000 0.90610  0.62130  0.23480  Biso   1.000  H
  H196     1.0000 0.09390  0.12130  0.26520  Biso   1.000  H
  C233     1.0000 0.16190  0.32870  0.80240  Biso   1.000  C
  C234     1.0000 0.83810  0.82870  0.69760  Biso   1.000  C
  C235     1.0000 0.83810  0.67130  0.19760  Biso   1.000  C
  C236     1.0000 0.16190  0.17130  0.30240  Biso   1.000  C
  H197     1.0000 0.17980  0.38940  0.79940  Biso   1.000  H
  H198     1.0000 0.82020  0.88940  0.70060  Biso   1.000  H
  H199     1.0000 0.82020  0.61060  0.20060  Biso   1.000  H
  H200     1.0000 0.17980  0.11060  0.29940  Biso   1.000  H
  C237     1.0000 0.22710  0.55970  0.95160  Biso   1.000  C
  C238     1.0000 0.77290  0.05970  0.54840  Biso   1.000  C
  C239     1.0000 0.77290  0.44030  0.04840  Biso   1.000  C
  C240     1.0000 0.22710  0.94030  0.45160  Biso   1.000  C
  H201     1.0000 0.21250  0.52450  0.97740  Biso   1.000  H
  H202     1.0000 0.78750  0.02450  0.52260  Biso   1.000  H
  H203     1.0000 0.78750  0.47550  0.02260  Biso   1.000  H
  H204     1.0000 0.21250  0.97550  0.47740  Biso   1.000  H
  C241     1.0000 0.22950  0.66000  0.95540  Biso   1.000  C
  C242     1.0000 0.77050  0.16000  0.54460  Biso   1.000  C
  C243     1.0000 0.77050  0.34000  0.04460  Biso   1.000  C
  C244     1.0000 0.22950  0.84000  0.45540  Biso   1.000  C
  H205     1.0000 0.21830  0.69150  0.98400  Biso   1.000  H
  H206     1.0000 0.78170  0.19150  0.51600  Biso   1.000  H
  H207     1.0000 0.78170  0.30850  0.01600  Biso   1.000  H
  H208     1.0000 0.21830  0.80850  0.48400  Biso   1.000  H
  C245     1.0000 0.24800  0.71690  0.91830  Biso   1.000  C
  C246     1.0000 0.75200  0.21690  0.58170  Biso   1.000  C
  C247     1.0000 0.75200  0.28310  0.08170  Biso   1.000  C
  C248     1.0000 0.24800  0.78310  0.41830  Biso   1.000  C
  C249     1.0000 0.26370  0.66280  0.87690  Biso   1.000  C
  C250     1.0000 0.73630  0.16280  0.62310  Biso   1.000  C
  C251     1.0000 0.73630  0.33720  0.12310  Biso   1.000  C
  C252     1.0000 0.26370  0.83720  0.37690  Biso   1.000  C
  H209     1.0000 0.27610  0.69650  0.84940  Biso   1.000  H
  H210     1.0000 0.72390  0.19650  0.65060  Biso   1.000  H
  H211     1.0000 0.72390  0.30350  0.15060  Biso   1.000  H
  H212     1.0000 0.27610  0.80350  0.34940  Biso   1.000  H
  C253     1.0000 0.26070  0.55950  0.87690  Biso   1.000  C
  C254     1.0000 0.73930  0.05950  0.62310  Biso   1.000  C
  C255     1.0000 0.73930  0.44050  0.12310  Biso   1.000  C
  C256     1.0000 0.26070  0.94050  0.37690  Biso   1.000  C
  H213     1.0000 0.27120  0.52490  0.84880  Biso   1.000  H
  H214     1.0000 0.72880  0.02490  0.65120  Biso   1.000  H
  H215     1.0000 0.72880  0.47510  0.15120  Biso   1.000  H
  H216     1.0000 0.27120  0.97510  0.34880  Biso   1.000  H
  C257     1.0000 0.26980  0.98210  0.88420  Biso   1.000  C
  C258     1.0000 0.73020  0.48210  0.61580  Biso   1.000  C
  C259     1.0000 0.73020  0.01790  0.11580  Biso   1.000  C
  C260     1.0000 0.26980  0.51790  0.38420  Biso   1.000  C
  H217     1.0000 0.28340  0.01800  0.85810  Biso   1.000  H
  H218     1.0000 0.71660  0.51800  0.64190  Biso   1.000  H
  H219     1.0000 0.71660  0.98200  0.14190  Biso   1.000  H
  H220     1.0000 0.28340  0.48200  0.35810  Biso   1.000  H
  C261     1.0000 0.26870  0.88120  0.88100  Biso   1.000  C
  C262     1.0000 0.73130  0.38120  0.61900  Biso   1.000  C
  C263     1.0000 0.73130  0.11880  0.11900  Biso   1.000  C
  C264     1.0000 0.26870  0.61880  0.38100  Biso   1.000  C
  H221     1.0000 0.28020  0.84930  0.85260  Biso   1.000  H
  H222     1.0000 0.71980  0.34930  0.64740  Biso   1.000  H
  H223     1.0000 0.71980  0.15070  0.14740  Biso   1.000  H
  H224     1.0000 0.28020  0.65070  0.35260  Biso   1.000  H
  C265     1.0000 0.25050  0.82480  0.91920  Biso   1.000  C
  C266     1.0000 0.74950  0.32480  0.58080  Biso   1.000  C
  C267     1.0000 0.74950  0.17520  0.08080  Biso   1.000  C
  C268     1.0000 0.25050  0.67520  0.41920  Biso   1.000  C
  C269     1.0000 0.23280  0.87770  0.95820  Biso   1.000  C
  C270     1.0000 0.76720  0.37770  0.54180  Biso   1.000  C
  C271     1.0000 0.76720  0.12230  0.04180  Biso   1.000  C
  C272     1.0000 0.23280  0.62230  0.45820  Biso   1.000  C
  H225     1.0000 0.21940  0.84360  0.98500  Biso   1.000  H
  H226     1.0000 0.78060  0.34360  0.51500  Biso   1.000  H
  H227     1.0000 0.78060  0.15640  0.01500  Biso   1.000  H
  H228     1.0000 0.21940  0.65640  0.48500  Biso   1.000  H
  C273     1.0000 0.23460  0.98000  0.95830  Biso   1.000  C
  C274     1.0000 0.76540  0.48000  0.54170  Biso   1.000  C
  C275     1.0000 0.76540  0.02000  0.04170  Biso   1.000  C
  C276     1.0000 0.23460  0.52000  0.45830  Biso   1.000  C
  H229     1.0000 0.22210  0.01400  0.98570  Biso   1.000  H
  H230     1.0000 0.77790  0.51400  0.51430  Biso   1.000  H
  H231     1.0000 0.77790  0.98600  0.01430  Biso   1.000  H
  H232     1.0000 0.22210  0.48600  0.48570  Biso   1.000  H
  C277     1.0000 0.36530  0.11510  0.03430  Biso   1.000  C
  C278     1.0000 0.63470  0.61510  0.46570  Biso   1.000  C
  C279     1.0000 0.63470  0.88490  0.96570  Biso   1.000  C
  C280     1.0000 0.36530  0.38490  0.53430  Biso   1.000  C
  C281     1.0000 0.37870  0.15500  0.08090  Biso   1.000  C
  C282     1.0000 0.62130  0.65500  0.41910  Biso   1.000  C
  C283     1.0000 0.62130  0.84500  0.91910  Biso   1.000  C
  C284     1.0000 0.37870  0.34500  0.58090  Biso   1.000  C
  H233     1.0000 0.39020  0.22180  0.08240  Biso   1.000  H
  H234     1.0000 0.60980  0.72180  0.41760  Biso   1.000  H
  H235     1.0000 0.60980  0.77820  0.91760  Biso   1.000  H
  H236     1.0000 0.39020  0.27820  0.58240  Biso   1.000  H
  C285     1.0000 0.37680  0.10450  0.12720  Biso   1.000  C
  C286     1.0000 0.62320  0.60450  0.37280  Biso   1.000  C
  C287     1.0000 0.62320  0.89550  0.87280  Biso   1.000  C
  C288     1.0000 0.37680  0.39550  0.62720  Biso   1.000  C
  H237     1.0000 0.38590  0.13630  0.15880  Biso   1.000  H
  H238     1.0000 0.61410  0.63630  0.34120  Biso   1.000  H
  H239     1.0000 0.61410  0.86370  0.84120  Biso   1.000  H
  H240     1.0000 0.38590  0.36370  0.65880  Biso   1.000  H
  C289     1.0000 0.35980  0.99830  0.12400  Biso   1.000  C
  C290     1.0000 0.64020  0.49830  0.37600  Biso   1.000  C
  C291     1.0000 0.64020  0.00170  0.87600  Biso   1.000  C
  C292     1.0000 0.35980  0.50170  0.62400  Biso   1.000  C
  H241     1.0000 0.35970  0.95980  0.15380  Biso   1.000  H
  H242     1.0000 0.64030  0.45980  0.34620  Biso   1.000  H
  H243     1.0000 0.64030  0.04020  0.84620  Biso   1.000  H
  H244     1.0000 0.35970  0.54020  0.65380  Biso   1.000  H
  C293     1.0000 0.34480  0.95850  0.07840  Biso   1.000  C
  C294     1.0000 0.65520  0.45850  0.42160  Biso   1.000  C
  C295     1.0000 0.65520  0.04150  0.92160  Biso   1.000  C
  C296     1.0000 0.34480  0.54150  0.57840  Biso   1.000  C
  H245     1.0000 0.33230  0.89250  0.07530  Biso   1.000  H
  H246     1.0000 0.66770  0.39250  0.42470  Biso   1.000  H
  H247     1.0000 0.66770  0.10750  0.92470  Biso   1.000  H
  H248     1.0000 0.33230  0.60750  0.57530  Biso   1.000  H
  C297     1.0000 0.34820  0.01700  0.03590  Biso   1.000  C
  C298     1.0000 0.65180  0.51700  0.46410  Biso   1.000  C
  C299     1.0000 0.65180  0.98300  0.96410  Biso   1.000  C
  C300     1.0000 0.34820  0.48300  0.53590  Biso   1.000  C
  H249     1.0000 0.33770  0.98670  0.00420  Biso   1.000  H
  H250     1.0000 0.66230  0.48670  0.49580  Biso   1.000  H
  H251     1.0000 0.66230  0.01330  0.99580  Biso   1.000  H
  H252     1.0000 0.33770  0.51330  0.50420  Biso   1.000  H
  C301     1.0000 0.41890  0.13130  0.95680  Biso   1.000  C
  C302     1.0000 0.58110  0.63130  0.54320  Biso   1.000  C
  C303     1.0000 0.58110  0.86870  0.04320  Biso   1.000  C
  C304     1.0000 0.41890  0.36870  0.45680  Biso   1.000  C
  C305     1.0000 0.41680  0.11920  0.90710  Biso   1.000  C
  C306     1.0000 0.58320  0.61920  0.59290  Biso   1.000  C
  C307     1.0000 0.58320  0.88080  0.09290  Biso   1.000  C
  C308     1.0000 0.41680  0.38080  0.40710  Biso   1.000  C
  H253     1.0000 0.38440  0.12850  0.88680  Biso   1.000  H
  H254     1.0000 0.61560  0.62850  0.61320  Biso   1.000  H
  H255     1.0000 0.61560  0.87150  0.11320  Biso   1.000  H
  H256     1.0000 0.38440  0.37150  0.38680  Biso   1.000  H
  C309     1.0000 0.46270  0.09180  0.88220  Biso   1.000  C
  C310     1.0000 0.53730  0.59180  0.61780  Biso   1.000  C
  C311     1.0000 0.53730  0.90820  0.11780  Biso   1.000  C
  C312     1.0000 0.46270  0.40820  0.38220  Biso   1.000  C
  H257     1.0000 0.46050  0.08280  0.84670  Biso   1.000  H
  H258     1.0000 0.53950  0.58280  0.65330  Biso   1.000  H
  H259     1.0000 0.53950  0.91720  0.15330  Biso   1.000  H
  H260     1.0000 0.46050  0.41720  0.34670  Biso   1.000  H
  C313     1.0000 0.50790  0.08020  0.91230  Biso   1.000  C
  C314     1.0000 0.49210  0.58020  0.58770  Biso   1.000  C
  C315     1.0000 0.49210  0.91980  0.08770  Biso   1.000  C
  C316     1.0000 0.50790  0.41980  0.41230  Biso   1.000  C
  H261     1.0000 0.53830  0.06240  0.89770  Biso   1.000  H
  H262     1.0000 0.46170  0.56240  0.60230  Biso   1.000  H
  H263     1.0000 0.46170  0.93760  0.10230  Biso   1.000  H
  H264     1.0000 0.53830  0.43760  0.39770  Biso   1.000  H
  C317     1.0000 0.51150  0.09430  0.96700  Biso   1.000  C
  C318     1.0000 0.48850  0.59430  0.53300  Biso   1.000  C
  C319     1.0000 0.48850  0.90570  0.03300  Biso   1.000  C
  C320     1.0000 0.51150  0.40570  0.46700  Biso   1.000  C
  H265     1.0000 0.54380  0.08620  0.98770  Biso   1.000  H
  H266     1.0000 0.45620  0.58620  0.51230  Biso   1.000  H
  H267     1.0000 0.45620  0.91380  0.01230  Biso   1.000  H
  H268     1.0000 0.54380  0.41380  0.48770  Biso   1.000  H
  C321     1.0000 0.46770  0.11930  0.98790  Biso   1.000  C
  C322     1.0000 0.53230  0.61930  0.51210  Biso   1.000  C
  C323     1.0000 0.53230  0.88070  0.01210  Biso   1.000  C
  C324     1.0000 0.46770  0.38070  0.48790  Biso   1.000  C
  H269     1.0000 0.46950  0.12890  0.02330  Biso   1.000  H
  H270     1.0000 0.53050  0.62890  0.47670  Biso   1.000  H
  H271     1.0000 0.53050  0.87110  0.97670  Biso   1.000  H
  H272     1.0000 0.46950  0.37110  0.52330  Biso   1.000  H
  C325     1.0000 0.37730  0.29760  0.00270  Biso   1.000  C
  C326     1.0000 0.62270  0.79760  0.49730  Biso   1.000  C
  C327     1.0000 0.62270  0.70240  0.99730  Biso   1.000  C
  C328     1.0000 0.37730  0.20240  0.50270  Biso   1.000  C
  H273     1.0000 0.36090  0.31070  0.03380  Biso   1.000  H
  H274     1.0000 0.63910  0.81070  0.46620  Biso   1.000  H
  H275     1.0000 0.63910  0.68930  0.96620  Biso   1.000  H
  H276     1.0000 0.36090  0.18930  0.53380  Biso   1.000  H
  H277     1.0000 0.41560  0.30150  0.01130  Biso   1.000  H
  H278     1.0000 0.58440  0.80150  0.48870  Biso   1.000  H
  H279     1.0000 0.58440  0.69850  0.98870  Biso   1.000  H
  H280     1.0000 0.41560  0.19850  0.51130  Biso   1.000  H
  C329     1.0000 0.40910  0.38050  0.92200  Biso   1.000  C
  C330     1.0000 0.59090  0.88050  0.57800  Biso   1.000  C
  C331     1.0000 0.59090  0.61950  0.07800  Biso   1.000  C
  C332     1.0000 0.40910  0.11950  0.42200  Biso   1.000  C
  C333     1.0000 0.39230  0.39610  0.86940  Biso   1.000  C
  C334     1.0000 0.60770  0.89610  0.63060  Biso   1.000  C
  C335     1.0000 0.60770  0.60390  0.13060  Biso   1.000  C
  C336     1.0000 0.39230  0.10390  0.36940  Biso   1.000  C
  H281     1.0000 0.35650  0.40750  0.85840  Biso   1.000  H
  H282     1.0000 0.64350  0.90750  0.64160  Biso   1.000  H
  H283     1.0000 0.64350  0.59250  0.14160  Biso   1.000  H
  H284     1.0000 0.35650  0.09250  0.35840  Biso   1.000  H
  C337     1.0000 0.42780  0.39480  0.83470  Biso   1.000  C
  C338     1.0000 0.57220  0.89480  0.66530  Biso   1.000  C
  C339     1.0000 0.57220  0.60520  0.16530  Biso   1.000  C
  C340     1.0000 0.42780  0.10520  0.33470  Biso   1.000  C
  H285     1.0000 0.41660  0.40440  0.79980  Biso   1.000  H
  H286     1.0000 0.58340  0.90440  0.70020  Biso   1.000  H
  H287     1.0000 0.58340  0.59560  0.20020  Biso   1.000  H
  H288     1.0000 0.41660  0.09560  0.29980  Biso   1.000  H
  C341     1.0000 0.47710  0.38000  0.85040  Biso   1.000  C
  C342     1.0000 0.52290  0.88000  0.64960  Biso   1.000  C
  C343     1.0000 0.52290  0.62000  0.14960  Biso   1.000  C
  C344     1.0000 0.47710  0.12000  0.35040  Biso   1.000  C
  H289     1.0000 0.50070  0.37960  0.82580  Biso   1.000  H
  H290     1.0000 0.49930  0.87960  0.67420  Biso   1.000  H
  H291     1.0000 0.49930  0.62040  0.17420  Biso   1.000  H
  H292     1.0000 0.50070  0.12040  0.32580  Biso   1.000  H
  C345     1.0000 0.49770  0.36480  0.90130  Biso   1.000  C
  C346     1.0000 0.50230  0.86480  0.59870  Biso   1.000  C
  C347     1.0000 0.50230  0.63520  0.09870  Biso   1.000  C
  C348     1.0000 0.49770  0.13520  0.40130  Biso   1.000  C
  H293     1.0000 0.53400  0.35510  0.91070  Biso   1.000  H
  H294     1.0000 0.46600  0.85510  0.58930  Biso   1.000  H
  H295     1.0000 0.46600  0.64490  0.08930  Biso   1.000  H
  H296     1.0000 0.53400  0.14490  0.41070  Biso   1.000  H
  C349     1.0000 0.46160  0.36450  0.93770  Biso   1.000  C
  C350     1.0000 0.53840  0.86450  0.56230  Biso   1.000  C
  C351     1.0000 0.53840  0.63550  0.06230  Biso   1.000  C
  C352     1.0000 0.46160  0.13550  0.43770  Biso   1.000  C
  H297     1.0000 0.47330  0.35350  0.97240  Biso   1.000  H
  H298     1.0000 0.52670  0.85350  0.52760  Biso   1.000  H
  H299     1.0000 0.52670  0.64650  0.02760  Biso   1.000  H
  H300     1.0000 0.47330  0.14650  0.47240  Biso   1.000  H
  C353     1.0000 0.37400  0.49460  0.00050  Biso   1.000  C
  C354     1.0000 0.62600  0.99460  0.49950  Biso   1.000  C
  C355     1.0000 0.62600  0.50540  0.99950  Biso   1.000  C
  C356     1.0000 0.37400  0.00540  0.50050  Biso   1.000  C
  C357     1.0000 0.34720  0.51380  0.04190  Biso   1.000  C
  C358     1.0000 0.65280  0.01380  0.45810  Biso   1.000  C
  C359     1.0000 0.65280  0.48620  0.95810  Biso   1.000  C
  C360     1.0000 0.34720  0.98620  0.54190  Biso   1.000  C
  H301     1.0000 0.32370  0.46410  0.05020  Biso   1.000  H
  H302     1.0000 0.67630  0.96410  0.44980  Biso   1.000  H
  H303     1.0000 0.67630  0.53590  0.94980  Biso   1.000  H
  H304     1.0000 0.32370  0.03590  0.55020  Biso   1.000  H
  C361     1.0000 0.35100  0.59600  0.07170  Biso   1.000  C
  C362     1.0000 0.64900  0.09600  0.42830  Biso   1.000  C
  C363     1.0000 0.64900  0.40400  0.92830  Biso   1.000  C
  C364     1.0000 0.35100  0.90400  0.57170  Biso   1.000  C
  H305     1.0000 0.32940  0.60680  0.09760  Biso   1.000  H
  H306     1.0000 0.67060  0.10680  0.40240  Biso   1.000  H
  H307     1.0000 0.67060  0.39320  0.90240  Biso   1.000  H
  H308     1.0000 0.32940  0.89320  0.59760  Biso   1.000  H
  C365     1.0000 0.38690  0.65900  0.06150  Biso   1.000  C
  C366     1.0000 0.61310  0.15900  0.43850  Biso   1.000  C
  C367     1.0000 0.61310  0.34100  0.93850  Biso   1.000  C
  C368     1.0000 0.38690  0.84100  0.56150  Biso   1.000  C
  H309     1.0000 0.39130  0.71560  0.08280  Biso   1.000  H
  H310     1.0000 0.60870  0.21560  0.41720  Biso   1.000  H
  H311     1.0000 0.60870  0.28440  0.91720  Biso   1.000  H
  H312     1.0000 0.39130  0.78440  0.58280  Biso   1.000  H
  C369     1.0000 0.41940  0.65360  0.02350  Biso   1.000  C
  C370     1.0000 0.58060  0.15360  0.47650  Biso   1.000  C
  C371     1.0000 0.58060  0.34640  0.97650  Biso   1.000  C
  C372     1.0000 0.41940  0.84640  0.52350  Biso   1.000  C
  H313     1.0000 0.44330  0.70440  0.01730  Biso   1.000  H
  H314     1.0000 0.55670  0.20440  0.48270  Biso   1.000  H
  H315     1.0000 0.55670  0.29560  0.98270  Biso   1.000  H
  H316     1.0000 0.44330  0.79560  0.51730  Biso   1.000  H
  C373     1.0000 0.41340  0.56290  0.99400  Biso   1.000  C
  C374     1.0000 0.58660  0.06290  0.50600  Biso   1.000  C
  C375     1.0000 0.58660  0.43710  0.00600  Biso   1.000  C
  C376     1.0000 0.41340  0.93710  0.49400  Biso   1.000  C
  H317     1.0000 0.43670  0.54960  0.96990  Biso   1.000  H
  H318     1.0000 0.56330  0.04960  0.53010  Biso   1.000  H
  H319     1.0000 0.56330  0.45040  0.03010  Biso   1.000  H
  H320     1.0000 0.43670  0.95040  0.46990  Biso   1.000  H
  O1       1.0000 0.46460  0.97020  0.76780  Biso   1.000  O
  O2       1.0000 0.53540  0.47020  0.73220  Biso   1.000  O
  O3       1.0000 0.53540  0.02980  0.23220  Biso   1.000  O
  O4       1.0000 0.46460  0.52980  0.26780  Biso   1.000  O
  O5       1.0000 0.36530  0.06670  0.78390  Biso   1.000  O
  O6       1.0000 0.63470  0.56670  0.71610  Biso   1.000  O
  O7       1.0000 0.63470  0.93330  0.21610  Biso   1.000  O
  O8       1.0000 0.36530  0.43330  0.28390  Biso   1.000  O
  C377     1.0000 0.50850  0.91320  0.79380  Biso   1.000  C
  C378     1.0000 0.49150  0.41320  0.70620  Biso   1.000  C
  C379     1.0000 0.49150  0.08680  0.20620  Biso   1.000  C
  C380     1.0000 0.50850  0.58680  0.29380  Biso   1.000  C
  H321     1.0000 0.54110  0.94940  0.79190  Biso   1.000  H
  H322     1.0000 0.45890  0.44940  0.70810  Biso   1.000  H
  H323     1.0000 0.45890  0.05060  0.20810  Biso   1.000  H
  H324     1.0000 0.54110  0.55060  0.29190  Biso   1.000  H
  H325     1.0000 0.51040  0.84860  0.77750  Biso   1.000  H
  H326     1.0000 0.48960  0.34860  0.72250  Biso   1.000  H
  H327     1.0000 0.48960  0.15140  0.22250  Biso   1.000  H
  H328     1.0000 0.51040  0.65140  0.27750  Biso   1.000  H
  H329     1.0000 0.50320  0.90390  0.82930  Biso   1.000  H
  H330     1.0000 0.49680  0.40390  0.67070  Biso   1.000  H
  H331     1.0000 0.49680  0.09610  0.17070  Biso   1.000  H
  H332     1.0000 0.50320  0.59610  0.32930  Biso   1.000  H
  C381     1.0000 0.42020  0.91700  0.78600  Biso   1.000  C
  C382     1.0000 0.57980  0.41700  0.71400  Biso   1.000  C
  C383     1.0000 0.57980  0.08300  0.21400  Biso   1.000  C
  C384     1.0000 0.42020  0.58300  0.28600  Biso   1.000  C
  H333     1.0000 0.42020  0.92410  0.82290  Biso   1.000  H
  H334     1.0000 0.57980  0.42410  0.67710  Biso   1.000  H
  H335     1.0000 0.57980  0.07590  0.17710  Biso   1.000  H
  H336     1.0000 0.42020  0.57590  0.32290  Biso   1.000  H
  H337     1.0000 0.42020  0.84590  0.77700  Biso   1.000  H
  H338     1.0000 0.57980  0.34590  0.72300  Biso   1.000  H
  H339     1.0000 0.57980  0.15410  0.22300  Biso   1.000  H
  H340     1.0000 0.42020  0.65410  0.27700  Biso   1.000  H
  C385     1.0000 0.37330  0.97370  0.75570  Biso   1.000  C
  C386     1.0000 0.62670  0.47370  0.74430  Biso   1.000  C
  C387     1.0000 0.62670  0.02630  0.24430  Biso   1.000  C
  C388     1.0000 0.37330  0.52630  0.25570  Biso   1.000  C
  H341     1.0000 0.38130  0.98930  0.72120  Biso   1.000  H
  H342     1.0000 0.61870  0.48930  0.77880  Biso   1.000  H
  H343     1.0000 0.61870  0.01070  0.27880  Biso   1.000  H
  H344     1.0000 0.38130  0.51070  0.22120  Biso   1.000  H
  H345     1.0000 0.34150  0.93250  0.75310  Biso   1.000  H
  H346     1.0000 0.65850  0.43250  0.74690  Biso   1.000  H
  H347     1.0000 0.65850  0.06750  0.24690  Biso   1.000  H
  H348     1.0000 0.34150  0.56750  0.25310  Biso   1.000  H
  C389     1.0000 0.38770  0.14780  0.75440  Biso   1.000  C
  C390     1.0000 0.61230  0.64780  0.74560  Biso   1.000  C
  C391     1.0000 0.61230  0.85220  0.24560  Biso   1.000  C
  C392     1.0000 0.38770  0.35220  0.25440  Biso   1.000  C
  H349     1.0000 0.42560  0.14930  0.76270  Biso   1.000  H
  H350     1.0000 0.57440  0.64930  0.73730  Biso   1.000  H
  H351     1.0000 0.57440  0.85070  0.23730  Biso   1.000  H
  H352     1.0000 0.42560  0.35070  0.26270  Biso   1.000  H
  H353     1.0000 0.37300  0.21150  0.76300  Biso   1.000  H
  H354     1.0000 0.62700  0.71150  0.73700  Biso   1.000  H
  H355     1.0000 0.62700  0.78850  0.23700  Biso   1.000  H
  H356     1.0000 0.37300  0.28850  0.26300  Biso   1.000  H
  H357     1.0000 0.37900  0.13530  0.71820  Biso   1.000  H
  H358     1.0000 0.62100  0.63530  0.78180  Biso   1.000  H
  H359     1.0000 0.62100  0.86470  0.28180  Biso   1.000  H
  H360     1.0000 0.37900  0.36470  0.21820  Biso   1.000  H
  O9       1.0000 0.47490  0.13570  0.61140  Biso   1.000  O
  O10      1.0000 0.52510  0.63570  0.88860  Biso   1.000  O
  O11      1.0000 0.52510  0.86430  0.38860  Biso   1.000  O
  O12      1.0000 0.47490  0.36430  0.11140  Biso   1.000  O
  O13      1.0000 0.53660  0.28980  0.58540  Biso   1.000  O
  O14      1.0000 0.46340  0.78980  0.91460  Biso   1.000  O
  O15      1.0000 0.46340  0.71020  0.41460  Biso   1.000  O
  O16      1.0000 0.53660  0.21020  0.08540  Biso   1.000  O
  C393     1.0000 0.42870  0.10300  0.63570  Biso   1.000  C
  C394     1.0000 0.57130  0.60300  0.86430  Biso   1.000  C
  C395     1.0000 0.57130  0.89700  0.36430  Biso   1.000  C
  C396     1.0000 0.42870  0.39700  0.13570  Biso   1.000  C
  H361     1.0000 0.43250  0.03330  0.64500  Biso   1.000  H
  H362     1.0000 0.56750  0.53330  0.85500  Biso   1.000  H
  H363     1.0000 0.56750  0.96670  0.35500  Biso   1.000  H
  H364     1.0000 0.43250  0.46670  0.14500  Biso   1.000  H
  H365     1.0000 0.39710  0.11240  0.61200  Biso   1.000  H
  H366     1.0000 0.60290  0.61240  0.88800  Biso   1.000  H
  H367     1.0000 0.60290  0.88760  0.38800  Biso   1.000  H
  H368     1.0000 0.39710  0.38760  0.11200  Biso   1.000  H
  H369     1.0000 0.42630  0.14290  0.66610  Biso   1.000  H
  H370     1.0000 0.57370  0.64290  0.83390  Biso   1.000  H
  H371     1.0000 0.57370  0.85710  0.33390  Biso   1.000  H
  H372     1.0000 0.42630  0.35710  0.16610  Biso   1.000  H
  C397     1.0000 0.48930  0.22100  0.64190  Biso   1.000  C
  C398     1.0000 0.51070  0.72100  0.85810  Biso   1.000  C
  C399     1.0000 0.51070  0.77900  0.35810  Biso   1.000  C
  C400     1.0000 0.48930  0.27900  0.14190  Biso   1.000  C
  H373     1.0000 0.48860  0.20960  0.67840  Biso   1.000  H
  H374     1.0000 0.51140  0.70960  0.82160  Biso   1.000  H
  H375     1.0000 0.51140  0.79040  0.32160  Biso   1.000  H
  H376     1.0000 0.48860  0.29040  0.17840  Biso   1.000  H
  H377     1.0000 0.46870  0.28090  0.63080  Biso   1.000  H
  H378     1.0000 0.53130  0.78090  0.86920  Biso   1.000  H
  H379     1.0000 0.53130  0.71910  0.36920  Biso   1.000  H
  H380     1.0000 0.46870  0.21910  0.13080  Biso   1.000  H
  C401     1.0000 0.54460  0.22300  0.62640  Biso   1.000  C
  C402     1.0000 0.45540  0.72300  0.87360  Biso   1.000  C
  C403     1.0000 0.45540  0.77700  0.37360  Biso   1.000  C
  C404     1.0000 0.54460  0.27700  0.12640  Biso   1.000  C
  H381     1.0000 0.57030  0.24850  0.65380  Biso   1.000  H
  H382     1.0000 0.42970  0.74850  0.84620  Biso   1.000  H
  H383     1.0000 0.42970  0.75150  0.34620  Biso   1.000  H
  H384     1.0000 0.57030  0.25150  0.15380  Biso   1.000  H
  H385     1.0000 0.55560  0.15700  0.61570  Biso   1.000  H
  H386     1.0000 0.44440  0.65700  0.88430  Biso   1.000  H
  H387     1.0000 0.44440  0.84300  0.38430  Biso   1.000  H
  H388     1.0000 0.55560  0.34300  0.11570  Biso   1.000  H
  C405     1.0000 0.58360  0.34700  0.58130  Biso   1.000  C
  C406     1.0000 0.41640  0.84700  0.91870  Biso   1.000  C
  C407     1.0000 0.41640  0.65300  0.41870  Biso   1.000  C
  C408     1.0000 0.58360  0.15300  0.08130  Biso   1.000  C
  H389     1.0000 0.57410  0.41240  0.56740  Biso   1.000  H
  H390     1.0000 0.42590  0.91240  0.93260  Biso   1.000  H
  H391     1.0000 0.42590  0.58760  0.43260  Biso   1.000  H
  H392     1.0000 0.57410  0.08760  0.06740  Biso   1.000  H
  H393     1.0000 0.60510  0.31250  0.55890  Biso   1.000  H
  H394     1.0000 0.39490  0.81250  0.94110  Biso   1.000  H
  H395     1.0000 0.39490  0.68750  0.44110  Biso   1.000  H
  H396     1.0000 0.60510  0.18750  0.05890  Biso   1.000  H
  H397     1.0000 0.60330  0.35420  0.61480  Biso   1.000  H
  H398     1.0000 0.39670  0.85420  0.88520  Biso   1.000  H
  H399     1.0000 0.39670  0.64580  0.38520  Biso   1.000  H
  H400     1.0000 0.60330  0.14580  0.11480  Biso   1.000  H
  C409     1.0000 0.43690  0.78300  0.22060  Biso   1.000  C
  C410     1.0000 0.56310  0.28300  0.27940  Biso   1.000  C
  C411     1.0000 0.56310  0.21700  0.77940  Biso   1.000  C
  C412     1.0000 0.43690  0.71700  0.72060  Biso   1.000  C
  C413     1.0000 0.40560  0.70570  0.19970  Biso   1.000  C
  C414     1.0000 0.59440  0.20570  0.30030  Biso   1.000  C
  C415     1.0000 0.59440  0.29430  0.80030  Biso   1.000  C
  C416     1.0000 0.40560  0.79430  0.69970  Biso   1.000  C
  C417     1.0000 0.35280  0.69970  0.20720  Biso   1.000  C
  C418     1.0000 0.64720  0.19970  0.29280  Biso   1.000  C
  C419     1.0000 0.64720  0.30030  0.79280  Biso   1.000  C
  C420     1.0000 0.35280  0.80030  0.70720  Biso   1.000  C
  C421     1.0000 0.10650  0.63540  0.25450  Biso   1.000  C
  C422     1.0000 0.89350  0.13540  0.24550  Biso   1.000  C
  C423     1.0000 0.89350  0.36460  0.74550  Biso   1.000  C
  C424     1.0000 0.10650  0.86460  0.75450  Biso   1.000  C
  C425     1.0000 0.05160  0.63160  0.25900  Biso   1.000  C
  C426     1.0000 0.94840  0.13160  0.24100  Biso   1.000  C
  C427     1.0000 0.94840  0.36840  0.74100  Biso   1.000  C
  C428     1.0000 0.05160  0.86840  0.75900  Biso   1.000  C
  C429     1.0000 0.03470  0.62690  0.30770  Biso   1.000  C
  C430     1.0000 0.96530  0.12690  0.19230  Biso   1.000  C
  C431     1.0000 0.96530  0.37310  0.69230  Biso   1.000  C
  C432     1.0000 0.03470  0.87310  0.80770  Biso   1.000  C
  C433     1.0000 0.07310  0.62630  0.34840  Biso   1.000  C
  C434     1.0000 0.92690  0.12630  0.15160  Biso   1.000  C
  C435     1.0000 0.92690  0.37370  0.65160  Biso   1.000  C
  C436     1.0000 0.07310  0.87370  0.84840  Biso   1.000  C
  C437     1.0000 0.12430  0.63030  0.34200  Biso   1.000  C
  C438     1.0000 0.87570  0.13030  0.15800  Biso   1.000  C
  C439     1.0000 0.87570  0.36970  0.65800  Biso   1.000  C
  C440     1.0000 0.12430  0.86970  0.84200  Biso   1.000  C
  C441     1.0000 0.14100  0.63470  0.29600  Biso   1.000  C
  C442     1.0000 0.85900  0.13470  0.20400  Biso   1.000  C
  C443     1.0000 0.85900  0.36530  0.70400  Biso   1.000  C
  C444     1.0000 0.14100  0.86530  0.79600  Biso   1.000  C
  C445     1.0000 0.09180  0.54560  0.13920  Biso   1.000  C
  C446     1.0000 0.90820  0.04560  0.36080  Biso   1.000  C
  C447     1.0000 0.90820  0.45440  0.86080  Biso   1.000  C
  C448     1.0000 0.09180  0.95440  0.63920  Biso   1.000  C
  C449     1.0000 0.03990  0.56110  0.11050  Biso   1.000  C
  C450     1.0000 0.96010  0.06110  0.38950  Biso   1.000  C
  C451     1.0000 0.96010  0.43890  0.88950  Biso   1.000  C
  C452     1.0000 0.03990  0.93890  0.61050  Biso   1.000  C
  C453     1.0000 0.02180  0.49100  0.07720  Biso   1.000  C
  C454     1.0000 0.97820  0.99100  0.42280  Biso   1.000  C
  C455     1.0000 0.97820  0.50900  0.92280  Biso   1.000  C
  C456     1.0000 0.02180  0.00900  0.57720  Biso   1.000  C
  C457     1.0000 0.05130  0.41010  0.06650  Biso   1.000  C
  C458     1.0000 0.94870  0.91010  0.43350  Biso   1.000  C
  C459     1.0000 0.94870  0.58990  0.93350  Biso   1.000  C
  C460     1.0000 0.05130  0.08990  0.56650  Biso   1.000  C
  C461     1.0000 0.09750  0.39150  0.09330  Biso   1.000  C
  C462     1.0000 0.90250  0.89150  0.40670  Biso   1.000  C
  C463     1.0000 0.90250  0.60850  0.90670  Biso   1.000  C
  C464     1.0000 0.09750  0.10850  0.59330  Biso   1.000  C
  C465     1.0000 0.11680  0.45940  0.13120  Biso   1.000  C
  C466     1.0000 0.88320  0.95940  0.36880  Biso   1.000  C
  C467     1.0000 0.88320  0.54060  0.86880  Biso   1.000  C
  C468     1.0000 0.11680  0.04060  0.63120  Biso   1.000  C
  C469     1.0000 0.10070  0.87030  0.25200  Biso   1.000  C
  C470     1.0000 0.89930  0.37030  0.24800  Biso   1.000  C
  C471     1.0000 0.89930  0.12970  0.74800  Biso   1.000  C
  C472     1.0000 0.10070  0.62970  0.75200  Biso   1.000  C
  C473     1.0000 0.13580  0.87000  0.29310  Biso   1.000  C
  C474     1.0000 0.86420  0.37000  0.20690  Biso   1.000  C
  C475     1.0000 0.86420  0.13000  0.70690  Biso   1.000  C
  C476     1.0000 0.13580  0.63000  0.79310  Biso   1.000  C
  C477     1.0000 0.11990  0.87310  0.34190  Biso   1.000  C
  C478     1.0000 0.88010  0.37310  0.15810  Biso   1.000  C
  C479     1.0000 0.88010  0.12690  0.65810  Biso   1.000  C
  C480     1.0000 0.11990  0.62690  0.84190  Biso   1.000  C
  C481     1.0000 0.06770  0.88010  0.34510  Biso   1.000  C
  C482     1.0000 0.93230  0.38010  0.15490  Biso   1.000  C
  C483     1.0000 0.93230  0.11990  0.65490  Biso   1.000  C
  C484     1.0000 0.06770  0.61990  0.84510  Biso   1.000  C
  C485     1.0000 0.03070  0.88220  0.30310  Biso   1.000  C
  C486     1.0000 0.96930  0.38220  0.19690  Biso   1.000  C
  C487     1.0000 0.96930  0.11780  0.69690  Biso   1.000  C
  C488     1.0000 0.03070  0.61780  0.80310  Biso   1.000  C
  C489     1.0000 0.04760  0.88100  0.25540  Biso   1.000  C
  C490     1.0000 0.95240  0.38100  0.24460  Biso   1.000  C
  C491     1.0000 0.95240  0.11900  0.74460  Biso   1.000  C
  C492     1.0000 0.04760  0.61900  0.75540  Biso   1.000  C
  C493     1.0000 0.08490  0.95720  0.13540  Biso   1.000  C
  C494     1.0000 0.91510  0.45720  0.36460  Biso   1.000  C
  C495     1.0000 0.91510  0.04280  0.86460  Biso   1.000  C
  C496     1.0000 0.08490  0.54280  0.63540  Biso   1.000  C
  C497     1.0000 0.11160  0.04870  0.12740  Biso   1.000  C
  C498     1.0000 0.88840  0.54870  0.37260  Biso   1.000  C
  C499     1.0000 0.88840  0.95130  0.87260  Biso   1.000  C
  C500     1.0000 0.11160  0.45130  0.62740  Biso   1.000  C
  C501     1.0000 0.08880  0.11240  0.08840  Biso   1.000  C
  C502     1.0000 0.91120  0.61240  0.41160  Biso   1.000  C
  C503     1.0000 0.91120  0.88760  0.91160  Biso   1.000  C
  C504     1.0000 0.08880  0.38760  0.58840  Biso   1.000  C
  C505     1.0000 0.04260  0.08890  0.06200  Biso   1.000  C
  C506     1.0000 0.95740  0.58890  0.43800  Biso   1.000  C
  C507     1.0000 0.95740  0.91110  0.93800  Biso   1.000  C
  C508     1.0000 0.04260  0.41110  0.56200  Biso   1.000  C
  C509     1.0000 0.01670  0.00620  0.07160  Biso   1.000  C
  C510     1.0000 0.98330  0.50620  0.42840  Biso   1.000  C
  C511     1.0000 0.98330  0.99380  0.92840  Biso   1.000  C
  C512     1.0000 0.01670  0.49380  0.57160  Biso   1.000  C
  C513     1.0000 0.03840  0.94240  0.10930  Biso   1.000  C
  C514     1.0000 0.96160  0.44240  0.39070  Biso   1.000  C
  C515     1.0000 0.96160  0.05760  0.89070  Biso   1.000  C
  C516     1.0000 0.03840  0.55760  0.60930  Biso   1.000  C
  C517     1.0000 0.13920  0.19700  0.93530  Biso   1.000  C
  C518     1.0000 0.86080  0.69700  0.56470  Biso   1.000  C
  C519     1.0000 0.86080  0.80300  0.06470  Biso   1.000  C
  C520     1.0000 0.13920  0.30300  0.43530  Biso   1.000  C
  C521     1.0000 0.08520  0.18620  0.92200  Biso   1.000  C
  C522     1.0000 0.91480  0.68620  0.57800  Biso   1.000  C
  C523     1.0000 0.91480  0.81380  0.07800  Biso   1.000  C
  C524     1.0000 0.08520  0.31380  0.42200  Biso   1.000  C
  C525     1.0000 0.05110  0.24140  0.94460  Biso   1.000  C
  C526     1.0000 0.94890  0.74140  0.55540  Biso   1.000  C
  C527     1.0000 0.94890  0.75860  0.05540  Biso   1.000  C
  C528     1.0000 0.05110  0.25860  0.44460  Biso   1.000  C
  C529     1.0000 0.06970  0.31120  0.97910  Biso   1.000  C
  C530     1.0000 0.93030  0.81120  0.52090  Biso   1.000  C
  C531     1.0000 0.93030  0.68880  0.02090  Biso   1.000  C
  C532     1.0000 0.06970  0.18880  0.47910  Biso   1.000  C
  C533     1.0000 0.12140  0.31960  0.99540  Biso   1.000  C
  C534     1.0000 0.87860  0.81960  0.50460  Biso   1.000  C
  C535     1.0000 0.87860  0.68040  0.00460  Biso   1.000  C
  C536     1.0000 0.12140  0.18040  0.49540  Biso   1.000  C
  C537     1.0000 0.16830  0.17180  0.80680  Biso   1.000  C
  C538     1.0000 0.83170  0.67180  0.69320  Biso   1.000  C
  C539     1.0000 0.83170  0.82820  0.19320  Biso   1.000  C
  C540     1.0000 0.16830  0.32820  0.30680  Biso   1.000  C
  C541     1.0000 0.11640  0.17310  0.78410  Biso   1.000  C
  C542     1.0000 0.88360  0.67310  0.71590  Biso   1.000  C
  C543     1.0000 0.88360  0.82690  0.21590  Biso   1.000  C
  C544     1.0000 0.11640  0.32690  0.28410  Biso   1.000  C
  C545     1.0000 0.10940  0.34330  0.80790  Biso   1.000  C
  C546     1.0000 0.89060  0.84330  0.69210  Biso   1.000  C
  C547     1.0000 0.89060  0.65670  0.19210  Biso   1.000  C
  C548     1.0000 0.10940  0.15670  0.30790  Biso   1.000  C
  C549     1.0000 0.16050  0.34420  0.82750  Biso   1.000  C
  C550     1.0000 0.83950  0.84420  0.67250  Biso   1.000  C
  C551     1.0000 0.83950  0.65580  0.17250  Biso   1.000  C
  C552     1.0000 0.16050  0.15580  0.32750  Biso   1.000  C
  C553     1.0000 0.36140  0.08410  0.03570  Biso   1.000  C
  C554     1.0000 0.63860  0.58410  0.46430  Biso   1.000  C
  C555     1.0000 0.63860  0.91590  0.96430  Biso   1.000  C
  C556     1.0000 0.36140  0.41590  0.53570  Biso   1.000  C
  C557     1.0000 0.37710  0.10790  0.08600  Biso   1.000  C
  C558     1.0000 0.62290  0.60790  0.41400  Biso   1.000  C
  C559     1.0000 0.62290  0.89210  0.91400  Biso   1.000  C
  C560     1.0000 0.37710  0.39210  0.58600  Biso   1.000  C
  C561     1.0000 0.36980  0.04300  0.12640  Biso   1.000  C
  C562     1.0000 0.63020  0.54300  0.37360  Biso   1.000  C
  C563     1.0000 0.63020  0.95700  0.87360  Biso   1.000  C
  C564     1.0000 0.36980  0.45700  0.62640  Biso   1.000  C
  C565     1.0000 0.35630  0.94400  0.11190  Biso   1.000  C
  C566     1.0000 0.64370  0.44400  0.38810  Biso   1.000  C
  C567     1.0000 0.64370  0.05600  0.88810  Biso   1.000  C
  C568     1.0000 0.35630  0.55600  0.61190  Biso   1.000  C
  C569     1.0000 0.34350  0.91780  0.06220  Biso   1.000  C
  C570     1.0000 0.65650  0.41780  0.43780  Biso   1.000  C
  C571     1.0000 0.65650  0.08220  0.93780  Biso   1.000  C
  C572     1.0000 0.34350  0.58220  0.56220  Biso   1.000  C
  C573     1.0000 0.34620  0.98550  0.02400  Biso   1.000  C
  C574     1.0000 0.65380  0.48550  0.47600  Biso   1.000  C
  C575     1.0000 0.65380  0.01450  0.97600  Biso   1.000  C
  C576     1.0000 0.34620  0.51450  0.52400  Biso   1.000  C
  C577     1.0000 0.41110  0.14190  0.93950  Biso   1.000  C
  C578     1.0000 0.58890  0.64190  0.56050  Biso   1.000  C
  C579     1.0000 0.58890  0.85810  0.06050  Biso   1.000  C
  C580     1.0000 0.41110  0.35810  0.43950  Biso   1.000  C
  C581     1.0000 0.40410  0.12660  0.88780  Biso   1.000  C
  C582     1.0000 0.59590  0.62660  0.61220  Biso   1.000  C
  C583     1.0000 0.59590  0.87340  0.11220  Biso   1.000  C
  C584     1.0000 0.40410  0.37340  0.38780  Biso   1.000  C
  C585     1.0000 0.44500  0.10560  0.86070  Biso   1.000  C
  C586     1.0000 0.55500  0.60560  0.63930  Biso   1.000  C
  C587     1.0000 0.55500  0.89440  0.13930  Biso   1.000  C
  C588     1.0000 0.44500  0.39440  0.36070  Biso   1.000  C
  C589     1.0000 0.49230  0.09240  0.88400  Biso   1.000  C
  C590     1.0000 0.50770  0.59240  0.61600  Biso   1.000  C
  C591     1.0000 0.50770  0.90760  0.11600  Biso   1.000  C
  C592     1.0000 0.49230  0.40760  0.38400  Biso   1.000  C
  C593     1.0000 0.50580  0.10150  0.93790  Biso   1.000  C
  C594     1.0000 0.49420  0.60150  0.56210  Biso   1.000  C
  C595     1.0000 0.49420  0.89850  0.06210  Biso   1.000  C
  C596     1.0000 0.50580  0.39850  0.43790  Biso   1.000  C
  C597     1.0000 0.46120  0.12920  0.96480  Biso   1.000  C
  C598     1.0000 0.53880  0.62920  0.53520  Biso   1.000  C
  C599     1.0000 0.53880  0.87080  0.03520  Biso   1.000  C
  C600     1.0000 0.46120  0.37080  0.46480  Biso   1.000  C
  C601     1.0000 0.39580  0.38870  0.89650  Biso   1.000  C
  C602     1.0000 0.60420  0.88870  0.60350  Biso   1.000  C
  C603     1.0000 0.60420  0.61130  0.10350  Biso   1.000  C
  C604     1.0000 0.39580  0.11130  0.39650  Biso   1.000  C
  C605     1.0000 0.37380  0.39690  0.84480  Biso   1.000  C
  C606     1.0000 0.62620  0.89690  0.65520  Biso   1.000  C
  C607     1.0000 0.62620  0.60310  0.15520  Biso   1.000  C
  C608     1.0000 0.37380  0.10310  0.34480  Biso   1.000  C
  C609     1.0000 0.40520  0.39540  0.80490  Biso   1.000  C
  C610     1.0000 0.59480  0.89540  0.69510  Biso   1.000  C
  C611     1.0000 0.59480  0.60460  0.19510  Biso   1.000  C
  C612     1.0000 0.40520  0.10460  0.30490  Biso   1.000  C
  C613     1.0000 0.45680  0.38300  0.81640  Biso   1.000  C
  C614     1.0000 0.54320  0.88300  0.68360  Biso   1.000  C
  C615     1.0000 0.54320  0.61700  0.18360  Biso   1.000  C
  C616     1.0000 0.45680  0.11700  0.31640  Biso   1.000  C
  C617     1.0000 0.48450  0.37490  0.86800  Biso   1.000  C
  C618     1.0000 0.51550  0.87490  0.63200  Biso   1.000  C
  C619     1.0000 0.51550  0.62510  0.13200  Biso   1.000  C
  C620     1.0000 0.48450  0.12510  0.36800  Biso   1.000  C
  C621     1.0000 0.44690  0.37930  0.90790  Biso   1.000  C
  C622     1.0000 0.55310  0.87930  0.59210  Biso   1.000  C
  C623     1.0000 0.55310  0.62070  0.09210  Biso   1.000  C
  C624     1.0000 0.44690  0.12070  0.40790  Biso   1.000  C
  C625     1.0000 0.36770  0.51910  0.97380  Biso   1.000  C
  C626     1.0000 0.63230  0.01910  0.52620  Biso   1.000  C
  C627     1.0000 0.63230  0.48090  0.02620  Biso   1.000  C
  C628     1.0000 0.36770  0.98090  0.47380  Biso   1.000  C
  C629     1.0000 0.36750  0.83840  0.26130  Biso   1.000  C
  C630     1.0000 0.63250  0.33840  0.23870  Biso   1.000  C
  C631     1.0000 0.63250  0.16160  0.73870  Biso   1.000  C
  C632     1.0000 0.36750  0.66160  0.76130  Biso   1.000  C
  C633     1.0000 0.33720  0.54710  0.01250  Biso   1.000  C
  C634     1.0000 0.66280  0.04710  0.48750  Biso   1.000  C
  C635     1.0000 0.66280  0.45290  0.98750  Biso   1.000  C
  C636     1.0000 0.33720  0.95290  0.51250  Biso   1.000  C
  C637     1.0000 0.34230  0.64050  0.03590  Biso   1.000  C
  C638     1.0000 0.65770  0.14050  0.46410  Biso   1.000  C
  C639     1.0000 0.65770  0.35950  0.96410  Biso   1.000  C
  C640     1.0000 0.34230  0.85950  0.53590  Biso   1.000  C
  C641     1.0000 0.37710  0.70110  0.01930  Biso   1.000  C
  C642     1.0000 0.62290  0.20110  0.48070  Biso   1.000  C
  C643     1.0000 0.62290  0.29890  0.98070  Biso   1.000  C
  C644     1.0000 0.37710  0.79890  0.51930  Biso   1.000  C
  C645     1.0000 0.40870  0.67590  0.98130  Biso   1.000  C
  C646     1.0000 0.59130  0.17590  0.51870  Biso   1.000  C
  C647     1.0000 0.59130  0.32410  0.01870  Biso   1.000  C
  C648     1.0000 0.40870  0.82410  0.48130  Biso   1.000  C
  C649     1.0000 0.40170  0.58630  0.95950  Biso   1.000  C
  C650     1.0000 0.59830  0.08630  0.54050  Biso   1.000  C
  C651     1.0000 0.59830  0.41370  0.04050  Biso   1.000  C
  C652     1.0000 0.40170  0.91370  0.45950  Biso   1.000  C
  C653     1.0000 0.41310  0.85890  0.25050  Biso   1.000  C
  C654     1.0000 0.58690  0.35890  0.24950  Biso   1.000  C
  C655     1.0000 0.58690  0.14110  0.74950  Biso   1.000  C
  C656     1.0000 0.41310  0.64110  0.75050  Biso   1.000  C
  H401     1.0000 0.47260  0.78680  0.21570  Biso   1.000  H
  H402     1.0000 0.52740  0.28680  0.28430  Biso   1.000  H
  H403     1.0000 0.52740  0.21320  0.78430  Biso   1.000  H
  H404     1.0000 0.47260  0.71320  0.71570  Biso   1.000  H
  H405     1.0000 0.42030  0.65660  0.18010  Biso   1.000  H
  H406     1.0000 0.57970  0.15660  0.31990  Biso   1.000  H
  H407     1.0000 0.57970  0.34340  0.81990  Biso   1.000  H
  H408     1.0000 0.42030  0.84340  0.68010  Biso   1.000  H
  H409     1.0000 0.33310  0.64220  0.19710  Biso   1.000  H
  H410     1.0000 0.66690  0.14220  0.30290  Biso   1.000  H
  H411     1.0000 0.66690  0.35780  0.80290  Biso   1.000  H
  H412     1.0000 0.33310  0.85780  0.69710  Biso   1.000  H
  H413     1.0000 0.02690  0.63230  0.22970  Biso   1.000  H
  H414     1.0000 0.97310  0.13230  0.27030  Biso   1.000  H
  H415     1.0000 0.97310  0.36770  0.77030  Biso   1.000  H
  H416     1.0000 0.02690  0.86770  0.72970  Biso   1.000  H
  H417     1.0000 0.99870  0.62420  0.31210  Biso   1.000  H
  H418     1.0000 0.00130  0.12420  0.18790  Biso   1.000  H
  H419     1.0000 0.00130  0.37580  0.68790  Biso   1.000  H
  H420     1.0000 0.99870  0.87580  0.81210  Biso   1.000  H
  H421     1.0000 0.06340  0.62310  0.38170  Biso   1.000  H
  H422     1.0000 0.93660  0.12310  0.11830  Biso   1.000  H
  H423     1.0000 0.93660  0.37690  0.61830  Biso   1.000  H
  H424     1.0000 0.06340  0.87690  0.88170  Biso   1.000  H
  H425     1.0000 0.14940  0.63010  0.37110  Biso   1.000  H
  H426     1.0000 0.85060  0.13010  0.12890  Biso   1.000  H
  H427     1.0000 0.85060  0.36990  0.62890  Biso   1.000  H
  H428     1.0000 0.14940  0.86990  0.87110  Biso   1.000  H
  H429     1.0000 0.17720  0.63720  0.29310  Biso   1.000  H
  H430     1.0000 0.82280  0.13720  0.20690  Biso   1.000  H
  H431     1.0000 0.82280  0.36280  0.70690  Biso   1.000  H
  H432     1.0000 0.17720  0.86280  0.79310  Biso   1.000  H
  H433     1.0000 0.02000  0.61870  0.11550  Biso   1.000  H
  H434     1.0000 0.98000  0.11870  0.38450  Biso   1.000  H
  H435     1.0000 0.98000  0.38130  0.88450  Biso   1.000  H
  H436     1.0000 0.02000  0.88130  0.61550  Biso   1.000  H
  H437     1.0000 0.98740  0.49740  0.06040  Biso   1.000  H
  H438     1.0000 0.01260  0.99740  0.43960  Biso   1.000  H
  H439     1.0000 0.01260  0.50260  0.93960  Biso   1.000  H
  H440     1.0000 0.98740  0.00260  0.56040  Biso   1.000  H
  H441     1.0000 0.03860  0.36690  0.03970  Biso   1.000  H
  H442     1.0000 0.96140  0.86690  0.46030  Biso   1.000  H
  H443     1.0000 0.96140  0.63310  0.96030  Biso   1.000  H
  H444     1.0000 0.03860  0.13310  0.53970  Biso   1.000  H
  H445     1.0000 0.11680  0.33410  0.08700  Biso   1.000  H
  H446     1.0000 0.88320  0.83410  0.41300  Biso   1.000  H
  H447     1.0000 0.88320  0.66590  0.91300  Biso   1.000  H
  H448     1.0000 0.11680  0.16590  0.58700  Biso   1.000  H
  H449     1.0000 0.14830  0.44440  0.15190  Biso   1.000  H
  H450     1.0000 0.85170  0.94440  0.34810  Biso   1.000  H
  H451     1.0000 0.85170  0.55560  0.84810  Biso   1.000  H
  H452     1.0000 0.14830  0.05560  0.65190  Biso   1.000  H
  H453     1.0000 0.17190  0.86770  0.28940  Biso   1.000  H
  H454     1.0000 0.82810  0.36770  0.21060  Biso   1.000  H
  H455     1.0000 0.82810  0.13230  0.71060  Biso   1.000  H
  H456     1.0000 0.17190  0.63230  0.78940  Biso   1.000  H
  H457     1.0000 0.14440  0.87030  0.37140  Biso   1.000  H
  H458     1.0000 0.85560  0.37030  0.12860  Biso   1.000  H
  H459     1.0000 0.85560  0.12970  0.62860  Biso   1.000  H
  H460     1.0000 0.14440  0.62970  0.87140  Biso   1.000  H
  H461     1.0000 0.05630  0.88380  0.37760  Biso   1.000  H
  H462     1.0000 0.94370  0.38380  0.12240  Biso   1.000  H
  H463     1.0000 0.94370  0.11620  0.62240  Biso   1.000  H
  H464     1.0000 0.05630  0.61620  0.87760  Biso   1.000  H
  H465     1.0000 0.99470  0.88440  0.30670  Biso   1.000  H
  H466     1.0000 0.00530  0.38440  0.19330  Biso   1.000  H
  H467     1.0000 0.00530  0.11560  0.69330  Biso   1.000  H
  H468     1.0000 0.99470  0.61560  0.80670  Biso   1.000  H
  H469     1.0000 0.02350  0.88730  0.22580  Biso   1.000  H
  H470     1.0000 0.97650  0.38730  0.27420  Biso   1.000  H
  H471     1.0000 0.97650  0.11270  0.77420  Biso   1.000  H
  H472     1.0000 0.02350  0.61270  0.72580  Biso   1.000  H
  H473     1.0000 0.14320  0.06570  0.14750  Biso   1.000  H
  H474     1.0000 0.85680  0.56570  0.35250  Biso   1.000  H
  H475     1.0000 0.85680  0.93430  0.85250  Biso   1.000  H
  H476     1.0000 0.14320  0.43430  0.64750  Biso   1.000  H
  H477     1.0000 0.10610  0.17170  0.08090  Biso   1.000  H
  H478     1.0000 0.89390  0.67170  0.41910  Biso   1.000  H
  H479     1.0000 0.89390  0.82830  0.91910  Biso   1.000  H
  H480     1.0000 0.10610  0.32830  0.58090  Biso   1.000  H
  H481     1.0000 0.02810  0.13190  0.03590  Biso   1.000  H
  H482     1.0000 0.97190  0.63190  0.46410  Biso   1.000  H
  H483     1.0000 0.97190  0.86810  0.96410  Biso   1.000  H
  H484     1.0000 0.02810  0.36810  0.53590  Biso   1.000  H
  H485     1.0000 0.98400  0.99140  0.05290  Biso   1.000  H
  H486     1.0000 0.01600  0.49140  0.44710  Biso   1.000  H
  H487     1.0000 0.01600  0.00860  0.94710  Biso   1.000  H
  H488     1.0000 0.98400  0.50860  0.55290  Biso   1.000  H
  H489     1.0000 0.01900  0.88570  0.11690  Biso   1.000  H
  H490     1.0000 0.98100  0.38570  0.38310  Biso   1.000  H
  H491     1.0000 0.98100  0.11430  0.88310  Biso   1.000  H
  H492     1.0000 0.01900  0.61430  0.61690  Biso   1.000  H
  H493     1.0000 0.16310  0.15690  0.92000  Biso   1.000  H
  H494     1.0000 0.83690  0.65690  0.58000  Biso   1.000  H
  H495     1.0000 0.83690  0.84310  0.08000  Biso   1.000  H
  H496     1.0000 0.16310  0.34310  0.42000  Biso   1.000  H
  H497     1.0000 0.07250  0.13960  0.89680  Biso   1.000  H
  H498     1.0000 0.92750  0.63960  0.60320  Biso   1.000  H
  H499     1.0000 0.92750  0.86040  0.10320  Biso   1.000  H
  H500     1.0000 0.07250  0.36040  0.39680  Biso   1.000  H
  H501     1.0000 0.01460  0.23180  0.93670  Biso   1.000  H
  H502     1.0000 0.98540  0.73180  0.56330  Biso   1.000  H
  H503     1.0000 0.98540  0.76820  0.06330  Biso   1.000  H
  H504     1.0000 0.01460  0.26820  0.43670  Biso   1.000  H
  H505     1.0000 0.04590  0.35520  0.99200  Biso   1.000  H
  H506     1.0000 0.95410  0.85520  0.50800  Biso   1.000  H
  H507     1.0000 0.95410  0.64480  0.00800  Biso   1.000  H
  H508     1.0000 0.04590  0.14480  0.49200  Biso   1.000  H
  H509     1.0000 0.13290  0.36100  0.02330  Biso   1.000  H
  H510     1.0000 0.86710  0.86100  0.47670  Biso   1.000  H
  H511     1.0000 0.86710  0.63900  0.97670  Biso   1.000  H
  H512     1.0000 0.13290  0.13900  0.52330  Biso   1.000  H
  H513     1.0000 0.18810  0.11260  0.80760  Biso   1.000  H
  H514     1.0000 0.81190  0.61260  0.69240  Biso   1.000  H
  H515     1.0000 0.81190  0.88740  0.19240  Biso   1.000  H
  H516     1.0000 0.18810  0.38740  0.30760  Biso   1.000  H
  H517     1.0000 0.10380  0.11580  0.76610  Biso   1.000  H
  H518     1.0000 0.89620  0.61580  0.73390  Biso   1.000  H
  H519     1.0000 0.89620  0.88420  0.23390  Biso   1.000  H
  H520     1.0000 0.10380  0.38420  0.26610  Biso   1.000  H
  H521     1.0000 0.08900  0.40180  0.80760  Biso   1.000  H
  H522     1.0000 0.91100  0.90180  0.69240  Biso   1.000  H
  H523     1.0000 0.91100  0.59820  0.19240  Biso   1.000  H
  H524     1.0000 0.08900  0.09820  0.30760  Biso   1.000  H
  H525     1.0000 0.17690  0.40280  0.84110  Biso   1.000  H
  H526     1.0000 0.82310  0.90280  0.65890  Biso   1.000  H
  H527     1.0000 0.82310  0.59720  0.15890  Biso   1.000  H
  H528     1.0000 0.17690  0.09720  0.34110  Biso   1.000  H
  H529     1.0000 0.39340  0.17000  0.09360  Biso   1.000  H
  H530     1.0000 0.60660  0.67000  0.40640  Biso   1.000  H
  H531     1.0000 0.60660  0.83000  0.90640  Biso   1.000  H
  H532     1.0000 0.39340  0.33000  0.59360  Biso   1.000  H
  H533     1.0000 0.37360  0.06410  0.16060  Biso   1.000  H
  H534     1.0000 0.62640  0.56410  0.33940  Biso   1.000  H
  H535     1.0000 0.62640  0.93590  0.83940  Biso   1.000  H
  H536     1.0000 0.37360  0.43590  0.66060  Biso   1.000  H
  H537     1.0000 0.35620  0.89520  0.13730  Biso   1.000  H
  H538     1.0000 0.64380  0.39520  0.36270  Biso   1.000  H
  H539     1.0000 0.64380  0.10480  0.86270  Biso   1.000  H
  H540     1.0000 0.35620  0.60480  0.63730  Biso   1.000  H
  H541     1.0000 0.33260  0.85200  0.05410  Biso   1.000  H
  H542     1.0000 0.66740  0.35200  0.44590  Biso   1.000  H
  H543     1.0000 0.66740  0.14800  0.94590  Biso   1.000  H
  H544     1.0000 0.33260  0.64800  0.55410  Biso   1.000  H
  H545     1.0000 0.33790  0.96600  0.98980  Biso   1.000  H
  H546     1.0000 0.66210  0.46600  0.51020  Biso   1.000  H
  H547     1.0000 0.66210  0.03400  0.01020  Biso   1.000  H
  H548     1.0000 0.33790  0.53400  0.48980  Biso   1.000  H
  H549     1.0000 0.36990  0.13070  0.87040  Biso   1.000  H
  H550     1.0000 0.63010  0.63070  0.62960  Biso   1.000  H
  H551     1.0000 0.63010  0.86930  0.12960  Biso   1.000  H
  H552     1.0000 0.36990  0.36930  0.37040  Biso   1.000  H
  H553     1.0000 0.43900  0.10060  0.82500  Biso   1.000  H
  H554     1.0000 0.56100  0.60060  0.67500  Biso   1.000  H
  H555     1.0000 0.56100  0.89940  0.17500  Biso   1.000  H
  H556     1.0000 0.43900  0.39940  0.32500  Biso   1.000  H
  H557     1.0000 0.51920  0.07590  0.86410  Biso   1.000  H
  H558     1.0000 0.48080  0.57590  0.63590  Biso   1.000  H
  H559     1.0000 0.48080  0.92410  0.13590  Biso   1.000  H
  H560     1.0000 0.51920  0.42410  0.36410  Biso   1.000  H
  H561     1.0000 0.53990  0.09080  0.95430  Biso   1.000  H
  H562     1.0000 0.46010  0.59080  0.54570  Biso   1.000  H
  H563     1.0000 0.46010  0.90920  0.04570  Biso   1.000  H
  H564     1.0000 0.53990  0.40920  0.45430  Biso   1.000  H
  H565     1.0000 0.46680  0.13860  0.00040  Biso   1.000  H
  H566     1.0000 0.53320  0.63860  0.49960  Biso   1.000  H
  H567     1.0000 0.53320  0.86140  0.99960  Biso   1.000  H
  H568     1.0000 0.46680  0.36140  0.50040  Biso   1.000  H
  H569     1.0000 0.33710  0.40360  0.83710  Biso   1.000  H
  H570     1.0000 0.66290  0.90360  0.66290  Biso   1.000  H
  H571     1.0000 0.66290  0.59640  0.16290  Biso   1.000  H
  H572     1.0000 0.33710  0.09640  0.33710  Biso   1.000  H
  H573     1.0000 0.39020  0.40290  0.77090  Biso   1.000  H
  H574     1.0000 0.60980  0.90290  0.72910  Biso   1.000  H
  H575     1.0000 0.60980  0.59710  0.22910  Biso   1.000  H
  H576     1.0000 0.39020  0.09710  0.27090  Biso   1.000  H
  H577     1.0000 0.47720  0.37910  0.78910  Biso   1.000  H
  H578     1.0000 0.52280  0.87910  0.71090  Biso   1.000  H
  H579     1.0000 0.52280  0.62090  0.21090  Biso   1.000  H
  H580     1.0000 0.47720  0.12090  0.28910  Biso   1.000  H
  H581     1.0000 0.52110  0.36780  0.87540  Biso   1.000  H
  H582     1.0000 0.47890  0.86780  0.62460  Biso   1.000  H
  H583     1.0000 0.47890  0.63220  0.12460  Biso   1.000  H
  H584     1.0000 0.52110  0.13220  0.37540  Biso   1.000  H
  H585     1.0000 0.46070  0.37510  0.94250  Biso   1.000  H
  H586     1.0000 0.53930  0.87510  0.55750  Biso   1.000  H
  H587     1.0000 0.53930  0.62490  0.05750  Biso   1.000  H
  H588     1.0000 0.46070  0.12490  0.44250  Biso   1.000  H
  H589     1.0000 0.35740  0.86370  0.29190  Biso   1.000  H
  H590     1.0000 0.64260  0.36370  0.20810  Biso   1.000  H
  H591     1.0000 0.64260  0.13630  0.70810  Biso   1.000  H
  H592     1.0000 0.35740  0.63630  0.79190  Biso   1.000  H
  H593     1.0000 0.31270  0.50140  0.02300  Biso   1.000  H
  H594     1.0000 0.68730  0.00140  0.47700  Biso   1.000  H
  H595     1.0000 0.68730  0.49860  0.97700  Biso   1.000  H
  H596     1.0000 0.31270  0.99860  0.52300  Biso   1.000  H
  H597     1.0000 0.32220  0.65910  0.06180  Biso   1.000  H
  H598     1.0000 0.67780  0.15910  0.43820  Biso   1.000  H
  H599     1.0000 0.67780  0.34090  0.93820  Biso   1.000  H
  H600     1.0000 0.32220  0.84090  0.56180  Biso   1.000  H
  H601     1.0000 0.38110  0.76510  0.03390  Biso   1.000  H
  H602     1.0000 0.61890  0.26510  0.46610  Biso   1.000  H
  H603     1.0000 0.61890  0.23490  0.96610  Biso   1.000  H
  H604     1.0000 0.38110  0.73490  0.53390  Biso   1.000  H
  H605     1.0000 0.43390  0.72080  0.97150  Biso   1.000  H
  H606     1.0000 0.56610  0.22080  0.52850  Biso   1.000  H
  H607     1.0000 0.56610  0.27920  0.02850  Biso   1.000  H
  H608     1.0000 0.43390  0.77920  0.47150  Biso   1.000  H
  H609     1.0000 0.42150  0.56970  0.93290  Biso   1.000  H
  H610     1.0000 0.57850  0.06970  0.56710  Biso   1.000  H
  H611     1.0000 0.57850  0.43030  0.06710  Biso   1.000  H
  H612     1.0000 0.42150  0.93030  0.43290  Biso   1.000  H
  H613     1.0000 0.43050  0.91860  0.26100  Biso   1.000  H
  H614     1.0000 0.56950  0.41860  0.23900  Biso   1.000  H
  H615     1.0000 0.56950  0.08140  0.73900  Biso   1.000  H
  H616     1.0000 0.43050  0.58140  0.76100  Biso   1.000  H
