data_image0
_cell_length_a       14.717
_cell_length_b       20.403
_cell_length_c       20.714
_cell_angle_alpha    82.17
_cell_angle_beta     74.31
_cell_angle_gamma    86.66

_symmetry_space_group_name_H-M    "P 1"
_symmetry_int_tables_number       1

loop_
  _symmetry_equiv_pos_as_xyz
  'x, y, z'

loop_
  _atom_site_label
  _atom_site_occupancy
  _atom_site_fract_x
  _atom_site_fract_y
  _atom_site_fract_z
  _atom_site_thermal_displace_type
  _atom_site_B_iso_or_equiv
  _atom_site_type_symbol
  Cu1      1.0000 0.77617  0.65243  0.35636  Biso   1.000  Cu
  Cu2      1.0000 0.22383  0.34757  0.64364  Biso   1.000  Cu
  Cu3      1.0000 0.81263  0.75115  0.15556  Biso   1.000  Cu
  Cu4      1.0000 0.18737  0.24885  0.84444  Biso   1.000  Cu
  Cu5      1.0000 0.54687  0.86265  0.27704  Biso   1.000  Cu
  Cu6      1.0000 0.45313  0.13735  0.72296  Biso   1.000  Cu
  Cu7      1.0000 0.67320  0.76948  0.31956  Biso   1.000  Cu
  Cu8      1.0000 0.32680  0.23052  0.68044  Biso   1.000  Cu
  Cu9      1.0000 0.73421  0.66158  0.24784  Biso   1.000  Cu
  Cu10     1.0000 0.26579  0.33842  0.75216  Biso   1.000  Cu
  Cu11     1.0000 0.56256  0.63646  0.26039  Biso   1.000  Cu
  Cu12     1.0000 0.43744  0.36354  0.73961  Biso   1.000  Cu
  Se1      1.0000 0.71680  0.84180  0.21564  Biso   1.000  Se
  Se2      1.0000 0.28320  0.15820  0.78436  Biso   1.000  Se
  Se3      1.0000 0.89025  0.69985  0.24486  Biso   1.000  Se
  Se4      1.0000 0.10975  0.30015  0.75514  Biso   1.000  Se
  Se5      1.0000 0.51837  0.74170  0.31154  Biso   1.000  Se
  Se6      1.0000 0.48163  0.25830  0.68846  Biso   1.000  Se
  Se7      1.0000 0.65202  0.58181  0.34379  Biso   1.000  Se
  Se8      1.0000 0.34798  0.41819  0.65621  Biso   1.000  Se
  Se9      1.0000 0.67088  0.68689  0.15041  Biso   1.000  Se
  Se10     1.0000 0.32912  0.31311  0.84959  Biso   1.000  Se
  Se11     1.0000 0.70732  0.74098  0.42342  Biso   1.000  Se
  Se12     1.0000 0.29268  0.25902  0.57658  Biso   1.000  Se
  N1       1.0000 0.86080  0.59550  0.40530  Biso   1.000  N
  N2       1.0000 0.13920  0.40450  0.59470  Biso   1.000  N
  N3       1.0000 0.53630  0.91093  0.35890  Biso   1.000  N
  N4       1.0000 0.46370  0.08907  0.64110  Biso   1.000  N
  P1       1.0000 0.43273  0.58262  0.26368  Biso   1.000  P
  P2       1.0000 0.56727  0.41738  0.73632  Biso   1.000  P
  P3       1.0000 0.91255  0.78976  0.05744  Biso   1.000  P
  P4       1.0000 0.08745  0.21024  0.94256  Biso   1.000  P
  P5       1.0000 0.46667  0.91800  0.20818  Biso   1.000  P
  P6       1.0000 0.53333  0.08200  0.79182  Biso   1.000  P
  C1       1.0000 0.92670  0.62090  0.42010  Biso   1.000  C
  C2       1.0000 0.07330  0.37910  0.57990  Biso   1.000  C
  H1       1.0000 0.93770  0.66670  0.40640  Biso   1.000  H
  H2       1.0000 0.06230  0.33330  0.59360  Biso   1.000  H
  C3       1.0000 0.98480  0.58460  0.45610  Biso   1.000  C
  C4       1.0000 0.01520  0.41540  0.54390  Biso   1.000  C
  H3       1.0000 0.03590  0.60580  0.46380  Biso   1.000  H
  H4       1.0000 0.96410  0.39420  0.53620  Biso   1.000  H
  C5       1.0000 0.97000  0.52010  0.48010  Biso   1.000  C
  C6       1.0000 0.03000  0.47990  0.51990  Biso   1.000  C
  C7       1.0000 0.88730  0.49480  0.47450  Biso   1.000  C
  C8       1.0000 0.11270  0.50520  0.52550  Biso   1.000  C
  H5       1.0000 0.86830  0.45150  0.49530  Biso   1.000  H
  H6       1.0000 0.13170  0.54850  0.50470  Biso   1.000  H
  C9       1.0000 0.83330  0.53320  0.43860  Biso   1.000  C
  C10      1.0000 0.16670  0.46680  0.56140  Biso   1.000  C
  H7       1.0000 0.77530  0.51660  0.43650  Biso   1.000  H
  H8       1.0000 0.22470  0.48340  0.56350  Biso   1.000  H
  C11      1.0000 0.55040  0.97610  0.35070  Biso   1.000  C
  C12      1.0000 0.44960  0.02390  0.64930  Biso   1.000  C
  H9       1.0000 0.57140  0.99830  0.30610  Biso   1.000  H
  H10      1.0000 0.42860  0.00170  0.69390  Biso   1.000  H
  C13      1.0000 0.53580  0.01200  0.40420  Biso   1.000  C
  C14      1.0000 0.46420  0.98800  0.59580  Biso   1.000  C
  H11      1.0000 0.54460  0.05850  0.39570  Biso   1.000  H
  H12      1.0000 0.45540  0.94150  0.60430  Biso   1.000  H
  C15      1.0000 0.50850  0.98180  0.47030  Biso   1.000  C
  C16      1.0000 0.49150  0.01820  0.52970  Biso   1.000  C
  C17      1.0000 0.51670  0.88140  0.42130  Biso   1.000  C
  C18      1.0000 0.48330  0.11860  0.57870  Biso   1.000  C
  H13      1.0000 0.51130  0.83460  0.42820  Biso   1.000  H
  H14      1.0000 0.48870  0.16540  0.57180  Biso   1.000  H
  C19      1.0000 0.50380  0.91330  0.47680  Biso   1.000  C
  C20      1.0000 0.49620  0.08670  0.52320  Biso   1.000  C
  H15      1.0000 0.49140  0.88850  0.52050  Biso   1.000  H
  H16      1.0000 0.50860  0.11150  0.47950  Biso   1.000  H
  C21      1.0000 0.79480  0.90970  0.22650  Biso   1.000  C
  C22      1.0000 0.20520  0.09030  0.77350  Biso   1.000  C
  C23      1.0000 0.80430  0.91770  0.28840  Biso   1.000  C
  C24      1.0000 0.19570  0.08230  0.71160  Biso   1.000  C
  H17      1.0000 0.77430  0.88830  0.32690  Biso   1.000  H
  H18      1.0000 0.22570  0.11170  0.67310  Biso   1.000  H
  C25      1.0000 0.85740  0.96850  0.29550  Biso   1.000  C
  C26      1.0000 0.14260  0.03150  0.70450  Biso   1.000  C
  H19      1.0000 0.86200  0.97480  0.33920  Biso   1.000  H
  H20      1.0000 0.13800  0.02520  0.66080  Biso   1.000  H
  C27      1.0000 0.90350  0.00990  0.24020  Biso   1.000  C
  C28      1.0000 0.09650  0.99010  0.75980  Biso   1.000  C
  H21      1.0000 0.94180  0.04370  0.24540  Biso   1.000  H
  H22      1.0000 0.05820  0.95630  0.75460  Biso   1.000  H
  C29      1.0000 0.89500  0.00300  0.17870  Biso   1.000  C
  C30      1.0000 0.10500  0.99700  0.82130  Biso   1.000  C
  H23      1.0000 0.92710  0.03170  0.14030  Biso   1.000  H
  H24      1.0000 0.07290  0.96830  0.85970  Biso   1.000  H
  C31      1.0000 0.83790  0.95290  0.17160  Biso   1.000  C
  C32      1.0000 0.16210  0.04710  0.82840  Biso   1.000  C
  H25      1.0000 0.82930  0.94910  0.12850  Biso   1.000  H
  H26      1.0000 0.17070  0.05090  0.87150  Biso   1.000  H
  C33      1.0000 0.96190  0.61750  0.21460  Biso   1.000  C
  C34      1.0000 0.03810  0.38250  0.78540  Biso   1.000  C
  C35      1.0000 0.02600  0.58580  0.24900  Biso   1.000  C
  C36      1.0000 0.97400  0.41420  0.75100  Biso   1.000  C
  H27      1.0000 0.03490  0.60350  0.28700  Biso   1.000  H
  H28      1.0000 0.96510  0.39650  0.71300  Biso   1.000  H
  C37      1.0000 0.07670  0.52880  0.22860  Biso   1.000  C
  C38      1.0000 0.92330  0.47120  0.77140  Biso   1.000  C
  H29      1.0000 0.11780  0.50680  0.25330  Biso   1.000  H
  H30      1.0000 0.88220  0.49320  0.74670  Biso   1.000  H
  C39      1.0000 0.06590  0.50470  0.17090  Biso   1.000  C
  C40      1.0000 0.93410  0.49530  0.82910  Biso   1.000  C
  H31      1.0000 0.08990  0.46290  0.15790  Biso   1.000  H
  H32      1.0000 0.91010  0.53710  0.84210  Biso   1.000  H
  C41      1.0000 0.95220  0.58970  0.16110  Biso   1.000  C
  C42      1.0000 0.04780  0.41030  0.83890  Biso   1.000  C
  H33      1.0000 0.90350  0.60120  0.13910  Biso   1.000  H
  H34      1.0000 0.09650  0.39880  0.86090  Biso   1.000  H
  C43      1.0000 0.99850  0.53200  0.14680  Biso   1.000  C
  C44      1.0000 0.00150  0.46800  0.85320  Biso   1.000  C
  H35      1.0000 0.97670  0.49540  0.13170  Biso   1.000  H
  H36      1.0000 0.02330  0.50460  0.86830  Biso   1.000  H
  C45      1.0000 0.43350  0.71540  0.39990  Biso   1.000  C
  C46      1.0000 0.56650  0.28460  0.60010  Biso   1.000  C
  C47      1.0000 0.46600  0.68120  0.45190  Biso   1.000  C
  C48      1.0000 0.53400  0.31880  0.54810  Biso   1.000  C
  H37      1.0000 0.53190  0.67400  0.44630  Biso   1.000  H
  H38      1.0000 0.46810  0.32600  0.55370  Biso   1.000  H
  C49      1.0000 0.40270  0.65720  0.51230  Biso   1.000  C
  C50      1.0000 0.59730  0.34280  0.48770  Biso   1.000  C
  H39      1.0000 0.42540  0.63280  0.54730  Biso   1.000  H
  H40      1.0000 0.57460  0.36720  0.45270  Biso   1.000  H
  C51      1.0000 0.30750  0.66860  0.52160  Biso   1.000  C
  C52      1.0000 0.69250  0.33140  0.47840  Biso   1.000  C
  H41      1.0000 0.26440  0.65320  0.56340  Biso   1.000  H
  H42      1.0000 0.73560  0.34680  0.43660  Biso   1.000  H
  C53      1.0000 0.27570  0.70240  0.47030  Biso   1.000  C
  C54      1.0000 0.72430  0.29760  0.52970  Biso   1.000  C
  H43      1.0000 0.20970  0.70980  0.47680  Biso   1.000  H
  H44      1.0000 0.79030  0.29020  0.52320  Biso   1.000  H
  C55      1.0000 0.33710  0.72640  0.40820  Biso   1.000  C
  C56      1.0000 0.66290  0.27360  0.59180  Biso   1.000  C
  H45      1.0000 0.31360  0.74960  0.37290  Biso   1.000  H
  H46      1.0000 0.68640  0.25040  0.62710  Biso   1.000  H
  C57      1.0000 0.70420  0.49780  0.31540  Biso   1.000  C
  C58      1.0000 0.29580  0.50220  0.68460  Biso   1.000  C
  C59      1.0000 0.64470  0.45070  0.30890  Biso   1.000  C
  C60      1.0000 0.35530  0.54930  0.69110  Biso   1.000  C
  H47      1.0000 0.57850  0.45930  0.31900  Biso   1.000  H
  H48      1.0000 0.42150  0.54070  0.68100  Biso   1.000  H
  C61      1.0000 0.68180  0.39040  0.28760  Biso   1.000  C
  C62      1.0000 0.31820  0.60960  0.71240  Biso   1.000  C
  H49      1.0000 0.64070  0.35850  0.28230  Biso   1.000  H
  H50      1.0000 0.35930  0.64150  0.71770  Biso   1.000  H
  C63      1.0000 0.77660  0.37650  0.27420  Biso   1.000  C
  C64      1.0000 0.22340  0.62350  0.72580  Biso   1.000  C
  H51      1.0000 0.80070  0.33410  0.26280  Biso   1.000  H
  H52      1.0000 0.19930  0.66590  0.73720  Biso   1.000  H
  C65      1.0000 0.83550  0.42340  0.27730  Biso   1.000  C
  C66      1.0000 0.16450  0.57660  0.72270  Biso   1.000  C
  H53      1.0000 0.90180  0.41520  0.26520  Biso   1.000  H
  H54      1.0000 0.09820  0.58480  0.73480  Biso   1.000  H
  C67      1.0000 0.79940  0.48350  0.29800  Biso   1.000  C
  C68      1.0000 0.20060  0.51650  0.70200  Biso   1.000  C
  H55      1.0000 0.84180  0.51590  0.30030  Biso   1.000  H
  H56      1.0000 0.15820  0.48410  0.69970  Biso   1.000  H
  C69      1.0000 0.72470  0.61560  0.09860  Biso   1.000  C
  C70      1.0000 0.27530  0.38440  0.90140  Biso   1.000  C
  C71      1.0000 0.73840  0.62530  0.02960  Biso   1.000  C
  C72      1.0000 0.26160  0.37470  0.97040  Biso   1.000  C
  H57      1.0000 0.72320  0.66700  0.00800  Biso   1.000  H
  H58      1.0000 0.27680  0.33300  0.99200  Biso   1.000  H
  C73      1.0000 0.77410  0.57440  0.99180  Biso   1.000  C
  C74      1.0000 0.22590  0.42560  0.00820  Biso   1.000  C
  H59      1.0000 0.78340  0.58170  0.94420  Biso   1.000  H
  H60      1.0000 0.21660  0.41830  0.05580  Biso   1.000  H
  C75      1.0000 0.79670  0.51340  0.02140  Biso   1.000  C
  C76      1.0000 0.20330  0.48660  0.97860  Biso   1.000  C
  H61      1.0000 0.82240  0.47890  0.99490  Biso   1.000  H
  H62      1.0000 0.17760  0.52110  0.00510  Biso   1.000  H
  C77      1.0000 0.78090  0.50390  0.09070  Biso   1.000  C
  C78      1.0000 0.21910  0.49610  0.90930  Biso   1.000  C
  H63      1.0000 0.79430  0.46180  0.11230  Biso   1.000  H
  H64      1.0000 0.20570  0.53820  0.88770  Biso   1.000  H
  C79      1.0000 0.74640  0.55400  0.12880  Biso   1.000  C
  C80      1.0000 0.25360  0.44600  0.87120  Biso   1.000  C
  H65      1.0000 0.73730  0.54650  0.17640  Biso   1.000  H
  H66      1.0000 0.26270  0.45350  0.82360  Biso   1.000  H
  C81      1.0000 0.82050  0.77100  0.43290  Biso   1.000  C
  C82      1.0000 0.17950  0.22900  0.56710  Biso   1.000  C
  C83      1.0000 0.88900  0.79820  0.37970  Biso   1.000  C
  C84      1.0000 0.11100  0.20180  0.62030  Biso   1.000  C
  H67      1.0000 0.87840  0.80380  0.33590  Biso   1.000  H
  H68      1.0000 0.12160  0.19620  0.66410  Biso   1.000  H
  C85      1.0000 0.97440  0.81840  0.38680  Biso   1.000  C
  C86      1.0000 0.02560  0.18160  0.61320  Biso   1.000  C
  H69      1.0000 0.01960  0.84130  0.35020  Biso   1.000  H
  H70      1.0000 0.98040  0.15870  0.64980  Biso   1.000  H
  C87      1.0000 0.98950  0.80290  0.45120  Biso   1.000  C
  C88      1.0000 0.01050  0.19710  0.54880  Biso   1.000  C
  H71      1.0000 0.04810  0.81360  0.45760  Biso   1.000  H
  H72      1.0000 0.95190  0.18640  0.54240  Biso   1.000  H
  C89      1.0000 0.92350  0.77300  0.50500  Biso   1.000  C
  C90      1.0000 0.07650  0.22700  0.49500  Biso   1.000  C
  H73      1.0000 0.93620  0.76340  0.54800  Biso   1.000  H
  H74      1.0000 0.06380  0.23660  0.45200  Biso   1.000  H
  C91      1.0000 0.83680  0.75650  0.49660  Biso   1.000  C
  C92      1.0000 0.16320  0.24350  0.50340  Biso   1.000  C
  H75      1.0000 0.78980  0.73590  0.53370  Biso   1.000  H
  H76      1.0000 0.21020  0.26410  0.46630  Biso   1.000  H
  C93      1.0000 0.39770  0.51870  0.33640  Biso   1.000  C
  C94      1.0000 0.60230  0.48130  0.66360  Biso   1.000  C
  C95      1.0000 0.36890  0.45620  0.33070  Biso   1.000  C
  C96      1.0000 0.63110  0.54380  0.66930  Biso   1.000  C
  H77      1.0000 0.36050  0.44680  0.28910  Biso   1.000  H
  H78      1.0000 0.63950  0.55320  0.71090  Biso   1.000  H
  C97      1.0000 0.35270  0.40800  0.38640  Biso   1.000  C
  C98      1.0000 0.64730  0.59200  0.61360  Biso   1.000  C
  H79      1.0000 0.33310  0.36540  0.38280  Biso   1.000  H
  H80      1.0000 0.66690  0.63460  0.61720  Biso   1.000  H
  C99      1.0000 0.36500  0.42180  0.44740  Biso   1.000  C
  C100     1.0000 0.63500  0.57820  0.55260  Biso   1.000  C
  H81      1.0000 0.35510  0.38840  0.48510  Biso   1.000  H
  H82      1.0000 0.64490  0.61160  0.51490  Biso   1.000  H
  C101     1.0000 0.39130  0.48320  0.45280  Biso   1.000  C
  C102     1.0000 0.60870  0.51680  0.54720  Biso   1.000  C
  H83      1.0000 0.39870  0.49290  0.49470  Biso   1.000  H
  H84      1.0000 0.60130  0.50710  0.50530  Biso   1.000  H
  C103     1.0000 0.40740  0.53190  0.39720  Biso   1.000  C
  C104     1.0000 0.59260  0.46810  0.60280  Biso   1.000  C
  H85      1.0000 0.42520  0.57480  0.40150  Biso   1.000  H
  H86      1.0000 0.57480  0.42520  0.59850  Biso   1.000  H
  C105     1.0000 0.43050  0.54100  0.19200  Biso   1.000  C
  C106     1.0000 0.56950  0.45900  0.80800  Biso   1.000  C
  C107     1.0000 0.51200  0.51450  0.15560  Biso   1.000  C
  C108     1.0000 0.48800  0.48550  0.84440  Biso   1.000  C
  H87      1.0000 0.56900  0.51820  0.16790  Biso   1.000  H
  H88      1.0000 0.43100  0.48180  0.83210  Biso   1.000  H
  C109     1.0000 0.51270  0.48250  0.10160  Biso   1.000  C
  C110     1.0000 0.48730  0.51750  0.89840  Biso   1.000  C
  H89      1.0000 0.57100  0.46550  0.07610  Biso   1.000  H
  H90      1.0000 0.42900  0.53450  0.92390  Biso   1.000  H
  C111     1.0000 0.43250  0.47430  0.08330  Biso   1.000  C
  C112     1.0000 0.56750  0.52570  0.91670  Biso   1.000  C
  H91      1.0000 0.43340  0.44910  0.04770  Biso   1.000  H
  H92      1.0000 0.56660  0.55090  0.95230  Biso   1.000  H
  C113     1.0000 0.35280  0.50230  0.11630  Biso   1.000  C
  C114     1.0000 0.64720  0.49770  0.88370  Biso   1.000  C
  H93      1.0000 0.29700  0.49950  0.10220  Biso   1.000  H
  H94      1.0000 0.70300  0.50050  0.89780  Biso   1.000  H
  C115     1.0000 0.34950  0.53590  0.17120  Biso   1.000  C
  C116     1.0000 0.65050  0.46410  0.82880  Biso   1.000  C
  H95      1.0000 0.29160  0.55520  0.19440  Biso   1.000  H
  H96      1.0000 0.70840  0.44480  0.80560  Biso   1.000  H
  C117     1.0000 0.33140  0.63920  0.27060  Biso   1.000  C
  C118     1.0000 0.66860  0.36080  0.72940  Biso   1.000  C
  C119     1.0000 0.24590  0.63090  0.31830  Biso   1.000  C
  C120     1.0000 0.75410  0.36910  0.68170  Biso   1.000  C
  H97      1.0000 0.23570  0.59160  0.34950  Biso   1.000  H
  H98      1.0000 0.76430  0.40840  0.65050  Biso   1.000  H
  C121     1.0000 0.17440  0.67890  0.32190  Biso   1.000  C
  C122     1.0000 0.82560  0.32110  0.67810  Biso   1.000  C
  H99      1.0000 0.11640  0.67300  0.35590  Biso   1.000  H
  H100     1.0000 0.88360  0.32700  0.64410  Biso   1.000  H
  C123     1.0000 0.18840  0.73490  0.27590  Biso   1.000  C
  C124     1.0000 0.81160  0.26510  0.72410  Biso   1.000  C
  H101     1.0000 0.13910  0.76740  0.27750  Biso   1.000  H
  H102     1.0000 0.86090  0.23260  0.72250  Biso   1.000  H
  C125     1.0000 0.27300  0.74460  0.22730  Biso   1.000  C
  C126     1.0000 0.72700  0.25540  0.77270  Biso   1.000  C
  H103     1.0000 0.28190  0.78330  0.19530  Biso   1.000  H
  H104     1.0000 0.71810  0.21670  0.80470  Biso   1.000  H
  C127     1.0000 0.34420  0.69770  0.22560  Biso   1.000  C
  C128     1.0000 0.65580  0.30230  0.77440  Biso   1.000  C
  H105     1.0000 0.40340  0.70520  0.19330  Biso   1.000  H
  H106     1.0000 0.59660  0.29480  0.80670  Biso   1.000  H
  C129     1.0000 0.02630  0.81450  0.06570  Biso   1.000  C
  C130     1.0000 0.97370  0.18550  0.93430  Biso   1.000  C
  C131     1.0000 0.02890  0.83410  0.12630  Biso   1.000  C
  C132     1.0000 0.97110  0.16590  0.87370  Biso   1.000  C
  H107     1.0000 0.97240  0.83560  0.16160  Biso   1.000  H
  H108     1.0000 0.02760  0.16440  0.83840  Biso   1.000  H
  C133     1.0000 0.11340  0.85150  0.13610  Biso   1.000  C
  C134     1.0000 0.88660  0.14850  0.86390  Biso   1.000  C
  H109     1.0000 0.11410  0.86580  0.17770  Biso   1.000  H
  H110     1.0000 0.88590  0.13420  0.82230  Biso   1.000  H
  C135     1.0000 0.19660  0.84830  0.08560  Biso   1.000  C
  C136     1.0000 0.80340  0.15170  0.91440  Biso   1.000  C
  H111     1.0000 0.25460  0.85950  0.09270  Biso   1.000  H
  H112     1.0000 0.74540  0.14050  0.90730  Biso   1.000  H
  C137     1.0000 0.19410  0.82890  0.02530  Biso   1.000  C
  C138     1.0000 0.80590  0.17110  0.97470  Biso   1.000  C
  H113     1.0000 0.25100  0.82690  0.99040  Biso   1.000  H
  H114     1.0000 0.74900  0.17310  0.00960  Biso   1.000  H
  C139     1.0000 0.10960  0.81210  0.01440  Biso   1.000  C
  C140     1.0000 0.89040  0.18790  0.98560  Biso   1.000  C
  H115     1.0000 0.10880  0.79910  0.97230  Biso   1.000  H
  H116     1.0000 0.89120  0.20090  0.02770  Biso   1.000  H
  C141     1.0000 0.86450  0.86480  0.01940  Biso   1.000  C
  C142     1.0000 0.13550  0.13520  0.98060  Biso   1.000  C
  C143     1.0000 0.76800  0.86640  0.02470  Biso   1.000  C
  C144     1.0000 0.23200  0.13360  0.97530  Biso   1.000  C
  H117     1.0000 0.73120  0.82880  0.04570  Biso   1.000  H
  H118     1.0000 0.26880  0.17120  0.95430  Biso   1.000  H
  C145     1.0000 0.72510  0.92310  0.99920  Biso   1.000  C
  C146     1.0000 0.27490  0.07690  0.00080  Biso   1.000  C
  H119     1.0000 0.65960  0.92360  0.00210  Biso   1.000  H
  H120     1.0000 0.34040  0.07640  0.99790  Biso   1.000  H
  C147     1.0000 0.77820  0.97870  0.96960  Biso   1.000  C
  C148     1.0000 0.22180  0.02130  0.03040  Biso   1.000  C
  H121     1.0000 0.74880  0.01760  0.95280  Biso   1.000  H
  H122     1.0000 0.25120  0.98240  0.04720  Biso   1.000  H
  C149     1.0000 0.87370  0.97750  0.96450  Biso   1.000  C
  C150     1.0000 0.12630  0.02250  0.03550  Biso   1.000  C
  H123     1.0000 0.91000  0.01560  0.94430  Biso   1.000  H
  H124     1.0000 0.09000  0.98440  0.05570  Biso   1.000  H
  C151     1.0000 0.91670  0.92120  0.98890  Biso   1.000  C
  C152     1.0000 0.08330  0.07880  0.01110  Biso   1.000  C
  H125     1.0000 0.98260  0.92070  0.98490  Biso   1.000  H
  H126     1.0000 0.01740  0.07930  0.01510  Biso   1.000  H
  C153     1.0000 0.94690  0.73750  0.98940  Biso   1.000  C
  C154     1.0000 0.05310  0.26250  0.01060  Biso   1.000  C
  C155     1.0000 0.93930  0.75660  0.92530  Biso   1.000  C
  C156     1.0000 0.06070  0.24340  0.07470  Biso   1.000  C
  H127     1.0000 0.91450  0.79950  0.91430  Biso   1.000  H
  H128     1.0000 0.08550  0.20050  0.08570  Biso   1.000  H
  C157     1.0000 0.96670  0.71500  0.87650  Biso   1.000  C
  C158     1.0000 0.03330  0.28500  0.12350  Biso   1.000  C
  H129     1.0000 0.96200  0.72950  0.83190  Biso   1.000  H
  H130     1.0000 0.03800  0.27050  0.16810  Biso   1.000  H
  C159     1.0000 0.00150  0.65170  0.89180  Biso   1.000  C
  C160     1.0000 0.99850  0.34830  0.10820  Biso   1.000  C
  H131     1.0000 0.02020  0.62270  0.85820  Biso   1.000  H
  H132     1.0000 0.97980  0.37730  0.14180  Biso   1.000  H
  C161     1.0000 0.00820  0.63210  0.95530  Biso   1.000  C
  C162     1.0000 0.99180  0.36790  0.04470  Biso   1.000  C
  H133     1.0000 0.03120  0.58880  0.96660  Biso   1.000  H
  H134     1.0000 0.96880  0.41120  0.03340  Biso   1.000  H
  C163     1.0000 0.98200  0.67470  0.00370  Biso   1.000  C
  C164     1.0000 0.01800  0.32530  0.99630  Biso   1.000  C
  H135     1.0000 0.98820  0.66040  0.04800  Biso   1.000  H
  H136     1.0000 0.01180  0.33960  0.95200  Biso   1.000  H
  C165     1.0000 0.50850  0.00260  0.18290  Biso   1.000  C
  C166     1.0000 0.49150  0.99740  0.81710  Biso   1.000  C
  C167     1.0000 0.45450  0.05840  0.19800  Biso   1.000  C
  C168     1.0000 0.54550  0.94160  0.80200  Biso   1.000  C
  H137     1.0000 0.38920  0.05530  0.22050  Biso   1.000  H
  H138     1.0000 0.61080  0.94470  0.77950  Biso   1.000  H
  C169     1.0000 0.49810  0.12100  0.17920  Biso   1.000  C
  C170     1.0000 0.50190  0.87900  0.82080  Biso   1.000  C
  H139     1.0000 0.46050  0.15990  0.18790  Biso   1.000  H
  H140     1.0000 0.53950  0.84010  0.81210  Biso   1.000  H
  C171     1.0000 0.59110  0.12690  0.14940  Biso   1.000  C
  C172     1.0000 0.40890  0.87310  0.85060  Biso   1.000  C
  H141     1.0000 0.61910  0.16910  0.13890  Biso   1.000  H
  H142     1.0000 0.38090  0.83090  0.86110  Biso   1.000  H
  C173     1.0000 0.64400  0.07190  0.13450  Biso   1.000  C
  C174     1.0000 0.35600  0.92810  0.86550  Biso   1.000  C
  H143     1.0000 0.70940  0.07590  0.11270  Biso   1.000  H
  H144     1.0000 0.29060  0.92410  0.88730  Biso   1.000  H
  C175     1.0000 0.60470  0.00940  0.15040  Biso   1.000  C
  C176     1.0000 0.39530  0.99060  0.84960  Biso   1.000  C
  H145     1.0000 0.64310  0.97140  0.13910  Biso   1.000  H
  H146     1.0000 0.35690  0.02860  0.86090  Biso   1.000  H
  C177     1.0000 0.34030  0.92760  0.24500  Biso   1.000  C
  C178     1.0000 0.65970  0.07240  0.75500  Biso   1.000  C
  C179     1.0000 0.30520  0.90380  0.31130  Biso   1.000  C
  C180     1.0000 0.69480  0.09620  0.68870  Biso   1.000  C
  H147     1.0000 0.34580  0.88140  0.33620  Biso   1.000  H
  H148     1.0000 0.65420  0.11860  0.66380  Biso   1.000  H
  C181     1.0000 0.20760  0.91250  0.34330  Biso   1.000  C
  C182     1.0000 0.79240  0.08750  0.65670  Biso   1.000  C
  H149     1.0000 0.18410  0.89770  0.39020  Biso   1.000  H
  H150     1.0000 0.81590  0.10230  0.60980  Biso   1.000  H
  C183     1.0000 0.14810  0.94130  0.30820  Biso   1.000  C
  C184     1.0000 0.85190  0.05870  0.69180  Biso   1.000  C
  H151     1.0000 0.08320  0.94740  0.33030  Biso   1.000  H
  H152     1.0000 0.91680  0.05260  0.66970  Biso   1.000  H
  C185     1.0000 0.18080  0.96140  0.24130  Biso   1.000  C
  C186     1.0000 0.81920  0.03860  0.75870  Biso   1.000  C
  H153     1.0000 0.13860  0.98030  0.21600  Biso   1.000  H
  H154     1.0000 0.86140  0.01970  0.78400  Biso   1.000  H
  C187     1.0000 0.27700  0.95450  0.20960  Biso   1.000  C
  C188     1.0000 0.72300  0.04550  0.79040  Biso   1.000  C
  H155     1.0000 0.29940  0.96850  0.16250  Biso   1.000  H
  H156     1.0000 0.70060  0.03150  0.83750  Biso   1.000  H
  C189     1.0000 0.47470  0.88920  0.12780  Biso   1.000  C
  C190     1.0000 0.52530  0.11080  0.87220  Biso   1.000  C
  C191     1.0000 0.50340  0.82420  0.12040  Biso   1.000  C
  C192     1.0000 0.49660  0.17580  0.87960  Biso   1.000  C
  H157     1.0000 0.52030  0.79720  0.15670  Biso   1.000  H
  H158     1.0000 0.47970  0.20280  0.84330  Biso   1.000  H
  C193     1.0000 0.50810  0.79730  0.06130  Biso   1.000  C
  C194     1.0000 0.49190  0.20270  0.93870  Biso   1.000  C
  H159     1.0000 0.52760  0.75260  0.05710  Biso   1.000  H
  H160     1.0000 0.47240  0.24740  0.94290  Biso   1.000  H
  C195     1.0000 0.48340  0.83800  0.00800  Biso   1.000  C
  C196     1.0000 0.51660  0.16200  0.99200  Biso   1.000  C
  H161     1.0000 0.48480  0.82050  0.96760  Biso   1.000  H
  H162     1.0000 0.51520  0.17950  0.03240  Biso   1.000  H
  C197     1.0000 0.45740  0.90310  0.01410  Biso   1.000  C
  C198     1.0000 0.54260  0.09690  0.98590  Biso   1.000  C
  H163     1.0000 0.44170  0.93050  0.97760  Biso   1.000  H
  H164     1.0000 0.55830  0.06950  0.02240  Biso   1.000  H
  C199     1.0000 0.45370  0.92880  0.07260  Biso   1.000  C
  C200     1.0000 0.54630  0.07120  0.92740  Biso   1.000  C
  H165     1.0000 0.43680  0.97410  0.07580  Biso   1.000  H
  H166     1.0000 0.56320  0.02590  0.92420  Biso   1.000  H
  O1       1.0000 0.51400  0.81510  0.62490  Biso   1.000  O
  O2       1.0000 0.48600  0.18490  0.37510  Biso   1.000  O
  O3       1.0000 0.66850  0.89910  0.59950  Biso   1.000  O
  O4       1.0000 0.33150  0.10090  0.40050  Biso   1.000  O
  C201     1.0000 0.48560  0.76140  0.60630  Biso   1.000  C
  C202     1.0000 0.51440  0.23860  0.39370  Biso   1.000  C
  H167     1.0000 0.48490  0.72380  0.64130  Biso   1.000  H
  H168     1.0000 0.51510  0.27620  0.35870  Biso   1.000  H
  H169     1.0000 0.52910  0.75140  0.56360  Biso   1.000  H
  H170     1.0000 0.47090  0.24860  0.43640  Biso   1.000  H
  H171     1.0000 0.42200  0.76950  0.60030  Biso   1.000  H
  H172     1.0000 0.57800  0.23050  0.39970  Biso   1.000  H
  C203     1.0000 0.60460  0.79530  0.63370  Biso   1.000  C
  C204     1.0000 0.39540  0.20470  0.36630  Biso   1.000  C
  H173     1.0000 0.64560  0.78290  0.59050  Biso   1.000  H
  H174     1.0000 0.35440  0.21710  0.40950  Biso   1.000  H
  H175     1.0000 0.59800  0.75560  0.66780  Biso   1.000  H
  H176     1.0000 0.40200  0.24440  0.33220  Biso   1.000  H
  C205     1.0000 0.65600  0.85420  0.65840  Biso   1.000  C
  C206     1.0000 0.34400  0.14580  0.34160  Biso   1.000  C
  H177     1.0000 0.61430  0.87240  0.69830  Biso   1.000  H
  H178     1.0000 0.38570  0.12760  0.30170  Biso   1.000  H
  H179     1.0000 0.71680  0.83880  0.66780  Biso   1.000  H
  H180     1.0000 0.28320  0.16120  0.33220  Biso   1.000  H
  C207     1.0000 0.72200  0.95680  0.61500  Biso   1.000  C
  C208     1.0000 0.27800  0.04320  0.38500  Biso   1.000  C
  H181     1.0000 0.77790  0.93880  0.62900  Biso   1.000  H
  H182     1.0000 0.22210  0.06120  0.37100  Biso   1.000  H
  H183     1.0000 0.68030  0.97940  0.65050  Biso   1.000  H
  H184     1.0000 0.31970  0.02060  0.34950  Biso   1.000  H
  H185     1.0000 0.74230  0.98840  0.57350  Biso   1.000  H
  H186     1.0000 0.25770  0.01160  0.42650  Biso   1.000  H
  O5       1.0000 0.36630  0.70150  0.93600  Biso   1.000  O
  O6       1.0000 0.63370  0.29850  0.06400  Biso   1.000  O
  O7       1.0000 0.24020  0.77400  0.86350  Biso   1.000  O
  O8       1.0000 0.75980  0.22600  0.13650  Biso   1.000  O
  C209     1.0000 0.35350  0.68000  0.01700  Biso   1.000  C
  C210     1.0000 0.64650  0.32000  0.98300  Biso   1.000  C
  H187     1.0000 0.35360  0.63170  0.02680  Biso   1.000  H
  H188     1.0000 0.64640  0.36830  0.97320  Biso   1.000  H
  H189     1.0000 0.29360  0.69830  0.04260  Biso   1.000  H
  H190     1.0000 0.70640  0.30170  0.95740  Biso   1.000  H
  H191     1.0000 0.40580  0.69730  0.03020  Biso   1.000  H
  H192     1.0000 0.59420  0.30270  0.96980  Biso   1.000  H
  C211     1.0000 0.28310  0.67990  0.92080  Biso   1.000  C
  C212     1.0000 0.71690  0.32010  0.07920  Biso   1.000  C
  H193     1.0000 0.29060  0.63160  0.91870  Biso   1.000  H
  H194     1.0000 0.70940  0.36840  0.08130  Biso   1.000  H
  H195     1.0000 0.22840  0.68660  0.95960  Biso   1.000  H
  H196     1.0000 0.77160  0.31340  0.04040  Biso   1.000  H
  C213     1.0000 0.26300  0.70480  0.87040  Biso   1.000  C
  C214     1.0000 0.73700  0.29520  0.12960  Biso   1.000  C
  H197     1.0000 0.20840  0.68110  0.86640  Biso   1.000  H
  H198     1.0000 0.79160  0.31890  0.13360  Biso   1.000  H
  H199     1.0000 0.31670  0.69660  0.83150  Biso   1.000  H
  H200     1.0000 0.68330  0.30340  0.16850  Biso   1.000  H
  C215     1.0000 0.21640  0.80640  0.80020  Biso   1.000  C
  C216     1.0000 0.78360  0.19360  0.19980  Biso   1.000  C
  H201     1.0000 0.16170  0.78500  0.79450  Biso   1.000  H
  H202     1.0000 0.83830  0.21500  0.20550  Biso   1.000  H
  H203     1.0000 0.27050  0.80190  0.76110  Biso   1.000  H
  H204     1.0000 0.72950  0.19810  0.23890  Biso   1.000  H
  H205     1.0000 0.20150  0.85340  0.80380  Biso   1.000  H
  H206     1.0000 0.79850  0.14660  0.19620  Biso   1.000  H
  O9       1.0000 0.85280  0.60860  0.69220  Biso   1.000  O
  O10      1.0000 0.14720  0.39140  0.30780  Biso   1.000  O
  O11      1.0000 0.68100  0.72470  0.80520  Biso   1.000  O
  O12      1.0000 0.31900  0.27530  0.19480  Biso   1.000  O
  C217     1.0000 0.91700  0.64200  0.63080  Biso   1.000  C
  C218     1.0000 0.08300  0.35800  0.36920  Biso   1.000  C
  H207     1.0000 0.97100  0.65870  0.64240  Biso   1.000  H
  H208     1.0000 0.02900  0.34130  0.35760  Biso   1.000  H
  H209     1.0000 0.88370  0.67840  0.61090  Biso   1.000  H
  H210     1.0000 0.11630  0.32160  0.38910  Biso   1.000  H
  H211     1.0000 0.94020  0.60990  0.59820  Biso   1.000  H
  H212     1.0000 0.05980  0.39010  0.40180  Biso   1.000  H
  C219     1.0000 0.82900  0.65810  0.72440  Biso   1.000  C
  C220     1.0000 0.17100  0.34190  0.27560  Biso   1.000  C
  H213     1.0000 0.82500  0.69490  0.68880  Biso   1.000  H
  H214     1.0000 0.17500  0.30510  0.31120  Biso   1.000  H
  H215     1.0000 0.88680  0.66650  0.73790  Biso   1.000  H
  H216     1.0000 0.11320  0.33350  0.26210  Biso   1.000  H
  C221     1.0000 0.75300  0.67300  0.78200  Biso   1.000  C
  C222     1.0000 0.24700  0.32700  0.21800  Biso   1.000  C
  H217     1.0000 0.78500  0.66580  0.81860  Biso   1.000  H
  H218     1.0000 0.21500  0.33420  0.18140  Biso   1.000  H
  H219     1.0000 0.71340  0.63340  0.78920  Biso   1.000  H
  H220     1.0000 0.28660  0.36660  0.21080  Biso   1.000  H
  C223     1.0000 0.67330  0.73680  0.86400  Biso   1.000  C
  C224     1.0000 0.32670  0.26320  0.13600  Biso   1.000  C
  H221     1.0000 0.63490  0.77730  0.87200  Biso   1.000  H
  H222     1.0000 0.36510  0.22270  0.12800  Biso   1.000  H
  H223     1.0000 0.73610  0.74280  0.86980  Biso   1.000  H
  H224     1.0000 0.26390  0.25720  0.13020  Biso   1.000  H
  H225     1.0000 0.64280  0.69980  0.89640  Biso   1.000  H
  H226     1.0000 0.35720  0.30020  0.10360  Biso   1.000  H
  C225     1.0000 0.06700  0.74770  0.64600  Biso   1.000  C
  C226     1.0000 0.93300  0.25230  0.35400  Biso   1.000  C
  C227     1.0000 0.99900  0.84800  0.67150  Biso   1.000  C
  C228     1.0000 0.00100  0.15200  0.32850  Biso   1.000  C
  C229     1.0000 0.89700  0.85850  0.71040  Biso   1.000  C
  C230     1.0000 0.10300  0.14150  0.28960  Biso   1.000  C
  C231     1.0000 0.77630  0.83990  0.82510  Biso   1.000  C
  C232     1.0000 0.22370  0.16010  0.17490  Biso   1.000  C
  C233     1.0000 0.24410  0.65360  0.04620  Biso   1.000  C
  C234     1.0000 0.75590  0.34640  0.95380  Biso   1.000  C
  C235     1.0000 0.39310  0.67360  0.97650  Biso   1.000  C
  C236     1.0000 0.60690  0.32640  0.02350  Biso   1.000  C
  C237     1.0000 0.40500  0.69840  0.89680  Biso   1.000  C
  C238     1.0000 0.59500  0.30160  0.10320  Biso   1.000  C
  C239     1.0000 0.57860  0.69200  0.79760  Biso   1.000  C
  C240     1.0000 0.42140  0.30800  0.20240  Biso   1.000  C
  C241     1.0000 0.44480  0.74950  0.69150  Biso   1.000  C
  C242     1.0000 0.55520  0.25050  0.30850  Biso   1.000  C
  C243     1.0000 0.35200  0.83760  0.62730  Biso   1.000  C
  C244     1.0000 0.64800  0.16240  0.37270  Biso   1.000  C
  C245     1.0000 0.27220  0.86890  0.59650  Biso   1.000  C
  C246     1.0000 0.72780  0.13110  0.40350  Biso   1.000  C
  C247     1.0000 0.16800  0.92200  0.53200  Biso   1.000  C
  C248     1.0000 0.83200  0.07800  0.46800  Biso   1.000  C
  C249     1.0000 0.02290  0.35640  0.80330  Biso   1.000  C
  C250     1.0000 0.97710  0.64360  0.19670  Biso   1.000  C
  C251     1.0000 0.92910  0.34170  0.82590  Biso   1.000  C
  C252     1.0000 0.07090  0.65830  0.17410  Biso   1.000  C
  C253     1.0000 0.86110  0.38380  0.85840  Biso   1.000  C
  C254     1.0000 0.13890  0.61620  0.14160  Biso   1.000  C
  C255     1.0000 0.95690  0.57670  0.37410  Biso   1.000  C
  C256     1.0000 0.04310  0.42330  0.62590  Biso   1.000  C
  C257     1.0000 0.88930  0.43870  0.86690  Biso   1.000  C
  C258     1.0000 0.11070  0.56130  0.13310  Biso   1.000  C
  C259     1.0000 0.97420  0.45970  0.85820  Biso   1.000  C
  C260     1.0000 0.02580  0.54030  0.14180  Biso   1.000  C
  C261     1.0000 0.05460  0.41670  0.80940  Biso   1.000  C
  C262     1.0000 0.94540  0.58330  0.19060  Biso   1.000  C
  C263     1.0000 0.01140  0.53890  0.41000  Biso   1.000  C
  C264     1.0000 0.98860  0.46110  0.59000  Biso   1.000  C
  C265     1.0000 0.81710  0.79220  0.42890  Biso   1.000  C
  C266     1.0000 0.18290  0.20780  0.57110  Biso   1.000  C
  C267     1.0000 0.91400  0.77200  0.40330  Biso   1.000  C
  C268     1.0000 0.08600  0.22800  0.59670  Biso   1.000  C
  C269     1.0000 0.98540  0.80490  0.41490  Biso   1.000  C
  C270     1.0000 0.01460  0.19510  0.58510  Biso   1.000  C
  C271     1.0000 0.96260  0.85680  0.45470  Biso   1.000  C
  C272     1.0000 0.03740  0.14320  0.54530  Biso   1.000  C
  C273     1.0000 0.86730  0.87820  0.48130  Biso   1.000  C
  C274     1.0000 0.13270  0.12180  0.51870  Biso   1.000  C
  C275     1.0000 0.79610  0.84340  0.47020  Biso   1.000  C
  C276     1.0000 0.20390  0.15660  0.52980  Biso   1.000  C
  C277     1.0000 0.87800  0.53790  0.50800  Biso   1.000  C
  C278     1.0000 0.12200  0.46210  0.49200  Biso   1.000  C
  C279     1.0000 0.83200  0.58400  0.46900  Biso   1.000  C
  C280     1.0000 0.16800  0.41600  0.53100  Biso   1.000  C
  H227     1.0000 0.11960  0.75170  0.66580  Biso   1.000  H
  H228     1.0000 0.88040  0.24830  0.33420  Biso   1.000  H
  H229     1.0000 0.08540  0.76350  0.59790  Biso   1.000  H
  H230     1.0000 0.91460  0.23650  0.40210  Biso   1.000  H
  H231     1.0000 0.04880  0.70120  0.65310  Biso   1.000  H
  H232     1.0000 0.95120  0.29880  0.34690  Biso   1.000  H
  H233     1.0000 0.01240  0.87040  0.62460  Biso   1.000  H
  H234     1.0000 0.98760  0.12960  0.37540  Biso   1.000  H
  H235     1.0000 0.04380  0.86290  0.69440  Biso   1.000  H
  H236     1.0000 0.95620  0.13710  0.30560  Biso   1.000  H
  H237     1.0000 0.87560  0.90210  0.69210  Biso   1.000  H
  H238     1.0000 0.12440  0.09790  0.30790  Biso   1.000  H
  H239     1.0000 0.85940  0.82460  0.70020  Biso   1.000  H
  H240     1.0000 0.14060  0.17540  0.29980  Biso   1.000  H
  H241     1.0000 0.76030  0.79530  0.81970  Biso   1.000  H
  H242     1.0000 0.23970  0.20470  0.18030  Biso   1.000  H
  H243     1.0000 0.73050  0.87210  0.81190  Biso   1.000  H
  H244     1.0000 0.26950  0.12790  0.18810  Biso   1.000  H
  H245     1.0000 0.77470  0.84160  0.87240  Biso   1.000  H
  H246     1.0000 0.22530  0.15840  0.12760  Biso   1.000  H
  H247     1.0000 0.25560  0.68700  0.07280  Biso   1.000  H
  H248     1.0000 0.74440  0.31300  0.92720  Biso   1.000  H
  H249     1.0000 0.26760  0.61030  0.06250  Biso   1.000  H
  H250     1.0000 0.73240  0.38970  0.93750  Biso   1.000  H
  H251     1.0000 0.17610  0.65160  0.05120  Biso   1.000  H
  H252     1.0000 0.82390  0.34840  0.94880  Biso   1.000  H
  H253     1.0000 0.91010  0.30020  0.81870  Biso   1.000  H
  H254     1.0000 0.08990  0.69980  0.18130  Biso   1.000  H
  H255     1.0000 0.42280  0.63000  0.98660  Biso   1.000  H
  H256     1.0000 0.57720  0.37000  0.01340  Biso   1.000  H
  H257     1.0000 0.40640  0.70710  0.00290  Biso   1.000  H
  H258     1.0000 0.59360  0.29290  0.99710  Biso   1.000  H
  H259     1.0000 0.79650  0.37240  0.87370  Biso   1.000  H
  H260     1.0000 0.20350  0.62760  0.12630  Biso   1.000  H
  H261     1.0000 0.34480  0.68480  0.89100  Biso   1.000  H
  H262     1.0000 0.65520  0.31520  0.10900  Biso   1.000  H
  H263     1.0000 0.39820  0.74700  0.89680  Biso   1.000  H
  H264     1.0000 0.60180  0.25300  0.10320  Biso   1.000  H
  H265     1.0000 0.98320  0.59090  0.32750  Biso   1.000  H
  H266     1.0000 0.01680  0.40910  0.67250  Biso   1.000  H
  H267     1.0000 0.84010  0.46910  0.88390  Biso   1.000  H
  H268     1.0000 0.15990  0.53090  0.11610  Biso   1.000  H
  H269     1.0000 0.60510  0.65350  0.82060  Biso   1.000  H
  H270     1.0000 0.39490  0.34650  0.17940  Biso   1.000  H
  H271     1.0000 0.60420  0.73250  0.80560  Biso   1.000  H
  H272     1.0000 0.39580  0.26750  0.19440  Biso   1.000  H
  H273     1.0000 0.59520  0.68900  0.74900  Biso   1.000  H
  H274     1.0000 0.40480  0.31100  0.25100  Biso   1.000  H
  H275     1.0000 0.95600  0.46270  0.90540  Biso   1.000  H
  H276     1.0000 0.04400  0.53730  0.09460  Biso   1.000  H
  H277     1.0000 0.51180  0.74810  0.69080  Biso   1.000  H
  H278     1.0000 0.48820  0.25190  0.30920  Biso   1.000  H
  H279     1.0000 0.42720  0.70640  0.68320  Biso   1.000  H
  H280     1.0000 0.57280  0.29360  0.31680  Biso   1.000  H
  H281     1.0000 0.40650  0.75950  0.73580  Biso   1.000  H
  H282     1.0000 0.59350  0.24050  0.26420  Biso   1.000  H
  H283     1.0000 0.11680  0.42760  0.78320  Biso   1.000  H
  H284     1.0000 0.88320  0.57240  0.21680  Biso   1.000  H
  H285     1.0000 0.37670  0.88050  0.63160  Biso   1.000  H
  H286     1.0000 0.62330  0.11950  0.36840  Biso   1.000  H
  H287     1.0000 0.30980  0.82460  0.67280  Biso   1.000  H
  H288     1.0000 0.69020  0.17540  0.32720  Biso   1.000  H
  H289     1.0000 0.21790  0.84080  0.62130  Biso   1.000  H
  H290     1.0000 0.78210  0.15920  0.37870  Biso   1.000  H
  H291     1.0000 0.25890  0.91130  0.61590  Biso   1.000  H
  H292     1.0000 0.74110  0.08870  0.38410  Biso   1.000  H
  H293     1.0000 0.12080  0.89310  0.52550  Biso   1.000  H
  H294     1.0000 0.87920  0.10690  0.47450  Biso   1.000  H
  H295     1.0000 0.17830  0.95960  0.49520  Biso   1.000  H
  H296     1.0000 0.82170  0.04040  0.50480  Biso   1.000  H
  H297     1.0000 0.14420  0.93920  0.57530  Biso   1.000  H
  H298     1.0000 0.85580  0.06080  0.42470  Biso   1.000  H
  H299     1.0000 0.07430  0.52590  0.38890  Biso   1.000  H
  H300     1.0000 0.92570  0.47410  0.61110  Biso   1.000  H
  H301     1.0000 0.92870  0.73550  0.37810  Biso   1.000  H
  H302     1.0000 0.07130  0.26450  0.62190  Biso   1.000  H
  H303     1.0000 0.04950  0.79270  0.39610  Biso   1.000  H
  H304     1.0000 0.95050  0.20730  0.60390  Biso   1.000  H
  H305     1.0000 0.01200  0.87840  0.46440  Biso   1.000  H
  H306     1.0000 0.98800  0.12160  0.53560  Biso   1.000  H
  H307     1.0000 0.85310  0.91530  0.50580  Biso   1.000  H
  H308     1.0000 0.14690  0.08470  0.49420  Biso   1.000  H
  H309     1.0000 0.73210  0.85420  0.49080  Biso   1.000  H
  H310     1.0000 0.26790  0.14580  0.50920  Biso   1.000  H
  H311     1.0000 0.84600  0.51960  0.55210  Biso   1.000  H
  H312     1.0000 0.15400  0.48040  0.44790  Biso   1.000  H
  H313     1.0000 0.77690  0.60700  0.49150  Biso   1.000  H
  H314     1.0000 0.22310  0.39300  0.50850  Biso   1.000  H
  O13      1.0000 0.47300  0.69400  0.82480  Biso   1.000  O
  O14      1.0000 0.52700  0.30600  0.17520  Biso   1.000  O
  O15      1.0000 0.42800  0.80060  0.63910  Biso   1.000  O
  O16      1.0000 0.57200  0.19940  0.36090  Biso   1.000  O
  O17      1.0000 0.25370  0.88650  0.52950  Biso   1.000  O
  O18      1.0000 0.74630  0.11350  0.47050  Biso   1.000  O
  O19      1.0000 0.00000  0.78050  0.67400  Biso   1.000  O
  O20      1.0000 0.00000  0.21950  0.32600  Biso   1.000  O
  O21      1.0000 0.87500  0.85630  0.78020  Biso   1.000  O
  O22      1.0000 0.12500  0.14370  0.21980  Biso   1.000  O
  O23      1.0000 0.29370  0.67180  0.97400  Biso   1.000  O
  O24      1.0000 0.70630  0.32820  0.02600  Biso   1.000  O
