data_image0
_cell_length_a       25.775
_cell_length_b       10.576
_cell_length_c       22.99
_cell_angle_alpha    90
_cell_angle_beta     121.24
_cell_angle_gamma    90

_symmetry_space_group_name_H-M    "P 1"
_symmetry_int_tables_number       1

loop_
  _symmetry_equiv_pos_as_xyz
  'x, y, z'

loop_
  _atom_site_label
  _atom_site_occupancy
  _atom_site_fract_x
  _atom_site_fract_y
  _atom_site_fract_z
  _atom_site_thermal_displace_type
  _atom_site_B_iso_or_equiv
  _atom_site_type_symbol
  Cu1      1.0000 0.00500  0.82802  0.31115  Biso   1.000  Cu
  Cu2      1.0000 0.99500  0.82802  0.18885  Biso   1.000  Cu
  Cu3      1.0000 0.50500  0.32802  0.31115  Biso   1.000  Cu
  Cu4      1.0000 0.49500  0.32802  0.18885  Biso   1.000  Cu
  Cu5      1.0000 0.99500  0.17198  0.68885  Biso   1.000  Cu
  Cu6      1.0000 0.00500  0.17198  0.81115  Biso   1.000  Cu
  Cu7      1.0000 0.49500  0.67198  0.68885  Biso   1.000  Cu
  Cu8      1.0000 0.50500  0.67198  0.81115  Biso   1.000  Cu
  Se1      1.0000 0.09462  0.79941  0.30080  Biso   1.000  Se
  Se2      1.0000 0.90538  0.79941  0.19920  Biso   1.000  Se
  Se3      1.0000 0.59462  0.29941  0.30080  Biso   1.000  Se
  Se4      1.0000 0.40538  0.29941  0.19920  Biso   1.000  Se
  Se5      1.0000 0.90538  0.20059  0.69920  Biso   1.000  Se
  Se6      1.0000 0.09462  0.20059  0.80080  Biso   1.000  Se
  Se7      1.0000 0.40538  0.70059  0.69920  Biso   1.000  Se
  Se8      1.0000 0.59462  0.70059  0.80080  Biso   1.000  Se
  P1       1.0000 0.99613  0.03139  0.33250  Biso   1.000  P
  P2       1.0000 0.00387  0.03139  0.16750  Biso   1.000  P
  P3       1.0000 0.49613  0.53139  0.33250  Biso   1.000  P
  P4       1.0000 0.50387  0.53139  0.16750  Biso   1.000  P
  P5       1.0000 0.00387  0.96861  0.66750  Biso   1.000  P
  P6       1.0000 0.99613  0.96861  0.83250  Biso   1.000  P
  P7       1.0000 0.50387  0.46861  0.66750  Biso   1.000  P
  P8       1.0000 0.49613  0.46861  0.83250  Biso   1.000  P
  N1       1.0000 0.00350  0.70140  0.37790  Biso   1.000  N
  N2       1.0000 0.99650  0.70140  0.12210  Biso   1.000  N
  N3       1.0000 0.50350  0.20140  0.37790  Biso   1.000  N
  N4       1.0000 0.49650  0.20140  0.12210  Biso   1.000  N
  N5       1.0000 0.99650  0.29860  0.62210  Biso   1.000  N
  N6       1.0000 0.00350  0.29860  0.87790  Biso   1.000  N
  N7       1.0000 0.49650  0.79860  0.62210  Biso   1.000  N
  N8       1.0000 0.50350  0.79860  0.87790  Biso   1.000  N
  C1       1.0000 0.12100  0.62580  0.31930  Biso   1.000  C
  C2       1.0000 0.87900  0.62580  0.18070  Biso   1.000  C
  C3       1.0000 0.62100  0.12580  0.31930  Biso   1.000  C
  C4       1.0000 0.37900  0.12580  0.18070  Biso   1.000  C
  C5       1.0000 0.87900  0.37420  0.68070  Biso   1.000  C
  C6       1.0000 0.12100  0.37420  0.81930  Biso   1.000  C
  C7       1.0000 0.37900  0.87420  0.68070  Biso   1.000  C
  C8       1.0000 0.62100  0.87420  0.81930  Biso   1.000  C
  C9       1.0000 0.17770  0.59510  0.33170  Biso   1.000  C
  C10      1.0000 0.82230  0.59510  0.16830  Biso   1.000  C
  C11      1.0000 0.67770  0.09510  0.33170  Biso   1.000  C
  C12      1.0000 0.32230  0.09510  0.16830  Biso   1.000  C
  C13      1.0000 0.82230  0.40490  0.66830  Biso   1.000  C
  C14      1.0000 0.17770  0.40490  0.83170  Biso   1.000  C
  C15      1.0000 0.32230  0.90490  0.66830  Biso   1.000  C
  C16      1.0000 0.67770  0.90490  0.83170  Biso   1.000  C
  H1       1.0000 0.20320  0.65930  0.33120  Biso   1.000  H
  H2       1.0000 0.79680  0.65930  0.16880  Biso   1.000  H
  H3       1.0000 0.70320  0.15930  0.33120  Biso   1.000  H
  H4       1.0000 0.29680  0.15930  0.16880  Biso   1.000  H
  H5       1.0000 0.79680  0.34070  0.66880  Biso   1.000  H
  H6       1.0000 0.20320  0.34070  0.83120  Biso   1.000  H
  H7       1.0000 0.29680  0.84070  0.66880  Biso   1.000  H
  H8       1.0000 0.70320  0.84070  0.83120  Biso   1.000  H
  C17      1.0000 0.19800  0.47050  0.34500  Biso   1.000  C
  C18      1.0000 0.80200  0.47050  0.15500  Biso   1.000  C
  C19      1.0000 0.69800  0.97050  0.34500  Biso   1.000  C
  C20      1.0000 0.30200  0.97050  0.15500  Biso   1.000  C
  C21      1.0000 0.80200  0.52950  0.65500  Biso   1.000  C
  C22      1.0000 0.19800  0.52950  0.84500  Biso   1.000  C
  C23      1.0000 0.30200  0.02950  0.65500  Biso   1.000  C
  C24      1.0000 0.69800  0.02950  0.84500  Biso   1.000  C
  H9       1.0000 0.23680  0.45040  0.35210  Biso   1.000  H
  H10      1.0000 0.76320  0.45040  0.14790  Biso   1.000  H
  H11      1.0000 0.73680  0.95040  0.35210  Biso   1.000  H
  H12      1.0000 0.26320  0.95040  0.14790  Biso   1.000  H
  H13      1.0000 0.76320  0.54960  0.64790  Biso   1.000  H
  H14      1.0000 0.23680  0.54960  0.85210  Biso   1.000  H
  H15      1.0000 0.26320  0.04960  0.64790  Biso   1.000  H
  H16      1.0000 0.73680  0.04960  0.85210  Biso   1.000  H
  C25      1.0000 0.16320  0.37750  0.34780  Biso   1.000  C
  C26      1.0000 0.83680  0.37750  0.15220  Biso   1.000  C
  C27      1.0000 0.66320  0.87750  0.34780  Biso   1.000  C
  C28      1.0000 0.33680  0.87750  0.15220  Biso   1.000  C
  C29      1.0000 0.83680  0.62250  0.65220  Biso   1.000  C
  C30      1.0000 0.16320  0.62250  0.84780  Biso   1.000  C
  C31      1.0000 0.33680  0.12250  0.65220  Biso   1.000  C
  C32      1.0000 0.66320  0.12250  0.84780  Biso   1.000  C
  H17      1.0000 0.17780  0.29310  0.35780  Biso   1.000  H
  H18      1.0000 0.82220  0.29310  0.14220  Biso   1.000  H
  H19      1.0000 0.67780  0.79310  0.35780  Biso   1.000  H
  H20      1.0000 0.32220  0.79310  0.14220  Biso   1.000  H
  H21      1.0000 0.82220  0.70690  0.64220  Biso   1.000  H
  H22      1.0000 0.17780  0.70690  0.85780  Biso   1.000  H
  H23      1.0000 0.32220  0.20690  0.64220  Biso   1.000  H
  H24      1.0000 0.67780  0.20690  0.85780  Biso   1.000  H
  C33      1.0000 0.10680  0.40700  0.33610  Biso   1.000  C
  C34      1.0000 0.89320  0.40700  0.16390  Biso   1.000  C
  C35      1.0000 0.60680  0.90700  0.33610  Biso   1.000  C
  C36      1.0000 0.39320  0.90700  0.16390  Biso   1.000  C
  C37      1.0000 0.89320  0.59300  0.66390  Biso   1.000  C
  C38      1.0000 0.10680  0.59300  0.83610  Biso   1.000  C
  C39      1.0000 0.39320  0.09300  0.66390  Biso   1.000  C
  C40      1.0000 0.60680  0.09300  0.83610  Biso   1.000  C
  H25      1.0000 0.08190  0.34210  0.33760  Biso   1.000  H
  H26      1.0000 0.91810  0.34210  0.16240  Biso   1.000  H
  H27      1.0000 0.58190  0.84210  0.33760  Biso   1.000  H
  H28      1.0000 0.41810  0.84210  0.16240  Biso   1.000  H
  H29      1.0000 0.91810  0.65790  0.66240  Biso   1.000  H
  H30      1.0000 0.08190  0.65790  0.83760  Biso   1.000  H
  H31      1.0000 0.41810  0.15790  0.66240  Biso   1.000  H
  H32      1.0000 0.58190  0.15790  0.83760  Biso   1.000  H
  C41      1.0000 0.08540  0.53060  0.32210  Biso   1.000  C
  C42      1.0000 0.91460  0.53060  0.17790  Biso   1.000  C
  C43      1.0000 0.58540  0.03060  0.32210  Biso   1.000  C
  C44      1.0000 0.41460  0.03060  0.17790  Biso   1.000  C
  C45      1.0000 0.91460  0.46940  0.67790  Biso   1.000  C
  C46      1.0000 0.08540  0.46940  0.82210  Biso   1.000  C
  C47      1.0000 0.41460  0.96940  0.67790  Biso   1.000  C
  C48      1.0000 0.58540  0.96940  0.82210  Biso   1.000  C
  H33      1.0000 0.04630  0.54990  0.31430  Biso   1.000  H
  H34      1.0000 0.95370  0.54990  0.18570  Biso   1.000  H
  H35      1.0000 0.54630  0.04990  0.31430  Biso   1.000  H
  H36      1.0000 0.45370  0.04990  0.18570  Biso   1.000  H
  H37      1.0000 0.95370  0.45010  0.68570  Biso   1.000  H
  H38      1.0000 0.04630  0.45010  0.81430  Biso   1.000  H
  H39      1.0000 0.45370  0.95010  0.68570  Biso   1.000  H
  H40      1.0000 0.54630  0.95010  0.81430  Biso   1.000  H
  C49      1.0000 0.04740  0.69750  0.44210  Biso   1.000  C
  C50      1.0000 0.95260  0.69750  0.05790  Biso   1.000  C
  C51      1.0000 0.54740  0.19750  0.44210  Biso   1.000  C
  C52      1.0000 0.45260  0.19750  0.05790  Biso   1.000  C
  C53      1.0000 0.95260  0.30250  0.55790  Biso   1.000  C
  C54      1.0000 0.04740  0.30250  0.94210  Biso   1.000  C
  C55      1.0000 0.45260  0.80250  0.55790  Biso   1.000  C
  C56      1.0000 0.54740  0.80250  0.94210  Biso   1.000  C
  H41      1.0000 0.08080  0.75320  0.45600  Biso   1.000  H
  H42      1.0000 0.91920  0.75320  0.04400  Biso   1.000  H
  H43      1.0000 0.58080  0.25320  0.45600  Biso   1.000  H
  H44      1.0000 0.41920  0.25320  0.04400  Biso   1.000  H
  H45      1.0000 0.91920  0.24680  0.54400  Biso   1.000  H
  H46      1.0000 0.08080  0.24680  0.95600  Biso   1.000  H
  H47      1.0000 0.41920  0.74680  0.54400  Biso   1.000  H
  H48      1.0000 0.58080  0.74680  0.95600  Biso   1.000  H
  C57      1.0000 0.04900  0.61920  0.49080  Biso   1.000  C
  C58      1.0000 0.95100  0.61920  0.00920  Biso   1.000  C
  C59      1.0000 0.54900  0.11920  0.49080  Biso   1.000  C
  C60      1.0000 0.45100  0.11920  0.00920  Biso   1.000  C
  C61      1.0000 0.95100  0.38080  0.50920  Biso   1.000  C
  C62      1.0000 0.04900  0.38080  0.99080  Biso   1.000  C
  C63      1.0000 0.45100  0.88080  0.50920  Biso   1.000  C
  C64      1.0000 0.54900  0.88080  0.99080  Biso   1.000  C
  H49      1.0000 0.08340  0.61890  0.53570  Biso   1.000  H
  H50      1.0000 0.91660  0.61890  0.96430  Biso   1.000  H
  H51      1.0000 0.58340  0.11890  0.53570  Biso   1.000  H
  H52      1.0000 0.41660  0.11890  0.96430  Biso   1.000  H
  H53      1.0000 0.91660  0.38110  0.46430  Biso   1.000  H
  H54      1.0000 0.08340  0.38110  0.03570  Biso   1.000  H
  H55      1.0000 0.41660  0.88110  0.46430  Biso   1.000  H
  H56      1.0000 0.58340  0.88110  0.03570  Biso   1.000  H
  C65      1.0000 0.00040  0.54130  0.47410  Biso   1.000  C
  C66      1.0000 0.99960  0.54130  0.02590  Biso   1.000  C
  C67      1.0000 0.50040  0.04130  0.47410  Biso   1.000  C
  C68      1.0000 0.49960  0.04130  0.02590  Biso   1.000  C
  C69      1.0000 0.99960  0.45870  0.52590  Biso   1.000  C
  C70      1.0000 0.00040  0.45870  0.97410  Biso   1.000  C
  C71      1.0000 0.49960  0.95870  0.52590  Biso   1.000  C
  C72      1.0000 0.50040  0.95870  0.97410  Biso   1.000  C
  C73      1.0000 0.95560  0.54600  0.40810  Biso   1.000  C
  C74      1.0000 0.04440  0.54600  0.09190  Biso   1.000  C
  C75      1.0000 0.45560  0.04600  0.40810  Biso   1.000  C
  C76      1.0000 0.54440  0.04600  0.09190  Biso   1.000  C
  C77      1.0000 0.04440  0.45400  0.59190  Biso   1.000  C
  C78      1.0000 0.95560  0.45400  0.90810  Biso   1.000  C
  C79      1.0000 0.54440  0.95400  0.59190  Biso   1.000  C
  C80      1.0000 0.45560  0.95400  0.90810  Biso   1.000  C
  H57      1.0000 0.92100  0.49340  0.39300  Biso   1.000  H
  H58      1.0000 0.07900  0.49340  0.10700  Biso   1.000  H
  H59      1.0000 0.42100  0.99340  0.39300  Biso   1.000  H
  H60      1.0000 0.57900  0.99340  0.10700  Biso   1.000  H
  H61      1.0000 0.07900  0.50660  0.60700  Biso   1.000  H
  H62      1.0000 0.92100  0.50660  0.89300  Biso   1.000  H
  H63      1.0000 0.57900  0.00660  0.60700  Biso   1.000  H
  H64      1.0000 0.42100  0.00660  0.89300  Biso   1.000  H
  C81      1.0000 0.95840  0.62440  0.36210  Biso   1.000  C
  C82      1.0000 0.04160  0.62440  0.13790  Biso   1.000  C
  C83      1.0000 0.45840  0.12440  0.36210  Biso   1.000  C
  C84      1.0000 0.54160  0.12440  0.13790  Biso   1.000  C
  C85      1.0000 0.04160  0.37560  0.63790  Biso   1.000  C
  C86      1.0000 0.95840  0.37560  0.86210  Biso   1.000  C
  C87      1.0000 0.54160  0.87560  0.63790  Biso   1.000  C
  C88      1.0000 0.45840  0.87560  0.86210  Biso   1.000  C
  H65      1.0000 0.92560  0.62260  0.31620  Biso   1.000  H
  H66      1.0000 0.07440  0.62260  0.18380  Biso   1.000  H
  H67      1.0000 0.42560  0.12260  0.31620  Biso   1.000  H
  H68      1.0000 0.57440  0.12260  0.18380  Biso   1.000  H
  H69      1.0000 0.07440  0.37740  0.68380  Biso   1.000  H
  H70      1.0000 0.92560  0.37740  0.81620  Biso   1.000  H
  H71      1.0000 0.57440  0.87740  0.68380  Biso   1.000  H
  H72      1.0000 0.42560  0.87740  0.81620  Biso   1.000  H
  C89      1.0000 0.93810  0.06810  0.35300  Biso   1.000  C
  C90      1.0000 0.06190  0.06810  0.14700  Biso   1.000  C
  C91      1.0000 0.43810  0.56810  0.35300  Biso   1.000  C
  C92      1.0000 0.56190  0.56810  0.14700  Biso   1.000  C
  C93      1.0000 0.06190  0.93190  0.64700  Biso   1.000  C
  C94      1.0000 0.93810  0.93190  0.85300  Biso   1.000  C
  C95      1.0000 0.56190  0.43190  0.64700  Biso   1.000  C
  C96      1.0000 0.43810  0.43190  0.85300  Biso   1.000  C
  C97      1.0000 0.93840  0.99800  0.40330  Biso   1.000  C
  C98      1.0000 0.06160  0.99800  0.09670  Biso   1.000  C
  C99      1.0000 0.43840  0.49800  0.40330  Biso   1.000  C
  C100     1.0000 0.56160  0.49800  0.09670  Biso   1.000  C
  C101     1.0000 0.06160  0.00200  0.59670  Biso   1.000  C
  C102     1.0000 0.93840  0.00200  0.90330  Biso   1.000  C
  C103     1.0000 0.56160  0.50200  0.59670  Biso   1.000  C
  C104     1.0000 0.43840  0.50200  0.90330  Biso   1.000  C
  H73      1.0000 0.96710  0.93160  0.42440  Biso   1.000  H
  H74      1.0000 0.03290  0.93160  0.07560  Biso   1.000  H
  H75      1.0000 0.46710  0.43160  0.42440  Biso   1.000  H
  H76      1.0000 0.53290  0.43160  0.07560  Biso   1.000  H
  H77      1.0000 0.03290  0.06840  0.57560  Biso   1.000  H
  H78      1.0000 0.96710  0.06840  0.92440  Biso   1.000  H
  H79      1.0000 0.53290  0.56840  0.57560  Biso   1.000  H
  H80      1.0000 0.46710  0.56840  0.92440  Biso   1.000  H
  C105     1.0000 0.89700  0.02250  0.42440  Biso   1.000  C
  C106     1.0000 0.10300  0.02250  0.07560  Biso   1.000  C
  C107     1.0000 0.39700  0.52250  0.42440  Biso   1.000  C
  C108     1.0000 0.60300  0.52250  0.07560  Biso   1.000  C
  C109     1.0000 0.10300  0.97750  0.57560  Biso   1.000  C
  C110     1.0000 0.89700  0.97750  0.92440  Biso   1.000  C
  C111     1.0000 0.60300  0.47750  0.57560  Biso   1.000  C
  C112     1.0000 0.39700  0.47750  0.92440  Biso   1.000  C
  H81      1.0000 0.89790  0.97290  0.45930  Biso   1.000  H
  H82      1.0000 0.10210  0.97290  0.04070  Biso   1.000  H
  H83      1.0000 0.39790  0.47290  0.45930  Biso   1.000  H
  H84      1.0000 0.60210  0.47290  0.04070  Biso   1.000  H
  H85      1.0000 0.10210  0.02710  0.54070  Biso   1.000  H
  H86      1.0000 0.89790  0.02710  0.95930  Biso   1.000  H
  H87      1.0000 0.60210  0.52710  0.54070  Biso   1.000  H
  H88      1.0000 0.39790  0.52710  0.95930  Biso   1.000  H
  C113     1.0000 0.85570  0.11760  0.39470  Biso   1.000  C
  C114     1.0000 0.14430  0.11760  0.10530  Biso   1.000  C
  C115     1.0000 0.35570  0.61760  0.39470  Biso   1.000  C
  C116     1.0000 0.64430  0.61760  0.10530  Biso   1.000  C
  C117     1.0000 0.14430  0.88240  0.60530  Biso   1.000  C
  C118     1.0000 0.85570  0.88240  0.89470  Biso   1.000  C
  C119     1.0000 0.64430  0.38240  0.60530  Biso   1.000  C
  C120     1.0000 0.35570  0.38240  0.89470  Biso   1.000  C
  H89      1.0000 0.82780  0.13500  0.40900  Biso   1.000  H
  H90      1.0000 0.17220  0.13500  0.09100  Biso   1.000  H
  H91      1.0000 0.32780  0.63500  0.40900  Biso   1.000  H
  H92      1.0000 0.67220  0.63500  0.09100  Biso   1.000  H
  H93      1.0000 0.17220  0.86500  0.59100  Biso   1.000  H
  H94      1.0000 0.82780  0.86500  0.90900  Biso   1.000  H
  H95      1.0000 0.67220  0.36500  0.59100  Biso   1.000  H
  H96      1.0000 0.32780  0.36500  0.90900  Biso   1.000  H
  C121     1.0000 0.85470  0.18770  0.34400  Biso   1.000  C
  C122     1.0000 0.14530  0.18770  0.15600  Biso   1.000  C
  C123     1.0000 0.35470  0.68770  0.34400  Biso   1.000  C
  C124     1.0000 0.64530  0.68770  0.15600  Biso   1.000  C
  C125     1.0000 0.14530  0.81230  0.65600  Biso   1.000  C
  C126     1.0000 0.85470  0.81230  0.84400  Biso   1.000  C
  C127     1.0000 0.64530  0.31230  0.65600  Biso   1.000  C
  C128     1.0000 0.35470  0.31230  0.84400  Biso   1.000  C
  H97      1.0000 0.82580  0.25390  0.32310  Biso   1.000  H
  H98      1.0000 0.17420  0.25390  0.17690  Biso   1.000  H
  H99      1.0000 0.32580  0.75390  0.32310  Biso   1.000  H
  H100     1.0000 0.67420  0.75390  0.17690  Biso   1.000  H
  H101     1.0000 0.17420  0.74610  0.67690  Biso   1.000  H
  H102     1.0000 0.82580  0.74610  0.82310  Biso   1.000  H
  H103     1.0000 0.67420  0.24610  0.67690  Biso   1.000  H
  H104     1.0000 0.32580  0.24610  0.82310  Biso   1.000  H
  C129     1.0000 0.89520  0.16320  0.32300  Biso   1.000  C
  C130     1.0000 0.10480  0.16320  0.17700  Biso   1.000  C
  C131     1.0000 0.39520  0.66320  0.32300  Biso   1.000  C
  C132     1.0000 0.60480  0.66320  0.17700  Biso   1.000  C
  C133     1.0000 0.10480  0.83680  0.67700  Biso   1.000  C
  C134     1.0000 0.89520  0.83680  0.82300  Biso   1.000  C
  C135     1.0000 0.60480  0.33680  0.67700  Biso   1.000  C
  C136     1.0000 0.39520  0.33680  0.82300  Biso   1.000  C
  H105     1.0000 0.89350  0.21230  0.28740  Biso   1.000  H
  H106     1.0000 0.10650  0.21230  0.21260  Biso   1.000  H
  H107     1.0000 0.39350  0.71230  0.28740  Biso   1.000  H
  H108     1.0000 0.60650  0.71230  0.21260  Biso   1.000  H
  H109     1.0000 0.10650  0.78770  0.71260  Biso   1.000  H
  H110     1.0000 0.89350  0.78770  0.78740  Biso   1.000  H
  H111     1.0000 0.60650  0.28770  0.71260  Biso   1.000  H
  H112     1.0000 0.39350  0.28770  0.78740  Biso   1.000  H
  C137     1.0000 0.06230  0.11080  0.40270  Biso   1.000  C
  C138     1.0000 0.93770  0.11080  0.09730  Biso   1.000  C
  C139     1.0000 0.56230  0.61080  0.40270  Biso   1.000  C
  C140     1.0000 0.43770  0.61080  0.09730  Biso   1.000  C
  C141     1.0000 0.93770  0.88920  0.59730  Biso   1.000  C
  C142     1.0000 0.06230  0.88920  0.90270  Biso   1.000  C
  C143     1.0000 0.43770  0.38920  0.59730  Biso   1.000  C
  C144     1.0000 0.56230  0.38920  0.90270  Biso   1.000  C
  C145     1.0000 0.05850  0.21950  0.43500  Biso   1.000  C
  C146     1.0000 0.94150  0.21950  0.06500  Biso   1.000  C
  C147     1.0000 0.55850  0.71950  0.43500  Biso   1.000  C
  C148     1.0000 0.44150  0.71950  0.06500  Biso   1.000  C
  C149     1.0000 0.94150  0.78050  0.56500  Biso   1.000  C
  C150     1.0000 0.05850  0.78050  0.93500  Biso   1.000  C
  C151     1.0000 0.44150  0.28050  0.56500  Biso   1.000  C
  C152     1.0000 0.55850  0.28050  0.93500  Biso   1.000  C
  H113     1.0000 0.01980  0.25410  0.42140  Biso   1.000  H
  H114     1.0000 0.98020  0.25410  0.07860  Biso   1.000  H
  H115     1.0000 0.51980  0.75410  0.42140  Biso   1.000  H
  H116     1.0000 0.48020  0.75410  0.07860  Biso   1.000  H
  H117     1.0000 0.98020  0.74590  0.57860  Biso   1.000  H
  H118     1.0000 0.01980  0.74590  0.92140  Biso   1.000  H
  H119     1.0000 0.48020  0.24590  0.57860  Biso   1.000  H
  H120     1.0000 0.51980  0.24590  0.92140  Biso   1.000  H
  C153     1.0000 0.10970  0.27670  0.48590  Biso   1.000  C
  C154     1.0000 0.89030  0.27670  0.01410  Biso   1.000  C
  C155     1.0000 0.60970  0.77670  0.48590  Biso   1.000  C
  C156     1.0000 0.39030  0.77670  0.01410  Biso   1.000  C
  C157     1.0000 0.89030  0.72330  0.51410  Biso   1.000  C
  C158     1.0000 0.10970  0.72330  0.98590  Biso   1.000  C
  C159     1.0000 0.39030  0.22330  0.51410  Biso   1.000  C
  C160     1.0000 0.60970  0.22330  0.98590  Biso   1.000  C
  H121     1.0000 0.10620  0.35070  0.50710  Biso   1.000  H
  H122     1.0000 0.89380  0.35070  0.99290  Biso   1.000  H
  H123     1.0000 0.60620  0.85070  0.50710  Biso   1.000  H
  H124     1.0000 0.39380  0.85070  0.99290  Biso   1.000  H
  H125     1.0000 0.89380  0.64930  0.49290  Biso   1.000  H
  H126     1.0000 0.10620  0.64930  0.00710  Biso   1.000  H
  H127     1.0000 0.39380  0.14930  0.49290  Biso   1.000  H
  H128     1.0000 0.60620  0.14930  0.00710  Biso   1.000  H
  C161     1.0000 0.16620  0.22800  0.50670  Biso   1.000  C
  C162     1.0000 0.83380  0.22800  0.99330  Biso   1.000  C
  C163     1.0000 0.66620  0.72800  0.50670  Biso   1.000  C
  C164     1.0000 0.33380  0.72800  0.99330  Biso   1.000  C
  C165     1.0000 0.83380  0.77200  0.49330  Biso   1.000  C
  C166     1.0000 0.16620  0.77200  0.00670  Biso   1.000  C
  C167     1.0000 0.33380  0.27200  0.49330  Biso   1.000  C
  C168     1.0000 0.66620  0.27200  0.00670  Biso   1.000  C
  H129     1.0000 0.20150  0.26810  0.54220  Biso   1.000  H
  H130     1.0000 0.79850  0.26810  0.95780  Biso   1.000  H
  H131     1.0000 0.70150  0.76810  0.54220  Biso   1.000  H
  H132     1.0000 0.29850  0.76810  0.95780  Biso   1.000  H
  H133     1.0000 0.79850  0.73190  0.45780  Biso   1.000  H
  H134     1.0000 0.20150  0.73190  0.04220  Biso   1.000  H
  H135     1.0000 0.29850  0.23190  0.45780  Biso   1.000  H
  H136     1.0000 0.70150  0.23190  0.04220  Biso   1.000  H
  C169     1.0000 0.17180  0.12260  0.47640  Biso   1.000  C
  C170     1.0000 0.82820  0.12260  0.02360  Biso   1.000  C
  C171     1.0000 0.67180  0.62260  0.47640  Biso   1.000  C
  C172     1.0000 0.32820  0.62260  0.02360  Biso   1.000  C
  C173     1.0000 0.82820  0.87740  0.52360  Biso   1.000  C
  C174     1.0000 0.17180  0.87740  0.97640  Biso   1.000  C
  C175     1.0000 0.32820  0.37740  0.52360  Biso   1.000  C
  C176     1.0000 0.67180  0.37740  0.97640  Biso   1.000  C
  H137     1.0000 0.21090  0.08910  0.49070  Biso   1.000  H
  H138     1.0000 0.78910  0.08910  0.00930  Biso   1.000  H
  H139     1.0000 0.71090  0.58910  0.49070  Biso   1.000  H
  H140     1.0000 0.28910  0.58910  0.00930  Biso   1.000  H
  H141     1.0000 0.78910  0.91090  0.50930  Biso   1.000  H
  H142     1.0000 0.21090  0.91090  0.99070  Biso   1.000  H
  H143     1.0000 0.28910  0.41090  0.50930  Biso   1.000  H
  H144     1.0000 0.71090  0.41090  0.99070  Biso   1.000  H
  C177     1.0000 0.11990  0.06370  0.42430  Biso   1.000  C
  C178     1.0000 0.88010  0.06370  0.07570  Biso   1.000  C
  C179     1.0000 0.61990  0.56370  0.42430  Biso   1.000  C
  C180     1.0000 0.38010  0.56370  0.07570  Biso   1.000  C
  C181     1.0000 0.88010  0.93630  0.57570  Biso   1.000  C
  C182     1.0000 0.11990  0.93630  0.92430  Biso   1.000  C
  C183     1.0000 0.38010  0.43630  0.57570  Biso   1.000  C
  C184     1.0000 0.61990  0.43630  0.92430  Biso   1.000  C
  H145     1.0000 0.12410  0.99020  0.40330  Biso   1.000  H
  H146     1.0000 0.87590  0.99020  0.09670  Biso   1.000  H
  H147     1.0000 0.62410  0.49020  0.40330  Biso   1.000  H
  H148     1.0000 0.37590  0.49020  0.09670  Biso   1.000  H
  H149     1.0000 0.87590  0.00980  0.59670  Biso   1.000  H
  H150     1.0000 0.12410  0.00980  0.90330  Biso   1.000  H
  H151     1.0000 0.37590  0.50980  0.59670  Biso   1.000  H
  H152     1.0000 0.62410  0.50980  0.90330  Biso   1.000  H
  C185     1.0000 0.97700  0.13930  0.26210  Biso   1.000  C
  C186     1.0000 0.02300  0.13930  0.23790  Biso   1.000  C
  C187     1.0000 0.47700  0.63930  0.26210  Biso   1.000  C
  C188     1.0000 0.52300  0.63930  0.23790  Biso   1.000  C
  C189     1.0000 0.02300  0.86070  0.73790  Biso   1.000  C
  C190     1.0000 0.97700  0.86070  0.76210  Biso   1.000  C
  C191     1.0000 0.52300  0.36070  0.73790  Biso   1.000  C
  C192     1.0000 0.47700  0.36070  0.76210  Biso   1.000  C
  H153     1.0000 0.93660  0.11630  0.22320  Biso   1.000  H
  H154     1.0000 0.06340  0.11630  0.27680  Biso   1.000  H
  H155     1.0000 0.43660  0.61630  0.22320  Biso   1.000  H
  H156     1.0000 0.56340  0.61630  0.27680  Biso   1.000  H
  H157     1.0000 0.06340  0.88370  0.77680  Biso   1.000  H
  H158     1.0000 0.93660  0.88370  0.72320  Biso   1.000  H
  H159     1.0000 0.56340  0.38370  0.77680  Biso   1.000  H
  H160     1.0000 0.43660  0.38370  0.72320  Biso   1.000  H
  H161     1.0000 0.97420  0.22620  0.27630  Biso   1.000  H
  H162     1.0000 0.02580  0.22620  0.22370  Biso   1.000  H
  H163     1.0000 0.47420  0.72620  0.27630  Biso   1.000  H
  H164     1.0000 0.52580  0.72620  0.22370  Biso   1.000  H
  H165     1.0000 0.02580  0.77380  0.72370  Biso   1.000  H
  H166     1.0000 0.97420  0.77380  0.77630  Biso   1.000  H
  H167     1.0000 0.52580  0.27380  0.72370  Biso   1.000  H
  H168     1.0000 0.47420  0.27380  0.77630  Biso   1.000  H
  O1       1.0000 0.19040  0.41080  0.63970  Biso   1.000  O
  O2       1.0000 0.80960  0.41080  0.86030  Biso   1.000  O
  O3       1.0000 0.69040  0.91080  0.63970  Biso   1.000  O
  O4       1.0000 0.30960  0.91080  0.86030  Biso   1.000  O
  O5       1.0000 0.80960  0.58920  0.36030  Biso   1.000  O
  O6       1.0000 0.19040  0.58920  0.13970  Biso   1.000  O
  O7       1.0000 0.30960  0.08920  0.36030  Biso   1.000  O
  O8       1.0000 0.69040  0.08920  0.13970  Biso   1.000  O
  O9       1.0000 0.21930  0.54460  0.55270  Biso   1.000  O
  O10      1.0000 0.78070  0.54460  0.94730  Biso   1.000  O
  O11      1.0000 0.71930  0.04460  0.55270  Biso   1.000  O
  O12      1.0000 0.28070  0.04460  0.94730  Biso   1.000  O
  O13      1.0000 0.78070  0.45540  0.44730  Biso   1.000  O
  O14      1.0000 0.21930  0.45540  0.05270  Biso   1.000  O
  O15      1.0000 0.28070  0.95540  0.44730  Biso   1.000  O
  O16      1.0000 0.71930  0.95540  0.05270  Biso   1.000  O
  C193     1.0000 0.19700  0.30600  0.67800  Biso   1.000  C
  C194     1.0000 0.80300  0.30600  0.82200  Biso   1.000  C
  C195     1.0000 0.69700  0.80600  0.67800  Biso   1.000  C
  C196     1.0000 0.30300  0.80600  0.82200  Biso   1.000  C
  C197     1.0000 0.80300  0.69400  0.32200  Biso   1.000  C
  C198     1.0000 0.19700  0.69400  0.17800  Biso   1.000  C
  C199     1.0000 0.30300  0.19400  0.32200  Biso   1.000  C
  C200     1.0000 0.69700  0.19400  0.17800  Biso   1.000  C
  H169     1.0000 0.23740  0.26850  0.69410  Biso   1.000  H
  H170     1.0000 0.76260  0.26850  0.80590  Biso   1.000  H
  H171     1.0000 0.73740  0.76850  0.69410  Biso   1.000  H
  H172     1.0000 0.26260  0.76850  0.80590  Biso   1.000  H
  H173     1.0000 0.76260  0.73150  0.30590  Biso   1.000  H
  H174     1.0000 0.23740  0.73150  0.19410  Biso   1.000  H
  H175     1.0000 0.26260  0.23150  0.30590  Biso   1.000  H
  H176     1.0000 0.73740  0.23150  0.19410  Biso   1.000  H
  H177     1.0000 0.16580  0.24400  0.65010  Biso   1.000  H
  H178     1.0000 0.83420  0.24400  0.84990  Biso   1.000  H
  H179     1.0000 0.66580  0.74400  0.65010  Biso   1.000  H
  H180     1.0000 0.33420  0.74400  0.84990  Biso   1.000  H
  H181     1.0000 0.83420  0.75600  0.34990  Biso   1.000  H
  H182     1.0000 0.16580  0.75600  0.15010  Biso   1.000  H
  H183     1.0000 0.33420  0.25600  0.34990  Biso   1.000  H
  H184     1.0000 0.66580  0.25600  0.15010  Biso   1.000  H
  H185     1.0000 0.19410  0.32990  0.71700  Biso   1.000  H
  H186     1.0000 0.80590  0.32990  0.78300  Biso   1.000  H
  H187     1.0000 0.69410  0.82990  0.71700  Biso   1.000  H
  H188     1.0000 0.30590  0.82990  0.78300  Biso   1.000  H
  H189     1.0000 0.80590  0.67010  0.28300  Biso   1.000  H
  H190     1.0000 0.19410  0.67010  0.21700  Biso   1.000  H
  H191     1.0000 0.30590  0.17010  0.28300  Biso   1.000  H
  H192     1.0000 0.69410  0.17010  0.21700  Biso   1.000  H
  C201     1.0000 0.24670  0.46400  0.67050  Biso   1.000  C
  C202     1.0000 0.75330  0.46400  0.82950  Biso   1.000  C
  C203     1.0000 0.74670  0.96400  0.67050  Biso   1.000  C
  C204     1.0000 0.25330  0.96400  0.82950  Biso   1.000  C
  C205     1.0000 0.75330  0.53600  0.32950  Biso   1.000  C
  C206     1.0000 0.24670  0.53600  0.17050  Biso   1.000  C
  C207     1.0000 0.25330  0.03600  0.32950  Biso   1.000  C
  C208     1.0000 0.74670  0.03600  0.17050  Biso   1.000  C
  H193     1.0000 0.27870  0.39900  0.68570  Biso   1.000  H
  H194     1.0000 0.72130  0.39900  0.81430  Biso   1.000  H
  H195     1.0000 0.77870  0.89900  0.68570  Biso   1.000  H
  H196     1.0000 0.22130  0.89900  0.81430  Biso   1.000  H
  H197     1.0000 0.72130  0.60100  0.31430  Biso   1.000  H
  H198     1.0000 0.27870  0.60100  0.18570  Biso   1.000  H
  H199     1.0000 0.22130  0.10100  0.31430  Biso   1.000  H
  H200     1.0000 0.77870  0.10100  0.18570  Biso   1.000  H
  H201     1.0000 0.25450  0.51600  0.71020  Biso   1.000  H
  H202     1.0000 0.74550  0.51600  0.78980  Biso   1.000  H
  H203     1.0000 0.75450  0.01600  0.71020  Biso   1.000  H
  H204     1.0000 0.24550  0.01600  0.78980  Biso   1.000  H
  H205     1.0000 0.74550  0.48400  0.28980  Biso   1.000  H
  H206     1.0000 0.25450  0.48400  0.21020  Biso   1.000  H
  H207     1.0000 0.24550  0.98400  0.28980  Biso   1.000  H
  H208     1.0000 0.75450  0.98400  0.21020  Biso   1.000  H
  C209     1.0000 0.24420  0.54500  0.61560  Biso   1.000  C
  C210     1.0000 0.75580  0.54500  0.88440  Biso   1.000  C
  C211     1.0000 0.74420  0.04500  0.61560  Biso   1.000  C
  C212     1.0000 0.25580  0.04500  0.88440  Biso   1.000  C
  C213     1.0000 0.75580  0.45500  0.38440  Biso   1.000  C
  C214     1.0000 0.24420  0.45500  0.11560  Biso   1.000  C
  C215     1.0000 0.25580  0.95500  0.38440  Biso   1.000  C
  C216     1.0000 0.74420  0.95500  0.11560  Biso   1.000  C
  H209     1.0000 0.23200  0.62870  0.62430  Biso   1.000  H
  H210     1.0000 0.76800  0.62870  0.87570  Biso   1.000  H
  H211     1.0000 0.73200  0.12870  0.62430  Biso   1.000  H
  H212     1.0000 0.26800  0.12870  0.87570  Biso   1.000  H
  H213     1.0000 0.76800  0.37130  0.37570  Biso   1.000  H
  H214     1.0000 0.23200  0.37130  0.12430  Biso   1.000  H
  H215     1.0000 0.26800  0.87130  0.37570  Biso   1.000  H
  H216     1.0000 0.73200  0.87130  0.12430  Biso   1.000  H
  H217     1.0000 0.28760  0.55500  0.63060  Biso   1.000  H
  H218     1.0000 0.71240  0.55500  0.86940  Biso   1.000  H
  H219     1.0000 0.78760  0.05500  0.63060  Biso   1.000  H
  H220     1.0000 0.21240  0.05500  0.86940  Biso   1.000  H
  H221     1.0000 0.71240  0.44500  0.36940  Biso   1.000  H
  H222     1.0000 0.28760  0.44500  0.13060  Biso   1.000  H
  H223     1.0000 0.21240  0.94500  0.36940  Biso   1.000  H
  H224     1.0000 0.78760  0.94500  0.13060  Biso   1.000  H
  C217     1.0000 0.21310  0.63300  0.51380  Biso   1.000  C
  C218     1.0000 0.78690  0.63300  0.98620  Biso   1.000  C
  C219     1.0000 0.71310  0.13300  0.51380  Biso   1.000  C
  C220     1.0000 0.28690  0.13300  0.98620  Biso   1.000  C
  C221     1.0000 0.78690  0.36700  0.48620  Biso   1.000  C
  C222     1.0000 0.21310  0.36700  0.01380  Biso   1.000  C
  C223     1.0000 0.28690  0.86700  0.48620  Biso   1.000  C
  C224     1.0000 0.71310  0.86700  0.01380  Biso   1.000  C
  H225     1.0000 0.18170  0.61060  0.46710  Biso   1.000  H
  H226     1.0000 0.81830  0.61060  0.03290  Biso   1.000  H
  H227     1.0000 0.68170  0.11060  0.46710  Biso   1.000  H
  H228     1.0000 0.31830  0.11060  0.03290  Biso   1.000  H
  H229     1.0000 0.81830  0.38940  0.53290  Biso   1.000  H
  H230     1.0000 0.18170  0.38940  0.96710  Biso   1.000  H
  H231     1.0000 0.31830  0.88940  0.53290  Biso   1.000  H
  H232     1.0000 0.68170  0.88940  0.96710  Biso   1.000  H
  H233     1.0000 0.25160  0.64740  0.51600  Biso   1.000  H
  H234     1.0000 0.74840  0.64740  0.98400  Biso   1.000  H
  H235     1.0000 0.75160  0.14740  0.51600  Biso   1.000  H
  H236     1.0000 0.24840  0.14740  0.98400  Biso   1.000  H
  H237     1.0000 0.74840  0.35260  0.48400  Biso   1.000  H
  H238     1.0000 0.25160  0.35260  0.01600  Biso   1.000  H
  H239     1.0000 0.24840  0.85260  0.48400  Biso   1.000  H
  H240     1.0000 0.75160  0.85260  0.01600  Biso   1.000  H
  H241     1.0000 0.20110  0.70960  0.52770  Biso   1.000  H
  H242     1.0000 0.79890  0.70960  0.97230  Biso   1.000  H
  H243     1.0000 0.70110  0.20960  0.52770  Biso   1.000  H
  H244     1.0000 0.29890  0.20960  0.97230  Biso   1.000  H
  H245     1.0000 0.79890  0.29040  0.47230  Biso   1.000  H
  H246     1.0000 0.20110  0.29040  0.02770  Biso   1.000  H
  H247     1.0000 0.29890  0.79040  0.47230  Biso   1.000  H
  H248     1.0000 0.70110  0.79040  0.02770  Biso   1.000  H
  C225     1.0000 0.18800  0.24000  0.68850  Biso   1.000  C
  C226     1.0000 0.81200  0.24000  0.81150  Biso   1.000  C
  C227     1.0000 0.68800  0.74000  0.68850  Biso   1.000  C
  C228     1.0000 0.31200  0.74000  0.81150  Biso   1.000  C
  C229     1.0000 0.81200  0.76000  0.31150  Biso   1.000  C
  C230     1.0000 0.18800  0.76000  0.18850  Biso   1.000  C
  C231     1.0000 0.31200  0.26000  0.31150  Biso   1.000  C
  C232     1.0000 0.68800  0.26000  0.18850  Biso   1.000  C
  C233     1.0000 0.22030  0.44600  0.69430  Biso   1.000  C
  C234     1.0000 0.77970  0.44600  0.80570  Biso   1.000  C
  C235     1.0000 0.72030  0.94600  0.69430  Biso   1.000  C
  C236     1.0000 0.27970  0.94600  0.80570  Biso   1.000  C
  C237     1.0000 0.77970  0.55400  0.30570  Biso   1.000  C
  C238     1.0000 0.22030  0.55400  0.19430  Biso   1.000  C
  C239     1.0000 0.27970  0.05400  0.30570  Biso   1.000  C
  C240     1.0000 0.72030  0.05400  0.19430  Biso   1.000  C
  C241     1.0000 0.24620  0.52200  0.65000  Biso   1.000  C
  C242     1.0000 0.75380  0.52200  0.85000  Biso   1.000  C
  C243     1.0000 0.74620  0.02200  0.65000  Biso   1.000  C
  C244     1.0000 0.25380  0.02200  0.85000  Biso   1.000  C
  C245     1.0000 0.75380  0.47800  0.35000  Biso   1.000  C
  C246     1.0000 0.24620  0.47800  0.15000  Biso   1.000  C
  C247     1.0000 0.25380  0.97800  0.35000  Biso   1.000  C
  C248     1.0000 0.74620  0.97800  0.15000  Biso   1.000  C
  C249     1.0000 0.21410  0.63900  0.56210  Biso   1.000  C
  C250     1.0000 0.78590  0.63900  0.93790  Biso   1.000  C
  C251     1.0000 0.71410  0.13900  0.56210  Biso   1.000  C
  C252     1.0000 0.28590  0.13900  0.93790  Biso   1.000  C
  C253     1.0000 0.78590  0.36100  0.43790  Biso   1.000  C
  C254     1.0000 0.21410  0.36100  0.06210  Biso   1.000  C
  C255     1.0000 0.28590  0.86100  0.43790  Biso   1.000  C
  C256     1.0000 0.71410  0.86100  0.06210  Biso   1.000  C
  H249     1.0000 0.17570  0.16240  0.66140  Biso   1.000  H
  H250     1.0000 0.82430  0.16240  0.83860  Biso   1.000  H
  H251     1.0000 0.67570  0.66240  0.66140  Biso   1.000  H
  H252     1.0000 0.32430  0.66240  0.83860  Biso   1.000  H
  H253     1.0000 0.82430  0.83760  0.33860  Biso   1.000  H
  H254     1.0000 0.17570  0.83760  0.16140  Biso   1.000  H
  H255     1.0000 0.32430  0.33760  0.33860  Biso   1.000  H
  H256     1.0000 0.67570  0.33760  0.16140  Biso   1.000  H
  H257     1.0000 0.15220  0.28210  0.68380  Biso   1.000  H
  H258     1.0000 0.84780  0.28210  0.81620  Biso   1.000  H
  H259     1.0000 0.65220  0.78210  0.68380  Biso   1.000  H
  H260     1.0000 0.34780  0.78210  0.81620  Biso   1.000  H
  H261     1.0000 0.84780  0.71790  0.31620  Biso   1.000  H
  H262     1.0000 0.15220  0.71790  0.18380  Biso   1.000  H
  H263     1.0000 0.34780  0.21790  0.31620  Biso   1.000  H
  H264     1.0000 0.65220  0.21790  0.18380  Biso   1.000  H
  H265     1.0000 0.21620  0.21930  0.73640  Biso   1.000  H
  H266     1.0000 0.78380  0.21930  0.76360  Biso   1.000  H
  H267     1.0000 0.71620  0.71930  0.73640  Biso   1.000  H
  H268     1.0000 0.28380  0.71930  0.76360  Biso   1.000  H
  H269     1.0000 0.78380  0.78070  0.26360  Biso   1.000  H
  H270     1.0000 0.21620  0.78070  0.23640  Biso   1.000  H
  H271     1.0000 0.28380  0.28070  0.26360  Biso   1.000  H
  H272     1.0000 0.71620  0.28070  0.23640  Biso   1.000  H
  H273     1.0000 0.24950  0.44830  0.74400  Biso   1.000  H
  H274     1.0000 0.75050  0.44830  0.75600  Biso   1.000  H
  H275     1.0000 0.74950  0.94830  0.74400  Biso   1.000  H
  H276     1.0000 0.25050  0.94830  0.75600  Biso   1.000  H
  H277     1.0000 0.75050  0.55170  0.25600  Biso   1.000  H
  H278     1.0000 0.24950  0.55170  0.24400  Biso   1.000  H
  H279     1.0000 0.25050  0.05170  0.25600  Biso   1.000  H
  H280     1.0000 0.74950  0.05170  0.24400  Biso   1.000  H
  H281     1.0000 0.18020  0.47730  0.68390  Biso   1.000  H
  H282     1.0000 0.81980  0.47730  0.81610  Biso   1.000  H
  H283     1.0000 0.68020  0.97730  0.68390  Biso   1.000  H
  H284     1.0000 0.31980  0.97730  0.81610  Biso   1.000  H
  H285     1.0000 0.81980  0.52270  0.31610  Biso   1.000  H
  H286     1.0000 0.18020  0.52270  0.18390  Biso   1.000  H
  H287     1.0000 0.31980  0.02270  0.31610  Biso   1.000  H
  H288     1.0000 0.68020  0.02270  0.18390  Biso   1.000  H
  H289     1.0000 0.26370  0.60520  0.67120  Biso   1.000  H
  H290     1.0000 0.73630  0.60520  0.82880  Biso   1.000  H
  H291     1.0000 0.76370  0.10520  0.67120  Biso   1.000  H
  H292     1.0000 0.23630  0.10520  0.82880  Biso   1.000  H
  H293     1.0000 0.73630  0.39480  0.32880  Biso   1.000  H
  H294     1.0000 0.26370  0.39480  0.17120  Biso   1.000  H
  H295     1.0000 0.23630  0.89480  0.32880  Biso   1.000  H
  H296     1.0000 0.76370  0.89480  0.17120  Biso   1.000  H
  H297     1.0000 0.27820  0.47200  0.64900  Biso   1.000  H
  H298     1.0000 0.72180  0.47200  0.85100  Biso   1.000  H
  H299     1.0000 0.77820  0.97200  0.64900  Biso   1.000  H
  H300     1.0000 0.22180  0.97200  0.85100  Biso   1.000  H
  H301     1.0000 0.72180  0.52800  0.35100  Biso   1.000  H
  H302     1.0000 0.27820  0.52800  0.14900  Biso   1.000  H
  H303     1.0000 0.22180  0.02800  0.35100  Biso   1.000  H
  H304     1.0000 0.77820  0.02800  0.14900  Biso   1.000  H
  H305     1.0000 0.19970  0.62890  0.51370  Biso   1.000  H
  H306     1.0000 0.80030  0.62890  0.98630  Biso   1.000  H
  H307     1.0000 0.69970  0.12890  0.51370  Biso   1.000  H
  H308     1.0000 0.30030  0.12890  0.98630  Biso   1.000  H
  H309     1.0000 0.80030  0.37110  0.48630  Biso   1.000  H
  H310     1.0000 0.19970  0.37110  0.01370  Biso   1.000  H
  H311     1.0000 0.30030  0.87110  0.48630  Biso   1.000  H
  H312     1.0000 0.69970  0.87110  0.01370  Biso   1.000  H
  H313     1.0000 0.25840  0.64560  0.58810  Biso   1.000  H
  H314     1.0000 0.74160  0.64560  0.91190  Biso   1.000  H
  H315     1.0000 0.75840  0.14560  0.58810  Biso   1.000  H
  H316     1.0000 0.24160  0.14560  0.91190  Biso   1.000  H
  H317     1.0000 0.74160  0.35440  0.41190  Biso   1.000  H
  H318     1.0000 0.25840  0.35440  0.08810  Biso   1.000  H
  H319     1.0000 0.24160  0.85440  0.41190  Biso   1.000  H
  H320     1.0000 0.75840  0.85440  0.08810  Biso   1.000  H
  H321     1.0000 0.19670  0.71670  0.56860  Biso   1.000  H
  H322     1.0000 0.80330  0.71670  0.93140  Biso   1.000  H
  H323     1.0000 0.69670  0.21670  0.56860  Biso   1.000  H
  H324     1.0000 0.30330  0.21670  0.93140  Biso   1.000  H
  H325     1.0000 0.80330  0.28330  0.43140  Biso   1.000  H
  H326     1.0000 0.19670  0.28330  0.06860  Biso   1.000  H
  H327     1.0000 0.30330  0.78330  0.43140  Biso   1.000  H
  H328     1.0000 0.69670  0.78330  0.06860  Biso   1.000  H
  O17      1.0000 0.21650  0.32100  0.66570  Biso   1.000  O
  O18      1.0000 0.78350  0.32100  0.83430  Biso   1.000  O
  O19      1.0000 0.71650  0.82100  0.66570  Biso   1.000  O
  O20      1.0000 0.28350  0.82100  0.83430  Biso   1.000  O
  O21      1.0000 0.78350  0.67900  0.33430  Biso   1.000  O
  O22      1.0000 0.21650  0.67900  0.16570  Biso   1.000  O
  O23      1.0000 0.28350  0.17900  0.33430  Biso   1.000  O
  O24      1.0000 0.71650  0.17900  0.16570  Biso   1.000  O
  O25      1.0000 0.19680  0.53930  0.58410  Biso   1.000  O
  O26      1.0000 0.80320  0.53930  0.91590  Biso   1.000  O
  O27      1.0000 0.69680  0.03930  0.58410  Biso   1.000  O
  O28      1.0000 0.30320  0.03930  0.91590  Biso   1.000  O
  O29      1.0000 0.80320  0.46070  0.41590  Biso   1.000  O
  O30      1.0000 0.19680  0.46070  0.08410  Biso   1.000  O
  O31      1.0000 0.30320  0.96070  0.41590  Biso   1.000  O
  O32      1.0000 0.69680  0.96070  0.08410  Biso   1.000  O
