data_image0
_cell_length_a       19.559
_cell_length_b       36.445
_cell_length_c       10.438
_cell_angle_alpha    90
_cell_angle_beta     90
_cell_angle_gamma    90

_symmetry_space_group_name_H-M    "P 1"
_symmetry_int_tables_number       1

loop_
  _symmetry_equiv_pos_as_xyz
  'x, y, z'

loop_
  _atom_site_label
  _atom_site_occupancy
  _atom_site_fract_x
  _atom_site_fract_y
  _atom_site_fract_z
  _atom_site_thermal_displace_type
  _atom_site_B_iso_or_equiv
  _atom_site_type_symbol
  C1       1.0000 0.25980  0.08150  0.96500  Biso   1.000  C
  C2       1.0000 0.74020  0.91850  0.96500  Biso   1.000  C
  C3       1.0000 0.50980  0.16850  0.21500  Biso   1.000  C
  C4       1.0000 0.99020  0.33150  0.21500  Biso   1.000  C
  C5       1.0000 0.25980  0.58150  0.46500  Biso   1.000  C
  C6       1.0000 0.74020  0.41850  0.46500  Biso   1.000  C
  C7       1.0000 0.50980  0.66850  0.71500  Biso   1.000  C
  C8       1.0000 0.99020  0.83150  0.71500  Biso   1.000  C
  C9       1.0000 0.75980  0.08150  0.46500  Biso   1.000  C
  C10      1.0000 0.24020  0.91850  0.46500  Biso   1.000  C
  C11      1.0000 0.00980  0.16850  0.71500  Biso   1.000  C
  C12      1.0000 0.49020  0.33150  0.71500  Biso   1.000  C
  C13      1.0000 0.75980  0.58150  0.96500  Biso   1.000  C
  C14      1.0000 0.24020  0.41850  0.96500  Biso   1.000  C
  C15      1.0000 0.00980  0.66850  0.21500  Biso   1.000  C
  C16      1.0000 0.49020  0.83150  0.21500  Biso   1.000  C
  Cu1      1.0000 0.22766  0.21616  0.47381  Biso   1.000  Cu
  Cu2      1.0000 0.77234  0.78384  0.47381  Biso   1.000  Cu
  Cu3      1.0000 0.47766  0.03384  0.72381  Biso   1.000  Cu
  Cu4      1.0000 0.02234  0.46616  0.72381  Biso   1.000  Cu
  Cu5      1.0000 0.22766  0.71616  0.97381  Biso   1.000  Cu
  Cu6      1.0000 0.77234  0.28384  0.97381  Biso   1.000  Cu
  Cu7      1.0000 0.47766  0.53384  0.22381  Biso   1.000  Cu
  Cu8      1.0000 0.02234  0.96616  0.22381  Biso   1.000  Cu
  Cu9      1.0000 0.72766  0.21616  0.97381  Biso   1.000  Cu
  Cu10     1.0000 0.27234  0.78384  0.97381  Biso   1.000  Cu
  Cu11     1.0000 0.97766  0.03384  0.22381  Biso   1.000  Cu
  Cu12     1.0000 0.52234  0.46616  0.22381  Biso   1.000  Cu
  Cu13     1.0000 0.72766  0.71616  0.47381  Biso   1.000  Cu
  Cu14     1.0000 0.27234  0.28384  0.47381  Biso   1.000  Cu
  Cu15     1.0000 0.97766  0.53384  0.72381  Biso   1.000  Cu
  Cu16     1.0000 0.52234  0.96616  0.72381  Biso   1.000  Cu
  Cu17     1.0000 0.31416  0.24018  0.66363  Biso   1.000  Cu
  Cu18     1.0000 0.68584  0.75982  0.66363  Biso   1.000  Cu
  Cu19     1.0000 0.56416  0.00982  0.91363  Biso   1.000  Cu
  Cu20     1.0000 0.93584  0.49018  0.91363  Biso   1.000  Cu
  Cu21     1.0000 0.31416  0.74018  0.16363  Biso   1.000  Cu
  Cu22     1.0000 0.68584  0.25982  0.16363  Biso   1.000  Cu
  Cu23     1.0000 0.56416  0.50982  0.41363  Biso   1.000  Cu
  Cu24     1.0000 0.93584  0.99018  0.41363  Biso   1.000  Cu
  Cu25     1.0000 0.81416  0.24018  0.16363  Biso   1.000  Cu
  Cu26     1.0000 0.18584  0.75982  0.16363  Biso   1.000  Cu
  Cu27     1.0000 0.06416  0.00982  0.41363  Biso   1.000  Cu
  Cu28     1.0000 0.43584  0.49018  0.41363  Biso   1.000  Cu
  Cu29     1.0000 0.81416  0.74018  0.66363  Biso   1.000  Cu
  Cu30     1.0000 0.18584  0.25982  0.66363  Biso   1.000  Cu
  Cu31     1.0000 0.06416  0.50982  0.91363  Biso   1.000  Cu
  Cu32     1.0000 0.43584  0.99018  0.91363  Biso   1.000  Cu
  I1       1.0000 0.21798  0.18815  0.70637  Biso   1.000  I
  I2       1.0000 0.78202  0.81185  0.70637  Biso   1.000  I
  I3       1.0000 0.46798  0.06185  0.95637  Biso   1.000  I
  I4       1.0000 0.03202  0.43815  0.95637  Biso   1.000  I
  I5       1.0000 0.21798  0.68815  0.20637  Biso   1.000  I
  I6       1.0000 0.78202  0.31185  0.20637  Biso   1.000  I
  I7       1.0000 0.46798  0.56185  0.45637  Biso   1.000  I
  I8       1.0000 0.03202  0.93815  0.45637  Biso   1.000  I
  I9       1.0000 0.71798  0.18815  0.20637  Biso   1.000  I
  I10      1.0000 0.28202  0.81185  0.20637  Biso   1.000  I
  I11      1.0000 0.96798  0.06185  0.45637  Biso   1.000  I
  I12      1.0000 0.53202  0.43815  0.45637  Biso   1.000  I
  I13      1.0000 0.71798  0.68815  0.70637  Biso   1.000  I
  I14      1.0000 0.28202  0.31185  0.70637  Biso   1.000  I
  I15      1.0000 0.96798  0.56185  0.95637  Biso   1.000  I
  I16      1.0000 0.53202  0.93815  0.95637  Biso   1.000  I
  I17      1.0000 0.36466  0.23013  0.42904  Biso   1.000  I
  I18      1.0000 0.63534  0.76987  0.42904  Biso   1.000  I
  I19      1.0000 0.61466  0.01987  0.67904  Biso   1.000  I
  I20      1.0000 0.88534  0.48013  0.67904  Biso   1.000  I
  I21      1.0000 0.36466  0.73013  0.92904  Biso   1.000  I
  I22      1.0000 0.63534  0.26987  0.92904  Biso   1.000  I
  I23      1.0000 0.61466  0.51987  0.17904  Biso   1.000  I
  I24      1.0000 0.88534  0.98013  0.17904  Biso   1.000  I
  I25      1.0000 0.86466  0.23013  0.92904  Biso   1.000  I
  I26      1.0000 0.13534  0.76987  0.92904  Biso   1.000  I
  I27      1.0000 0.11466  0.01987  0.17904  Biso   1.000  I
  I28      1.0000 0.38534  0.48013  0.17904  Biso   1.000  I
  I29      1.0000 0.86466  0.73013  0.42904  Biso   1.000  I
  I30      1.0000 0.13534  0.26987  0.42904  Biso   1.000  I
  I31      1.0000 0.11466  0.51987  0.67904  Biso   1.000  I
  I32      1.0000 0.38534  0.98013  0.67904  Biso   1.000  I
  C17      1.0000 0.24200  0.14650  0.34100  Biso   1.000  C
  C18      1.0000 0.75800  0.85350  0.34100  Biso   1.000  C
  C19      1.0000 0.49200  0.10350  0.59100  Biso   1.000  C
  C20      1.0000 0.00800  0.39650  0.59100  Biso   1.000  C
  C21      1.0000 0.24200  0.64650  0.84100  Biso   1.000  C
  C22      1.0000 0.75800  0.35350  0.84100  Biso   1.000  C
  C23      1.0000 0.49200  0.60350  0.09100  Biso   1.000  C
  C24      1.0000 0.00800  0.89650  0.09100  Biso   1.000  C
  C25      1.0000 0.74200  0.14650  0.84100  Biso   1.000  C
  C26      1.0000 0.25800  0.85350  0.84100  Biso   1.000  C
  C27      1.0000 0.99200  0.10350  0.09100  Biso   1.000  C
  C28      1.0000 0.50800  0.39650  0.09100  Biso   1.000  C
  C29      1.0000 0.74200  0.64650  0.34100  Biso   1.000  C
  C30      1.0000 0.25800  0.35350  0.34100  Biso   1.000  C
  C31      1.0000 0.99200  0.60350  0.59100  Biso   1.000  C
  C32      1.0000 0.50800  0.89650  0.59100  Biso   1.000  C
  H1       1.0000 0.23310  0.13450  0.42220  Biso   1.000  H
  H2       1.0000 0.76690  0.86550  0.42220  Biso   1.000  H
  H3       1.0000 0.48310  0.11550  0.67220  Biso   1.000  H
  H4       1.0000 0.01690  0.38450  0.67220  Biso   1.000  H
  H5       1.0000 0.23310  0.63450  0.92220  Biso   1.000  H
  H6       1.0000 0.76690  0.36550  0.92220  Biso   1.000  H
  H7       1.0000 0.48310  0.61550  0.17220  Biso   1.000  H
  H8       1.0000 0.01690  0.88450  0.17220  Biso   1.000  H
  H9       1.0000 0.73310  0.13450  0.92220  Biso   1.000  H
  H10      1.0000 0.26690  0.86550  0.92220  Biso   1.000  H
  H11      1.0000 0.98310  0.11550  0.17220  Biso   1.000  H
  H12      1.0000 0.51690  0.38450  0.17220  Biso   1.000  H
  H13      1.0000 0.73310  0.63450  0.42220  Biso   1.000  H
  H14      1.0000 0.26690  0.36550  0.42220  Biso   1.000  H
  H15      1.0000 0.98310  0.61550  0.67220  Biso   1.000  H
  H16      1.0000 0.51690  0.88450  0.67220  Biso   1.000  H
  H17      1.0000 0.28980  0.15250  0.33600  Biso   1.000  H
  H18      1.0000 0.71020  0.84750  0.33600  Biso   1.000  H
  H19      1.0000 0.53980  0.09750  0.58600  Biso   1.000  H
  H20      1.0000 0.96020  0.40250  0.58600  Biso   1.000  H
  H21      1.0000 0.28980  0.65250  0.83600  Biso   1.000  H
  H22      1.0000 0.71020  0.34750  0.83600  Biso   1.000  H
  H23      1.0000 0.53980  0.59750  0.08600  Biso   1.000  H
  H24      1.0000 0.96020  0.90250  0.08600  Biso   1.000  H
  H25      1.0000 0.78980  0.15250  0.83600  Biso   1.000  H
  H26      1.0000 0.21020  0.84750  0.83600  Biso   1.000  H
  H27      1.0000 0.03980  0.09750  0.08600  Biso   1.000  H
  H28      1.0000 0.46020  0.40250  0.08600  Biso   1.000  H
  H29      1.0000 0.78980  0.65250  0.33600  Biso   1.000  H
  H30      1.0000 0.21020  0.34750  0.33600  Biso   1.000  H
  H31      1.0000 0.03980  0.59750  0.58600  Biso   1.000  H
  H32      1.0000 0.46020  0.90250  0.58600  Biso   1.000  H
  C33      1.0000 0.22170  0.12030  0.22800  Biso   1.000  C
  C34      1.0000 0.77830  0.87970  0.22800  Biso   1.000  C
  C35      1.0000 0.47170  0.12970  0.47800  Biso   1.000  C
  C36      1.0000 0.02830  0.37030  0.47800  Biso   1.000  C
  C37      1.0000 0.22170  0.62030  0.72800  Biso   1.000  C
  C38      1.0000 0.77830  0.37970  0.72800  Biso   1.000  C
  C39      1.0000 0.47170  0.62970  0.97800  Biso   1.000  C
  C40      1.0000 0.02830  0.87030  0.97800  Biso   1.000  C
  C41      1.0000 0.72170  0.12030  0.72800  Biso   1.000  C
  C42      1.0000 0.27830  0.87970  0.72800  Biso   1.000  C
  C43      1.0000 0.97170  0.12970  0.97800  Biso   1.000  C
  C44      1.0000 0.52830  0.37030  0.97800  Biso   1.000  C
  C45      1.0000 0.72170  0.62030  0.22800  Biso   1.000  C
  C46      1.0000 0.27830  0.37970  0.22800  Biso   1.000  C
  C47      1.0000 0.97170  0.62970  0.47800  Biso   1.000  C
  C48      1.0000 0.52830  0.87030  0.47800  Biso   1.000  C
  H33      1.0000 0.20880  0.09610  0.24290  Biso   1.000  H
  H34      1.0000 0.79120  0.90390  0.24290  Biso   1.000  H
  H35      1.0000 0.45880  0.15390  0.49290  Biso   1.000  H
  H36      1.0000 0.04120  0.34610  0.49290  Biso   1.000  H
  H37      1.0000 0.20880  0.59610  0.74290  Biso   1.000  H
  H38      1.0000 0.79120  0.40390  0.74290  Biso   1.000  H
  H39      1.0000 0.45880  0.65390  0.99290  Biso   1.000  H
  H40      1.0000 0.04120  0.84610  0.99290  Biso   1.000  H
  H41      1.0000 0.70880  0.09610  0.74290  Biso   1.000  H
  H42      1.0000 0.29120  0.90390  0.74290  Biso   1.000  H
  H43      1.0000 0.95880  0.15390  0.99290  Biso   1.000  H
  H44      1.0000 0.54120  0.34610  0.99290  Biso   1.000  H
  H45      1.0000 0.70880  0.59610  0.24290  Biso   1.000  H
  H46      1.0000 0.29120  0.40390  0.24290  Biso   1.000  H
  H47      1.0000 0.95880  0.65390  0.49290  Biso   1.000  H
  H48      1.0000 0.54120  0.84610  0.49290  Biso   1.000  H
  C49      1.0000 0.22430  0.13540  0.10150  Biso   1.000  C
  C50      1.0000 0.77570  0.86460  0.10150  Biso   1.000  C
  C51      1.0000 0.47430  0.11460  0.35150  Biso   1.000  C
  C52      1.0000 0.02570  0.38540  0.35150  Biso   1.000  C
  C53      1.0000 0.22430  0.63540  0.60150  Biso   1.000  C
  C54      1.0000 0.77570  0.36460  0.60150  Biso   1.000  C
  C55      1.0000 0.47430  0.61460  0.85150  Biso   1.000  C
  C56      1.0000 0.02570  0.88540  0.85150  Biso   1.000  C
  C57      1.0000 0.72430  0.13540  0.60150  Biso   1.000  C
  C58      1.0000 0.27570  0.86460  0.60150  Biso   1.000  C
  C59      1.0000 0.97430  0.11460  0.85150  Biso   1.000  C
  C60      1.0000 0.52570  0.38540  0.85150  Biso   1.000  C
  C61      1.0000 0.72430  0.63540  0.10150  Biso   1.000  C
  C62      1.0000 0.27570  0.36460  0.10150  Biso   1.000  C
  C63      1.0000 0.97430  0.61460  0.35150  Biso   1.000  C
  C64      1.0000 0.52570  0.88540  0.35150  Biso   1.000  C
  H49      1.0000 0.27100  0.14430  0.08830  Biso   1.000  H
  H50      1.0000 0.72900  0.85570  0.08830  Biso   1.000  H
  H51      1.0000 0.52100  0.10570  0.33830  Biso   1.000  H
  H52      1.0000 0.97900  0.39430  0.33830  Biso   1.000  H
  H53      1.0000 0.27100  0.64430  0.58830  Biso   1.000  H
  H54      1.0000 0.72900  0.35570  0.58830  Biso   1.000  H
  H55      1.0000 0.52100  0.60570  0.83830  Biso   1.000  H
  H56      1.0000 0.97900  0.89430  0.83830  Biso   1.000  H
  H57      1.0000 0.77100  0.14430  0.58830  Biso   1.000  H
  H58      1.0000 0.22900  0.85570  0.58830  Biso   1.000  H
  H59      1.0000 0.02100  0.10570  0.83830  Biso   1.000  H
  H60      1.0000 0.47900  0.39430  0.83830  Biso   1.000  H
  H61      1.0000 0.77100  0.64430  0.08830  Biso   1.000  H
  H62      1.0000 0.22900  0.35570  0.08830  Biso   1.000  H
  H63      1.0000 0.02100  0.60570  0.33830  Biso   1.000  H
  H64      1.0000 0.47900  0.89430  0.33830  Biso   1.000  H
  C65      1.0000 0.17800  0.16940  0.10690  Biso   1.000  C
  C66      1.0000 0.82200  0.83060  0.10690  Biso   1.000  C
  C67      1.0000 0.42800  0.08060  0.35690  Biso   1.000  C
  C68      1.0000 0.07200  0.41940  0.35690  Biso   1.000  C
  C69      1.0000 0.17800  0.66940  0.60690  Biso   1.000  C
  C70      1.0000 0.82200  0.33060  0.60690  Biso   1.000  C
  C71      1.0000 0.42800  0.58060  0.85690  Biso   1.000  C
  C72      1.0000 0.07200  0.91940  0.85690  Biso   1.000  C
  C73      1.0000 0.67800  0.16940  0.60690  Biso   1.000  C
  C74      1.0000 0.32200  0.83060  0.60690  Biso   1.000  C
  C75      1.0000 0.92800  0.08060  0.85690  Biso   1.000  C
  C76      1.0000 0.57200  0.41940  0.85690  Biso   1.000  C
  C77      1.0000 0.67800  0.66940  0.10690  Biso   1.000  C
  C78      1.0000 0.32200  0.33060  0.10690  Biso   1.000  C
  C79      1.0000 0.92800  0.58060  0.35690  Biso   1.000  C
  C80      1.0000 0.57200  0.91940  0.35690  Biso   1.000  C
  H65      1.0000 0.18220  0.18260  0.02680  Biso   1.000  H
  H66      1.0000 0.81780  0.81740  0.02680  Biso   1.000  H
  H67      1.0000 0.43220  0.06740  0.27680  Biso   1.000  H
  H68      1.0000 0.06780  0.43260  0.27680  Biso   1.000  H
  H69      1.0000 0.18220  0.68260  0.52680  Biso   1.000  H
  H70      1.0000 0.81780  0.31740  0.52680  Biso   1.000  H
  H71      1.0000 0.43220  0.56740  0.77680  Biso   1.000  H
  H72      1.0000 0.06780  0.93260  0.77680  Biso   1.000  H
  H73      1.0000 0.68220  0.18260  0.52680  Biso   1.000  H
  H74      1.0000 0.31780  0.81740  0.52680  Biso   1.000  H
  H75      1.0000 0.93220  0.06740  0.77680  Biso   1.000  H
  H76      1.0000 0.56780  0.43260  0.77680  Biso   1.000  H
  H77      1.0000 0.68220  0.68260  0.02680  Biso   1.000  H
  H78      1.0000 0.31780  0.31740  0.02680  Biso   1.000  H
  H79      1.0000 0.93220  0.56740  0.27680  Biso   1.000  H
  H80      1.0000 0.56780  0.93260  0.27680  Biso   1.000  H
  H81      1.0000 0.13090  0.16140  0.11500  Biso   1.000  H
  H82      1.0000 0.86910  0.83860  0.11500  Biso   1.000  H
  H83      1.0000 0.38090  0.08860  0.36500  Biso   1.000  H
  H84      1.0000 0.11910  0.41140  0.36500  Biso   1.000  H
  H85      1.0000 0.13090  0.66140  0.61500  Biso   1.000  H
  H86      1.0000 0.86910  0.33860  0.61500  Biso   1.000  H
  H87      1.0000 0.38090  0.58860  0.86500  Biso   1.000  H
  H88      1.0000 0.11910  0.91140  0.86500  Biso   1.000  H
  H89      1.0000 0.63090  0.16140  0.61500  Biso   1.000  H
  H90      1.0000 0.36910  0.83860  0.61500  Biso   1.000  H
  H91      1.0000 0.88090  0.08860  0.86500  Biso   1.000  H
  H92      1.0000 0.61910  0.41140  0.86500  Biso   1.000  H
  H93      1.0000 0.63090  0.66140  0.11500  Biso   1.000  H
  H94      1.0000 0.36910  0.33860  0.11500  Biso   1.000  H
  H95      1.0000 0.88090  0.58860  0.36500  Biso   1.000  H
  H96      1.0000 0.61910  0.91140  0.36500  Biso   1.000  H
  C81      1.0000 0.19350  0.19360  0.21000  Biso   1.000  C
  C82      1.0000 0.80650  0.80640  0.21000  Biso   1.000  C
  C83      1.0000 0.44350  0.05640  0.46000  Biso   1.000  C
  C84      1.0000 0.05650  0.44360  0.46000  Biso   1.000  C
  C85      1.0000 0.19350  0.69360  0.71000  Biso   1.000  C
  C86      1.0000 0.80650  0.30640  0.71000  Biso   1.000  C
  C87      1.0000 0.44350  0.55640  0.96000  Biso   1.000  C
  C88      1.0000 0.05650  0.94360  0.96000  Biso   1.000  C
  C89      1.0000 0.69350  0.19360  0.71000  Biso   1.000  C
  C90      1.0000 0.30650  0.80640  0.71000  Biso   1.000  C
  C91      1.0000 0.94350  0.05640  0.96000  Biso   1.000  C
  C92      1.0000 0.55650  0.44360  0.96000  Biso   1.000  C
  C93      1.0000 0.69350  0.69360  0.21000  Biso   1.000  C
  C94      1.0000 0.30650  0.30640  0.21000  Biso   1.000  C
  C95      1.0000 0.94350  0.55640  0.46000  Biso   1.000  C
  C96      1.0000 0.55650  0.94360  0.46000  Biso   1.000  C
  H97      1.0000 0.23530  0.20650  0.18780  Biso   1.000  H
  H98      1.0000 0.76470  0.79350  0.18780  Biso   1.000  H
  H99      1.0000 0.48530  0.04350  0.43780  Biso   1.000  H
  H100     1.0000 0.01470  0.45650  0.43780  Biso   1.000  H
  H101     1.0000 0.23530  0.70650  0.68780  Biso   1.000  H
  H102     1.0000 0.76470  0.29350  0.68780  Biso   1.000  H
  H103     1.0000 0.48530  0.54350  0.93780  Biso   1.000  H
  H104     1.0000 0.01470  0.95650  0.93780  Biso   1.000  H
  H105     1.0000 0.73530  0.20650  0.68780  Biso   1.000  H
  H106     1.0000 0.26470  0.79350  0.68780  Biso   1.000  H
  H107     1.0000 0.98530  0.04350  0.93780  Biso   1.000  H
  H108     1.0000 0.51470  0.45650  0.93780  Biso   1.000  H
  H109     1.0000 0.73530  0.70650  0.18780  Biso   1.000  H
  H110     1.0000 0.26470  0.29350  0.18780  Biso   1.000  H
  H111     1.0000 0.98530  0.54350  0.43780  Biso   1.000  H
  H112     1.0000 0.51470  0.95650  0.43780  Biso   1.000  H
  H113     1.0000 0.15740  0.21190  0.21360  Biso   1.000  H
  H114     1.0000 0.84260  0.78810  0.21360  Biso   1.000  H
  H115     1.0000 0.40740  0.03810  0.46360  Biso   1.000  H
  H116     1.0000 0.09260  0.46190  0.46360  Biso   1.000  H
  H117     1.0000 0.15740  0.71190  0.71360  Biso   1.000  H
  H118     1.0000 0.84260  0.28810  0.71360  Biso   1.000  H
  H119     1.0000 0.40740  0.53810  0.96360  Biso   1.000  H
  H120     1.0000 0.09260  0.96190  0.96360  Biso   1.000  H
  H121     1.0000 0.65740  0.21190  0.71360  Biso   1.000  H
  H122     1.0000 0.34260  0.78810  0.71360  Biso   1.000  H
  H123     1.0000 0.90740  0.03810  0.96360  Biso   1.000  H
  H124     1.0000 0.59260  0.46190  0.96360  Biso   1.000  H
  H125     1.0000 0.65740  0.71190  0.21360  Biso   1.000  H
  H126     1.0000 0.34260  0.28810  0.21360  Biso   1.000  H
  H127     1.0000 0.90740  0.53810  0.46360  Biso   1.000  H
  H128     1.0000 0.59260  0.96190  0.46360  Biso   1.000  H
  C97      1.0000 0.20890  0.10960  0.99340  Biso   1.000  C
  C98      1.0000 0.79110  0.89040  0.99340  Biso   1.000  C
  C99      1.0000 0.45890  0.14040  0.24340  Biso   1.000  C
  C100     1.0000 0.04110  0.35960  0.24340  Biso   1.000  C
  C101     1.0000 0.20890  0.60960  0.49340  Biso   1.000  C
  C102     1.0000 0.79110  0.39040  0.49340  Biso   1.000  C
  C103     1.0000 0.45890  0.64040  0.74340  Biso   1.000  C
  C104     1.0000 0.04110  0.85960  0.74340  Biso   1.000  C
  C105     1.0000 0.70890  0.10960  0.49340  Biso   1.000  C
  C106     1.0000 0.29110  0.89040  0.49340  Biso   1.000  C
  C107     1.0000 0.95890  0.14040  0.74340  Biso   1.000  C
  C108     1.0000 0.54110  0.35960  0.74340  Biso   1.000  C
  C109     1.0000 0.70890  0.60960  0.99340  Biso   1.000  C
  C110     1.0000 0.29110  0.39040  0.99340  Biso   1.000  C
  C111     1.0000 0.95890  0.64040  0.24340  Biso   1.000  C
  C112     1.0000 0.54110  0.85960  0.24340  Biso   1.000  C
  H129     1.0000 0.16600  0.09740  0.01220  Biso   1.000  H
  H130     1.0000 0.83400  0.90260  0.01220  Biso   1.000  H
  H131     1.0000 0.41600  0.15260  0.26220  Biso   1.000  H
  H132     1.0000 0.08400  0.34740  0.26220  Biso   1.000  H
  H133     1.0000 0.16600  0.59740  0.51220  Biso   1.000  H
  H134     1.0000 0.83400  0.40260  0.51220  Biso   1.000  H
  H135     1.0000 0.41600  0.65260  0.76220  Biso   1.000  H
  H136     1.0000 0.08400  0.84740  0.76220  Biso   1.000  H
  H137     1.0000 0.66600  0.09740  0.51220  Biso   1.000  H
  H138     1.0000 0.33400  0.90260  0.51220  Biso   1.000  H
  H139     1.0000 0.91600  0.15260  0.76220  Biso   1.000  H
  H140     1.0000 0.58400  0.34740  0.76220  Biso   1.000  H
  H141     1.0000 0.66600  0.59740  0.01220  Biso   1.000  H
  H142     1.0000 0.33400  0.40260  0.01220  Biso   1.000  H
  H143     1.0000 0.91600  0.65260  0.26220  Biso   1.000  H
  H144     1.0000 0.58400  0.84740  0.26220  Biso   1.000  H
  H145     1.0000 0.20200  0.12410  0.91650  Biso   1.000  H
  H146     1.0000 0.79800  0.87590  0.91650  Biso   1.000  H
  H147     1.0000 0.45200  0.12590  0.16650  Biso   1.000  H
  H148     1.0000 0.04800  0.37410  0.16650  Biso   1.000  H
  H149     1.0000 0.20200  0.62410  0.41650  Biso   1.000  H
  H150     1.0000 0.79800  0.37590  0.41650  Biso   1.000  H
  H151     1.0000 0.45200  0.62590  0.66650  Biso   1.000  H
  H152     1.0000 0.04800  0.87410  0.66650  Biso   1.000  H
  H153     1.0000 0.70200  0.12410  0.41650  Biso   1.000  H
  H154     1.0000 0.29800  0.87590  0.41650  Biso   1.000  H
  H155     1.0000 0.95200  0.12590  0.66650  Biso   1.000  H
  H156     1.0000 0.54800  0.37410  0.66650  Biso   1.000  H
  H157     1.0000 0.70200  0.62410  0.91650  Biso   1.000  H
  H158     1.0000 0.29800  0.37590  0.91650  Biso   1.000  H
  H159     1.0000 0.95200  0.62590  0.16650  Biso   1.000  H
  H160     1.0000 0.54800  0.87410  0.16650  Biso   1.000  H
  C113     1.0000 0.27640  0.06980  0.83600  Biso   1.000  C
  C114     1.0000 0.72360  0.93020  0.83600  Biso   1.000  C
  C115     1.0000 0.52640  0.18020  0.08600  Biso   1.000  C
  C116     1.0000 0.97360  0.31980  0.08600  Biso   1.000  C
  C117     1.0000 0.27640  0.56980  0.33600  Biso   1.000  C
  C118     1.0000 0.72360  0.43020  0.33600  Biso   1.000  C
  C119     1.0000 0.52640  0.68020  0.58600  Biso   1.000  C
  C120     1.0000 0.97360  0.81980  0.58600  Biso   1.000  C
  C121     1.0000 0.77640  0.06980  0.33600  Biso   1.000  C
  C122     1.0000 0.22360  0.93020  0.33600  Biso   1.000  C
  C123     1.0000 0.02640  0.18020  0.58600  Biso   1.000  C
  C124     1.0000 0.47360  0.31980  0.58600  Biso   1.000  C
  C125     1.0000 0.77640  0.56980  0.83600  Biso   1.000  C
  C126     1.0000 0.22360  0.43020  0.83600  Biso   1.000  C
  C127     1.0000 0.02640  0.68020  0.08600  Biso   1.000  C
  C128     1.0000 0.47360  0.81980  0.08600  Biso   1.000  C
  H161     1.0000 0.30450  0.04780  0.83920  Biso   1.000  H
  H162     1.0000 0.69550  0.95220  0.83920  Biso   1.000  H
  H163     1.0000 0.55450  0.20220  0.08920  Biso   1.000  H
  H164     1.0000 0.94550  0.29780  0.08920  Biso   1.000  H
  H165     1.0000 0.30450  0.54780  0.33920  Biso   1.000  H
  H166     1.0000 0.69550  0.45220  0.33920  Biso   1.000  H
  H167     1.0000 0.55450  0.70220  0.58920  Biso   1.000  H
  H168     1.0000 0.94550  0.79780  0.58920  Biso   1.000  H
  H169     1.0000 0.80450  0.04780  0.33920  Biso   1.000  H
  H170     1.0000 0.19550  0.95220  0.33920  Biso   1.000  H
  H171     1.0000 0.05450  0.20220  0.58920  Biso   1.000  H
  H172     1.0000 0.44550  0.29780  0.58920  Biso   1.000  H
  H173     1.0000 0.80450  0.54780  0.83920  Biso   1.000  H
  H174     1.0000 0.19550  0.45220  0.83920  Biso   1.000  H
  H175     1.0000 0.05450  0.70220  0.08920  Biso   1.000  H
  H176     1.0000 0.44550  0.79780  0.08920  Biso   1.000  H
  H177     1.0000 0.30250  0.08880  0.79300  Biso   1.000  H
  H178     1.0000 0.69750  0.91120  0.79300  Biso   1.000  H
  H179     1.0000 0.55250  0.16120  0.04300  Biso   1.000  H
  H180     1.0000 0.94750  0.33880  0.04300  Biso   1.000  H
  H181     1.0000 0.30250  0.58880  0.29300  Biso   1.000  H
  H182     1.0000 0.69750  0.41120  0.29300  Biso   1.000  H
  H183     1.0000 0.55250  0.66120  0.54300  Biso   1.000  H
  H184     1.0000 0.94750  0.83880  0.54300  Biso   1.000  H
  H185     1.0000 0.80250  0.08880  0.29300  Biso   1.000  H
  H186     1.0000 0.19750  0.91120  0.29300  Biso   1.000  H
  H187     1.0000 0.05250  0.16120  0.54300  Biso   1.000  H
  H188     1.0000 0.44750  0.33880  0.54300  Biso   1.000  H
  H189     1.0000 0.80250  0.58880  0.79300  Biso   1.000  H
  H190     1.0000 0.19750  0.41120  0.79300  Biso   1.000  H
  H191     1.0000 0.05250  0.66120  0.04300  Biso   1.000  H
  H192     1.0000 0.44750  0.83880  0.04300  Biso   1.000  H
  C129     1.0000 0.20760  0.06140  0.75500  Biso   1.000  C
  C130     1.0000 0.79240  0.93860  0.75500  Biso   1.000  C
  C131     1.0000 0.45760  0.18860  0.00500  Biso   1.000  C
  C132     1.0000 0.04240  0.31140  0.00500  Biso   1.000  C
  C133     1.0000 0.20760  0.56140  0.25500  Biso   1.000  C
  C134     1.0000 0.79240  0.43860  0.25500  Biso   1.000  C
  C135     1.0000 0.45760  0.68860  0.50500  Biso   1.000  C
  C136     1.0000 0.04240  0.81140  0.50500  Biso   1.000  C
  C137     1.0000 0.70760  0.06140  0.25500  Biso   1.000  C
  C138     1.0000 0.29240  0.93860  0.25500  Biso   1.000  C
  C139     1.0000 0.95760  0.18860  0.50500  Biso   1.000  C
  C140     1.0000 0.54240  0.31140  0.50500  Biso   1.000  C
  C141     1.0000 0.70760  0.56140  0.75500  Biso   1.000  C
  C142     1.0000 0.29240  0.43860  0.75500  Biso   1.000  C
  C143     1.0000 0.95760  0.68860  0.00500  Biso   1.000  C
  C144     1.0000 0.54240  0.81140  0.00500  Biso   1.000  C
  H193     1.0000 0.17390  0.08070  0.77170  Biso   1.000  H
  H194     1.0000 0.82610  0.91930  0.77170  Biso   1.000  H
  H195     1.0000 0.42390  0.16930  0.02170  Biso   1.000  H
  H196     1.0000 0.07610  0.33070  0.02170  Biso   1.000  H
  H197     1.0000 0.17390  0.58070  0.27170  Biso   1.000  H
  H198     1.0000 0.82610  0.41930  0.27170  Biso   1.000  H
  H199     1.0000 0.42390  0.66930  0.52170  Biso   1.000  H
  H200     1.0000 0.07610  0.83070  0.52170  Biso   1.000  H
  H201     1.0000 0.67390  0.08070  0.27170  Biso   1.000  H
  H202     1.0000 0.32610  0.91930  0.27170  Biso   1.000  H
  H203     1.0000 0.92390  0.16930  0.52170  Biso   1.000  H
  H204     1.0000 0.57610  0.33070  0.52170  Biso   1.000  H
  H205     1.0000 0.67390  0.58070  0.77170  Biso   1.000  H
  H206     1.0000 0.32610  0.41930  0.77170  Biso   1.000  H
  H207     1.0000 0.92390  0.66930  0.02170  Biso   1.000  H
  H208     1.0000 0.57610  0.83070  0.02170  Biso   1.000  H
  C145     1.0000 0.17180  0.02120  0.77400  Biso   1.000  C
  C146     1.0000 0.82820  0.97880  0.77400  Biso   1.000  C
  C147     1.0000 0.42180  0.22880  0.02400  Biso   1.000  C
  C148     1.0000 0.07820  0.27120  0.02400  Biso   1.000  C
  C149     1.0000 0.17180  0.52120  0.27400  Biso   1.000  C
  C150     1.0000 0.82820  0.47880  0.27400  Biso   1.000  C
  C151     1.0000 0.42180  0.72880  0.52400  Biso   1.000  C
  C152     1.0000 0.07820  0.77120  0.52400  Biso   1.000  C
  C153     1.0000 0.67180  0.02120  0.27400  Biso   1.000  C
  C154     1.0000 0.32820  0.97880  0.27400  Biso   1.000  C
  C155     1.0000 0.92180  0.22880  0.52400  Biso   1.000  C
  C156     1.0000 0.57820  0.27120  0.52400  Biso   1.000  C
  C157     1.0000 0.67180  0.52120  0.77400  Biso   1.000  C
  C158     1.0000 0.32820  0.47880  0.77400  Biso   1.000  C
  C159     1.0000 0.92180  0.72880  0.02400  Biso   1.000  C
  C160     1.0000 0.57820  0.77120  0.02400  Biso   1.000  C
  H209     1.0000 0.20600  0.00220  0.76490  Biso   1.000  H
  H210     1.0000 0.79400  0.99780  0.76490  Biso   1.000  H
  H211     1.0000 0.45600  0.24780  0.01490  Biso   1.000  H
  H212     1.0000 0.04400  0.25220  0.01490  Biso   1.000  H
  H213     1.0000 0.20600  0.50220  0.26490  Biso   1.000  H
  H214     1.0000 0.79400  0.49780  0.26490  Biso   1.000  H
  H215     1.0000 0.45600  0.74780  0.51490  Biso   1.000  H
  H216     1.0000 0.04400  0.75220  0.51490  Biso   1.000  H
  H217     1.0000 0.70600  0.00220  0.26490  Biso   1.000  H
  H218     1.0000 0.29400  0.99780  0.26490  Biso   1.000  H
  H219     1.0000 0.95600  0.24780  0.51490  Biso   1.000  H
  H220     1.0000 0.54400  0.25220  0.51490  Biso   1.000  H
  H221     1.0000 0.70600  0.50220  0.76490  Biso   1.000  H
  H222     1.0000 0.29400  0.49780  0.76490  Biso   1.000  H
  H223     1.0000 0.95600  0.74780  0.01490  Biso   1.000  H
  H224     1.0000 0.54400  0.75220  0.01490  Biso   1.000  H
  H225     1.0000 0.15260  0.01950  0.85960  Biso   1.000  H
  H226     1.0000 0.84740  0.98050  0.85960  Biso   1.000  H
  H227     1.0000 0.40260  0.23050  0.10960  Biso   1.000  H
  H228     1.0000 0.09740  0.26950  0.10960  Biso   1.000  H
  H229     1.0000 0.15260  0.51950  0.35960  Biso   1.000  H
  H230     1.0000 0.84740  0.48050  0.35960  Biso   1.000  H
  H231     1.0000 0.40260  0.73050  0.60960  Biso   1.000  H
  H232     1.0000 0.09740  0.76950  0.60960  Biso   1.000  H
  H233     1.0000 0.65260  0.01950  0.35960  Biso   1.000  H
  H234     1.0000 0.34740  0.98050  0.35960  Biso   1.000  H
  H235     1.0000 0.90260  0.23050  0.60960  Biso   1.000  H
  H236     1.0000 0.59740  0.26950  0.60960  Biso   1.000  H
  H237     1.0000 0.65260  0.51950  0.85960  Biso   1.000  H
  H238     1.0000 0.34740  0.48050  0.85960  Biso   1.000  H
  H239     1.0000 0.90260  0.73050  0.10960  Biso   1.000  H
  H240     1.0000 0.59740  0.76950  0.10960  Biso   1.000  H
  C161     1.0000 0.11820  0.01570  0.68000  Biso   1.000  C
  C162     1.0000 0.88180  0.98430  0.68000  Biso   1.000  C
  C163     1.0000 0.36820  0.23430  0.93000  Biso   1.000  C
  C164     1.0000 0.13180  0.26570  0.93000  Biso   1.000  C
  C165     1.0000 0.11820  0.51570  0.18000  Biso   1.000  C
  C166     1.0000 0.88180  0.48430  0.18000  Biso   1.000  C
  C167     1.0000 0.36820  0.73430  0.43000  Biso   1.000  C
  C168     1.0000 0.13180  0.76570  0.43000  Biso   1.000  C
  C169     1.0000 0.61820  0.01570  0.18000  Biso   1.000  C
  C170     1.0000 0.38180  0.98430  0.18000  Biso   1.000  C
  C171     1.0000 0.86820  0.23430  0.43000  Biso   1.000  C
  C172     1.0000 0.63180  0.26570  0.43000  Biso   1.000  C
  C173     1.0000 0.61820  0.51570  0.68000  Biso   1.000  C
  C174     1.0000 0.38180  0.48430  0.68000  Biso   1.000  C
  C175     1.0000 0.86820  0.73430  0.93000  Biso   1.000  C
  C176     1.0000 0.63180  0.76570  0.93000  Biso   1.000  C
  H241     1.0000 0.08100  0.03250  0.69910  Biso   1.000  H
  H242     1.0000 0.91900  0.96750  0.69910  Biso   1.000  H
  H243     1.0000 0.33100  0.21750  0.94910  Biso   1.000  H
  H244     1.0000 0.16900  0.28250  0.94910  Biso   1.000  H
  H245     1.0000 0.08100  0.53250  0.19910  Biso   1.000  H
  H246     1.0000 0.91900  0.46750  0.19910  Biso   1.000  H
  H247     1.0000 0.33100  0.71750  0.44910  Biso   1.000  H
  H248     1.0000 0.16900  0.78250  0.44910  Biso   1.000  H
  H249     1.0000 0.58100  0.03250  0.19910  Biso   1.000  H
  H250     1.0000 0.41900  0.96750  0.19910  Biso   1.000  H
  H251     1.0000 0.83100  0.21750  0.44910  Biso   1.000  H
  H252     1.0000 0.66900  0.28250  0.44910  Biso   1.000  H
  H253     1.0000 0.58100  0.53250  0.69910  Biso   1.000  H
  H254     1.0000 0.41900  0.46750  0.69910  Biso   1.000  H
  H255     1.0000 0.83100  0.71750  0.94910  Biso   1.000  H
  H256     1.0000 0.66900  0.78250  0.94910  Biso   1.000  H
  H257     1.0000 0.10070  0.99090  0.68920  Biso   1.000  H
  H258     1.0000 0.89930  0.00910  0.68920  Biso   1.000  H
  H259     1.0000 0.35070  0.25910  0.93920  Biso   1.000  H
  H260     1.0000 0.14930  0.24090  0.93920  Biso   1.000  H
  H261     1.0000 0.10070  0.49090  0.18920  Biso   1.000  H
  H262     1.0000 0.89930  0.50910  0.18920  Biso   1.000  H
  H263     1.0000 0.35070  0.75910  0.43920  Biso   1.000  H
  H264     1.0000 0.14930  0.74090  0.43920  Biso   1.000  H
  H265     1.0000 0.60070  0.99090  0.18920  Biso   1.000  H
  H266     1.0000 0.39930  0.00910  0.18920  Biso   1.000  H
  H267     1.0000 0.85070  0.25910  0.43920  Biso   1.000  H
  H268     1.0000 0.64930  0.24090  0.43920  Biso   1.000  H
  H269     1.0000 0.60070  0.49090  0.68920  Biso   1.000  H
  H270     1.0000 0.39930  0.50910  0.68920  Biso   1.000  H
  H271     1.0000 0.85070  0.75910  0.93920  Biso   1.000  H
  H272     1.0000 0.64930  0.74090  0.93920  Biso   1.000  H
  C177     1.0000 0.16990  0.05560  0.52100  Biso   1.000  C
  C178     1.0000 0.83010  0.94440  0.52100  Biso   1.000  C
  C179     1.0000 0.41990  0.19440  0.77100  Biso   1.000  C
  C180     1.0000 0.08010  0.30560  0.77100  Biso   1.000  C
  C181     1.0000 0.16990  0.55560  0.02100  Biso   1.000  C
  C182     1.0000 0.83010  0.44440  0.02100  Biso   1.000  C
  C183     1.0000 0.41990  0.69440  0.27100  Biso   1.000  C
  C184     1.0000 0.08010  0.80560  0.27100  Biso   1.000  C
  C185     1.0000 0.66990  0.05560  0.02100  Biso   1.000  C
  C186     1.0000 0.33010  0.94440  0.02100  Biso   1.000  C
  C187     1.0000 0.91990  0.19440  0.27100  Biso   1.000  C
  C188     1.0000 0.58010  0.30560  0.27100  Biso   1.000  C
  C189     1.0000 0.66990  0.55560  0.52100  Biso   1.000  C
  C190     1.0000 0.33010  0.44440  0.52100  Biso   1.000  C
  C191     1.0000 0.91990  0.69440  0.77100  Biso   1.000  C
  C192     1.0000 0.58010  0.80560  0.77100  Biso   1.000  C
  H273     1.0000 0.13570  0.07490  0.52430  Biso   1.000  H
  H274     1.0000 0.86430  0.92510  0.52430  Biso   1.000  H
  H275     1.0000 0.38570  0.17510  0.77430  Biso   1.000  H
  H276     1.0000 0.11430  0.32490  0.77430  Biso   1.000  H
  H277     1.0000 0.13570  0.57490  0.02430  Biso   1.000  H
  H278     1.0000 0.86430  0.42510  0.02430  Biso   1.000  H
  H279     1.0000 0.38570  0.67510  0.27430  Biso   1.000  H
  H280     1.0000 0.11430  0.82490  0.27430  Biso   1.000  H
  H281     1.0000 0.63570  0.07490  0.02430  Biso   1.000  H
  H282     1.0000 0.36430  0.92510  0.02430  Biso   1.000  H
  H283     1.0000 0.88570  0.17510  0.27430  Biso   1.000  H
  H284     1.0000 0.61430  0.32490  0.27430  Biso   1.000  H
  H285     1.0000 0.63570  0.57490  0.52430  Biso   1.000  H
  H286     1.0000 0.36430  0.42510  0.52430  Biso   1.000  H
  H287     1.0000 0.88570  0.67510  0.77430  Biso   1.000  H
  H288     1.0000 0.61430  0.82490  0.77430  Biso   1.000  H
  H289     1.0000 0.19030  0.05570  0.43590  Biso   1.000  H
  H290     1.0000 0.80970  0.94430  0.43590  Biso   1.000  H
  H291     1.0000 0.44030  0.19430  0.68590  Biso   1.000  H
  H292     1.0000 0.05970  0.30570  0.68590  Biso   1.000  H
  H293     1.0000 0.19030  0.55570  0.93590  Biso   1.000  H
  H294     1.0000 0.80970  0.44430  0.93590  Biso   1.000  H
  H295     1.0000 0.44030  0.69430  0.18590  Biso   1.000  H
  H296     1.0000 0.05970  0.80570  0.18590  Biso   1.000  H
  H297     1.0000 0.69030  0.05570  0.93590  Biso   1.000  H
  H298     1.0000 0.30970  0.94430  0.93590  Biso   1.000  H
  H299     1.0000 0.94030  0.19430  0.18590  Biso   1.000  H
  H300     1.0000 0.55970  0.30570  0.18590  Biso   1.000  H
  H301     1.0000 0.69030  0.55570  0.43590  Biso   1.000  H
  H302     1.0000 0.30970  0.44430  0.43590  Biso   1.000  H
  H303     1.0000 0.94030  0.69430  0.68590  Biso   1.000  H
  H304     1.0000 0.55970  0.80570  0.68590  Biso   1.000  H
  C193     1.0000 0.22770  0.06250  0.62800  Biso   1.000  C
  C194     1.0000 0.77230  0.93750  0.62800  Biso   1.000  C
  C195     1.0000 0.47770  0.18750  0.87800  Biso   1.000  C
  C196     1.0000 0.02230  0.31250  0.87800  Biso   1.000  C
  C197     1.0000 0.22770  0.56250  0.12800  Biso   1.000  C
  C198     1.0000 0.77230  0.43750  0.12800  Biso   1.000  C
  C199     1.0000 0.47770  0.68750  0.37800  Biso   1.000  C
  C200     1.0000 0.02230  0.81250  0.37800  Biso   1.000  C
  C201     1.0000 0.72770  0.06250  0.12800  Biso   1.000  C
  C202     1.0000 0.27230  0.93750  0.12800  Biso   1.000  C
  C203     1.0000 0.97770  0.18750  0.37800  Biso   1.000  C
  C204     1.0000 0.52230  0.31250  0.37800  Biso   1.000  C
  C205     1.0000 0.72770  0.56250  0.62800  Biso   1.000  C
  C206     1.0000 0.27230  0.43750  0.62800  Biso   1.000  C
  C207     1.0000 0.97770  0.68750  0.87800  Biso   1.000  C
  C208     1.0000 0.52230  0.81250  0.87800  Biso   1.000  C
  H305     1.0000 0.26340  0.04430  0.61570  Biso   1.000  H
  H306     1.0000 0.73660  0.95570  0.61570  Biso   1.000  H
  H307     1.0000 0.51340  0.20570  0.86570  Biso   1.000  H
  H308     1.0000 0.98660  0.29430  0.86570  Biso   1.000  H
  H309     1.0000 0.26340  0.54430  0.11570  Biso   1.000  H
  H310     1.0000 0.73660  0.45570  0.11570  Biso   1.000  H
  H311     1.0000 0.51340  0.70570  0.36570  Biso   1.000  H
  H312     1.0000 0.98660  0.79430  0.36570  Biso   1.000  H
  H313     1.0000 0.76340  0.04430  0.11570  Biso   1.000  H
  H314     1.0000 0.23660  0.95570  0.11570  Biso   1.000  H
  H315     1.0000 0.01340  0.20570  0.36570  Biso   1.000  H
  H316     1.0000 0.48660  0.29430  0.36570  Biso   1.000  H
  H317     1.0000 0.76340  0.54430  0.61570  Biso   1.000  H
  H318     1.0000 0.23660  0.45570  0.61570  Biso   1.000  H
  H319     1.0000 0.01340  0.70570  0.86570  Biso   1.000  H
  H320     1.0000 0.48660  0.79430  0.86570  Biso   1.000  H
  H321     1.0000 0.24800  0.08640  0.61180  Biso   1.000  H
  H322     1.0000 0.75200  0.91360  0.61180  Biso   1.000  H
  H323     1.0000 0.49800  0.16360  0.86180  Biso   1.000  H
  H324     1.0000 0.00200  0.33640  0.86180  Biso   1.000  H
  H325     1.0000 0.24800  0.58640  0.11180  Biso   1.000  H
  H326     1.0000 0.75200  0.41360  0.11180  Biso   1.000  H
  H327     1.0000 0.49800  0.66360  0.36180  Biso   1.000  H
  H328     1.0000 0.00200  0.83640  0.36180  Biso   1.000  H
  H329     1.0000 0.74800  0.08640  0.11180  Biso   1.000  H
  H330     1.0000 0.25200  0.91360  0.11180  Biso   1.000  H
  H331     1.0000 0.99800  0.16360  0.36180  Biso   1.000  H
  H332     1.0000 0.50200  0.33640  0.36180  Biso   1.000  H
  H333     1.0000 0.74800  0.58640  0.61180  Biso   1.000  H
  H334     1.0000 0.25200  0.41360  0.61180  Biso   1.000  H
  H335     1.0000 0.99800  0.66360  0.86180  Biso   1.000  H
  H336     1.0000 0.50200  0.83640  0.86180  Biso   1.000  H
  N1       1.0000 0.20170  0.17950  0.33290  Biso   1.000  N
  N2       1.0000 0.79830  0.82050  0.33290  Biso   1.000  N
  N3       1.0000 0.45170  0.07050  0.58290  Biso   1.000  N
  N4       1.0000 0.04830  0.42950  0.58290  Biso   1.000  N
  N5       1.0000 0.20170  0.67950  0.83290  Biso   1.000  N
  N6       1.0000 0.79830  0.32050  0.83290  Biso   1.000  N
  N7       1.0000 0.45170  0.57050  0.08290  Biso   1.000  N
  N8       1.0000 0.04830  0.92950  0.08290  Biso   1.000  N
  N9       1.0000 0.70170  0.17950  0.83290  Biso   1.000  N
  N10      1.0000 0.29830  0.82050  0.83290  Biso   1.000  N
  N11      1.0000 0.95170  0.07050  0.08290  Biso   1.000  N
  N12      1.0000 0.54830  0.42950  0.08290  Biso   1.000  N
  N13      1.0000 0.70170  0.67950  0.33290  Biso   1.000  N
  N14      1.0000 0.29830  0.32050  0.33290  Biso   1.000  N
  N15      1.0000 0.95170  0.57050  0.58290  Biso   1.000  N
  N16      1.0000 0.54830  0.92950  0.58290  Biso   1.000  N
  N17      1.0000 0.13960  0.02130  0.54560  Biso   1.000  N
  N18      1.0000 0.86040  0.97870  0.54560  Biso   1.000  N
  N19      1.0000 0.38960  0.22870  0.79560  Biso   1.000  N
  N20      1.0000 0.11040  0.27130  0.79560  Biso   1.000  N
  N21      1.0000 0.13960  0.52130  0.04560  Biso   1.000  N
  N22      1.0000 0.86040  0.47870  0.04560  Biso   1.000  N
  N23      1.0000 0.38960  0.72870  0.29560  Biso   1.000  N
  N24      1.0000 0.11040  0.77130  0.29560  Biso   1.000  N
  N25      1.0000 0.63960  0.02130  0.04560  Biso   1.000  N
  N26      1.0000 0.36040  0.97870  0.04560  Biso   1.000  N
  N27      1.0000 0.88960  0.22870  0.29560  Biso   1.000  N
  N28      1.0000 0.61040  0.27130  0.29560  Biso   1.000  N
  N29      1.0000 0.63960  0.52130  0.54560  Biso   1.000  N
  N30      1.0000 0.36040  0.47870  0.54560  Biso   1.000  N
  N31      1.0000 0.88960  0.72870  0.79560  Biso   1.000  N
  N32      1.0000 0.61040  0.77130  0.79560  Biso   1.000  N
  H337     1.0000 0.13410  0.00490  0.48740  Biso   1.000  H
  H338     1.0000 0.86590  0.99510  0.48740  Biso   1.000  H
  H339     1.0000 0.38410  0.24510  0.73740  Biso   1.000  H
  H340     1.0000 0.11590  0.25490  0.73740  Biso   1.000  H
  H341     1.0000 0.13410  0.50490  0.98740  Biso   1.000  H
  H342     1.0000 0.86590  0.49510  0.98740  Biso   1.000  H
  H343     1.0000 0.38410  0.74510  0.23740  Biso   1.000  H
  H344     1.0000 0.11590  0.75490  0.23740  Biso   1.000  H
  H345     1.0000 0.63410  0.00490  0.98740  Biso   1.000  H
  H346     1.0000 0.36590  0.99510  0.98740  Biso   1.000  H
  H347     1.0000 0.88410  0.24510  0.23740  Biso   1.000  H
  H348     1.0000 0.61590  0.25490  0.23740  Biso   1.000  H
  H349     1.0000 0.63410  0.50490  0.48740  Biso   1.000  H
  H350     1.0000 0.36590  0.49510  0.48740  Biso   1.000  H
  H351     1.0000 0.88410  0.74510  0.73740  Biso   1.000  H
  H352     1.0000 0.61590  0.75490  0.73740  Biso   1.000  H
