data_image0
_cell_length_a       18.537
_cell_length_b       46.211
_cell_length_c       34.925
_cell_angle_alpha    90
_cell_angle_beta     90
_cell_angle_gamma    90

_symmetry_space_group_name_H-M    "P 1"
_symmetry_int_tables_number       1

loop_
  _symmetry_equiv_pos_as_xyz
  'x, y, z'

loop_
  _atom_site_label
  _atom_site_occupancy
  _atom_site_fract_x
  _atom_site_fract_y
  _atom_site_fract_z
  _atom_site_thermal_displace_type
  _atom_site_B_iso_or_equiv
  _atom_site_type_symbol
  Cu1      1.0000 0.53519  0.04218  0.04481  Biso   1.000  Cu
  Cu2      1.0000 0.03519  0.54218  0.04481  Biso   1.000  Cu
  Cu3      1.0000 0.96481  0.95782  0.04481  Biso   1.000  Cu
  Cu4      1.0000 0.46481  0.04218  0.45519  Biso   1.000  Cu
  Cu5      1.0000 0.03519  0.95782  0.45519  Biso   1.000  Cu
  Cu6      1.0000 0.46481  0.45782  0.04481  Biso   1.000  Cu
  Cu7      1.0000 0.96481  0.54218  0.45519  Biso   1.000  Cu
  Cu8      1.0000 0.53519  0.45782  0.45519  Biso   1.000  Cu
  Cu9      1.0000 0.46481  0.95782  0.95519  Biso   1.000  Cu
  Cu10     1.0000 0.96481  0.45782  0.95519  Biso   1.000  Cu
  Cu11     1.0000 0.03519  0.04218  0.95519  Biso   1.000  Cu
  Cu12     1.0000 0.53519  0.95782  0.54481  Biso   1.000  Cu
  Cu13     1.0000 0.96481  0.04218  0.54481  Biso   1.000  Cu
  Cu14     1.0000 0.53519  0.54218  0.95519  Biso   1.000  Cu
  Cu15     1.0000 0.03519  0.45782  0.54481  Biso   1.000  Cu
  Cu16     1.0000 0.46481  0.54218  0.54481  Biso   1.000  Cu
  Cu17     1.0000 0.51403  0.02377  0.95616  Biso   1.000  Cu
  Cu18     1.0000 0.01403  0.52377  0.95616  Biso   1.000  Cu
  Cu19     1.0000 0.98597  0.97623  0.95616  Biso   1.000  Cu
  Cu20     1.0000 0.48597  0.02377  0.54384  Biso   1.000  Cu
  Cu21     1.0000 0.01403  0.97623  0.54384  Biso   1.000  Cu
  Cu22     1.0000 0.48597  0.47623  0.95616  Biso   1.000  Cu
  Cu23     1.0000 0.98597  0.52377  0.54384  Biso   1.000  Cu
  Cu24     1.0000 0.51403  0.47623  0.54384  Biso   1.000  Cu
  Cu25     1.0000 0.48597  0.97623  0.04384  Biso   1.000  Cu
  Cu26     1.0000 0.98597  0.47623  0.04384  Biso   1.000  Cu
  Cu27     1.0000 0.01403  0.02377  0.04384  Biso   1.000  Cu
  Cu28     1.0000 0.51403  0.97623  0.45616  Biso   1.000  Cu
  Cu29     1.0000 0.98597  0.02377  0.45616  Biso   1.000  Cu
  Cu30     1.0000 0.51403  0.52377  0.04384  Biso   1.000  Cu
  Cu31     1.0000 0.01403  0.47623  0.45616  Biso   1.000  Cu
  Cu32     1.0000 0.48597  0.52377  0.45616  Biso   1.000  Cu
  Cu33     1.0000 0.40265  0.06655  0.99961  Biso   1.000  Cu
  Cu34     1.0000 0.90265  0.56655  0.99961  Biso   1.000  Cu
  Cu35     1.0000 0.09735  0.93345  0.99961  Biso   1.000  Cu
  Cu36     1.0000 0.59735  0.06655  0.50039  Biso   1.000  Cu
  Cu37     1.0000 0.90265  0.93345  0.50039  Biso   1.000  Cu
  Cu38     1.0000 0.59735  0.43345  0.99961  Biso   1.000  Cu
  Cu39     1.0000 0.09735  0.56655  0.50039  Biso   1.000  Cu
  Cu40     1.0000 0.40265  0.43345  0.50039  Biso   1.000  Cu
  Cu41     1.0000 0.59735  0.93345  0.00039  Biso   1.000  Cu
  Cu42     1.0000 0.09735  0.43345  0.00039  Biso   1.000  Cu
  Cu43     1.0000 0.90265  0.06655  0.00039  Biso   1.000  Cu
  Cu44     1.0000 0.40265  0.93345  0.49961  Biso   1.000  Cu
  Cu45     1.0000 0.09735  0.06655  0.49961  Biso   1.000  Cu
  Cu46     1.0000 0.40265  0.56655  0.00039  Biso   1.000  Cu
  Cu47     1.0000 0.90265  0.43345  0.49961  Biso   1.000  Cu
  Cu48     1.0000 0.59735  0.56655  0.49961  Biso   1.000  Cu
  Cu49     1.0000 0.30153  0.15275  0.22771  Biso   1.000  Cu
  Cu50     1.0000 0.80153  0.65275  0.22771  Biso   1.000  Cu
  Cu51     1.0000 0.19847  0.84725  0.22771  Biso   1.000  Cu
  Cu52     1.0000 0.69847  0.15275  0.27229  Biso   1.000  Cu
  Cu53     1.0000 0.80153  0.84725  0.27229  Biso   1.000  Cu
  Cu54     1.0000 0.69847  0.34725  0.22771  Biso   1.000  Cu
  Cu55     1.0000 0.19847  0.65275  0.27229  Biso   1.000  Cu
  Cu56     1.0000 0.30153  0.34725  0.27229  Biso   1.000  Cu
  Cu57     1.0000 0.69847  0.84725  0.77229  Biso   1.000  Cu
  Cu58     1.0000 0.19847  0.34725  0.77229  Biso   1.000  Cu
  Cu59     1.0000 0.80153  0.15275  0.77229  Biso   1.000  Cu
  Cu60     1.0000 0.30153  0.84725  0.72771  Biso   1.000  Cu
  Cu61     1.0000 0.19847  0.15275  0.72771  Biso   1.000  Cu
  Cu62     1.0000 0.30153  0.65275  0.77229  Biso   1.000  Cu
  Cu63     1.0000 0.80153  0.34725  0.72771  Biso   1.000  Cu
  Cu64     1.0000 0.69847  0.65275  0.72771  Biso   1.000  Cu
  Cu65     1.0000 0.33313  0.15258  0.77998  Biso   1.000  Cu
  Cu66     1.0000 0.83313  0.65258  0.77998  Biso   1.000  Cu
  Cu67     1.0000 0.16687  0.84742  0.77998  Biso   1.000  Cu
  Cu68     1.0000 0.66687  0.15258  0.72002  Biso   1.000  Cu
  Cu69     1.0000 0.83313  0.84742  0.72002  Biso   1.000  Cu
  Cu70     1.0000 0.66687  0.34742  0.77998  Biso   1.000  Cu
  Cu71     1.0000 0.16687  0.65258  0.72002  Biso   1.000  Cu
  Cu72     1.0000 0.33313  0.34742  0.72002  Biso   1.000  Cu
  Cu73     1.0000 0.66687  0.84742  0.22002  Biso   1.000  Cu
  Cu74     1.0000 0.16687  0.34742  0.22002  Biso   1.000  Cu
  Cu75     1.0000 0.83313  0.15258  0.22002  Biso   1.000  Cu
  Cu76     1.0000 0.33313  0.84742  0.27998  Biso   1.000  Cu
  Cu77     1.0000 0.16687  0.15258  0.27998  Biso   1.000  Cu
  Cu78     1.0000 0.33313  0.65258  0.22002  Biso   1.000  Cu
  Cu79     1.0000 0.83313  0.34742  0.27998  Biso   1.000  Cu
  Cu80     1.0000 0.66687  0.65258  0.27998  Biso   1.000  Cu
  Cu81     1.0000 0.22449  0.09215  0.24297  Biso   1.000  Cu
  Cu82     1.0000 0.72449  0.59215  0.24297  Biso   1.000  Cu
  Cu83     1.0000 0.27551  0.90785  0.24297  Biso   1.000  Cu
  Cu84     1.0000 0.77551  0.09215  0.25703  Biso   1.000  Cu
  Cu85     1.0000 0.72449  0.90785  0.25703  Biso   1.000  Cu
  Cu86     1.0000 0.77551  0.40785  0.24297  Biso   1.000  Cu
  Cu87     1.0000 0.27551  0.59215  0.25703  Biso   1.000  Cu
  Cu88     1.0000 0.22449  0.40785  0.25703  Biso   1.000  Cu
  Cu89     1.0000 0.77551  0.90785  0.75703  Biso   1.000  Cu
  Cu90     1.0000 0.27551  0.40785  0.75703  Biso   1.000  Cu
  Cu91     1.0000 0.72449  0.09215  0.75703  Biso   1.000  Cu
  Cu92     1.0000 0.22449  0.90785  0.74297  Biso   1.000  Cu
  Cu93     1.0000 0.27551  0.09215  0.74297  Biso   1.000  Cu
  Cu94     1.0000 0.22449  0.59215  0.75703  Biso   1.000  Cu
  Cu95     1.0000 0.72449  0.40785  0.74297  Biso   1.000  Cu
  Cu96     1.0000 0.77551  0.59215  0.74297  Biso   1.000  Cu
  Cu97     1.0000 0.65912  0.18031  0.00026  Biso   1.000  Cu
  Cu98     1.0000 0.15912  0.68031  0.00026  Biso   1.000  Cu
  Cu99     1.0000 0.84088  0.81969  0.00026  Biso   1.000  Cu
  Cu100    1.0000 0.34088  0.18031  0.49974  Biso   1.000  Cu
  Cu101    1.0000 0.15912  0.81969  0.49974  Biso   1.000  Cu
  Cu102    1.0000 0.34088  0.31969  0.00026  Biso   1.000  Cu
  Cu103    1.0000 0.84088  0.68031  0.49974  Biso   1.000  Cu
  Cu104    1.0000 0.65912  0.31969  0.49974  Biso   1.000  Cu
  Cu105    1.0000 0.34088  0.81969  0.99974  Biso   1.000  Cu
  Cu106    1.0000 0.84088  0.31969  0.99974  Biso   1.000  Cu
  Cu107    1.0000 0.15912  0.18031  0.99974  Biso   1.000  Cu
  Cu108    1.0000 0.65912  0.81969  0.50026  Biso   1.000  Cu
  Cu109    1.0000 0.84088  0.18031  0.50026  Biso   1.000  Cu
  Cu110    1.0000 0.65912  0.68031  0.99974  Biso   1.000  Cu
  Cu111    1.0000 0.15912  0.31969  0.50026  Biso   1.000  Cu
  Cu112    1.0000 0.34088  0.68031  0.50026  Biso   1.000  Cu
  Cu113    1.0000 0.78421  0.20696  0.95182  Biso   1.000  Cu
  Cu114    1.0000 0.28421  0.70696  0.95182  Biso   1.000  Cu
  Cu115    1.0000 0.71579  0.79304  0.95182  Biso   1.000  Cu
  Cu116    1.0000 0.21579  0.20696  0.54818  Biso   1.000  Cu
  Cu117    1.0000 0.28421  0.79304  0.54818  Biso   1.000  Cu
  Cu118    1.0000 0.21579  0.29304  0.95182  Biso   1.000  Cu
  Cu119    1.0000 0.71579  0.70696  0.54818  Biso   1.000  Cu
  Cu120    1.0000 0.78421  0.29304  0.54818  Biso   1.000  Cu
  Cu121    1.0000 0.21579  0.79304  0.04818  Biso   1.000  Cu
  Cu122    1.0000 0.71579  0.29304  0.04818  Biso   1.000  Cu
  Cu123    1.0000 0.28421  0.20696  0.04818  Biso   1.000  Cu
  Cu124    1.0000 0.78421  0.79304  0.45182  Biso   1.000  Cu
  Cu125    1.0000 0.71579  0.20696  0.45182  Biso   1.000  Cu
  Cu126    1.0000 0.78421  0.70696  0.04818  Biso   1.000  Cu
  Cu127    1.0000 0.28421  0.29304  0.45182  Biso   1.000  Cu
  Cu128    1.0000 0.21579  0.70696  0.45182  Biso   1.000  Cu
  Cu129    1.0000 0.76640  0.22682  0.03981  Biso   1.000  Cu
  Cu130    1.0000 0.26640  0.72682  0.03981  Biso   1.000  Cu
  Cu131    1.0000 0.73360  0.77318  0.03981  Biso   1.000  Cu
  Cu132    1.0000 0.23360  0.22682  0.46019  Biso   1.000  Cu
  Cu133    1.0000 0.26640  0.77318  0.46019  Biso   1.000  Cu
  Cu134    1.0000 0.23360  0.27318  0.03981  Biso   1.000  Cu
  Cu135    1.0000 0.73360  0.72682  0.46019  Biso   1.000  Cu
  Cu136    1.0000 0.76640  0.27318  0.46019  Biso   1.000  Cu
  Cu137    1.0000 0.23360  0.77318  0.96019  Biso   1.000  Cu
  Cu138    1.0000 0.73360  0.27318  0.96019  Biso   1.000  Cu
  Cu139    1.0000 0.26640  0.22682  0.96019  Biso   1.000  Cu
  Cu140    1.0000 0.76640  0.77318  0.53981  Biso   1.000  Cu
  Cu141    1.0000 0.73360  0.22682  0.53981  Biso   1.000  Cu
  Cu142    1.0000 0.76640  0.72682  0.96019  Biso   1.000  Cu
  Cu143    1.0000 0.26640  0.27318  0.53981  Biso   1.000  Cu
  Cu144    1.0000 0.23360  0.72682  0.53981  Biso   1.000  Cu
  Cu145    1.0000 0.57454  0.11031  0.22844  Biso   1.000  Cu
  Cu146    1.0000 0.07454  0.61031  0.22844  Biso   1.000  Cu
  Cu147    1.0000 0.92546  0.88969  0.22844  Biso   1.000  Cu
  Cu148    1.0000 0.42546  0.11031  0.27156  Biso   1.000  Cu
  Cu149    1.0000 0.07454  0.88969  0.27156  Biso   1.000  Cu
  Cu150    1.0000 0.42546  0.38969  0.22844  Biso   1.000  Cu
  Cu151    1.0000 0.92546  0.61031  0.27156  Biso   1.000  Cu
  Cu152    1.0000 0.57454  0.38969  0.27156  Biso   1.000  Cu
  Cu153    1.0000 0.42546  0.88969  0.77156  Biso   1.000  Cu
  Cu154    1.0000 0.92546  0.38969  0.77156  Biso   1.000  Cu
  Cu155    1.0000 0.07454  0.11031  0.77156  Biso   1.000  Cu
  Cu156    1.0000 0.57454  0.88969  0.72844  Biso   1.000  Cu
  Cu157    1.0000 0.92546  0.11031  0.72844  Biso   1.000  Cu
  Cu158    1.0000 0.57454  0.61031  0.77156  Biso   1.000  Cu
  Cu159    1.0000 0.07454  0.38969  0.72844  Biso   1.000  Cu
  Cu160    1.0000 0.42546  0.61031  0.72844  Biso   1.000  Cu
  Cu161    1.0000 0.55325  0.08393  0.78254  Biso   1.000  Cu
  Cu162    1.0000 0.05325  0.58393  0.78254  Biso   1.000  Cu
  Cu163    1.0000 0.94675  0.91607  0.78254  Biso   1.000  Cu
  Cu164    1.0000 0.44675  0.08393  0.71746  Biso   1.000  Cu
  Cu165    1.0000 0.05325  0.91607  0.71746  Biso   1.000  Cu
  Cu166    1.0000 0.44675  0.41607  0.78254  Biso   1.000  Cu
  Cu167    1.0000 0.94675  0.58393  0.71746  Biso   1.000  Cu
  Cu168    1.0000 0.55325  0.41607  0.71746  Biso   1.000  Cu
  Cu169    1.0000 0.44675  0.91607  0.21746  Biso   1.000  Cu
  Cu170    1.0000 0.94675  0.41607  0.21746  Biso   1.000  Cu
  Cu171    1.0000 0.05325  0.08393  0.21746  Biso   1.000  Cu
  Cu172    1.0000 0.55325  0.91607  0.28254  Biso   1.000  Cu
  Cu173    1.0000 0.94675  0.08393  0.28254  Biso   1.000  Cu
  Cu174    1.0000 0.55325  0.58393  0.21746  Biso   1.000  Cu
  Cu175    1.0000 0.05325  0.41607  0.28254  Biso   1.000  Cu
  Cu176    1.0000 0.44675  0.58393  0.28254  Biso   1.000  Cu
  Cu177    1.0000 0.50000  0.14667  0.75000  Biso   1.000  Cu
  Cu178    1.0000 0.00000  0.64667  0.75000  Biso   1.000  Cu
  Cu179    1.0000 0.00000  0.85333  0.75000  Biso   1.000  Cu
  Cu180    1.0000 0.50000  0.35333  0.75000  Biso   1.000  Cu
  Cu181    1.0000 0.50000  0.85333  0.25000  Biso   1.000  Cu
  Cu182    1.0000 0.00000  0.35333  0.25000  Biso   1.000  Cu
  Cu183    1.0000 0.00000  0.14667  0.25000  Biso   1.000  Cu
  Cu184    1.0000 0.50000  0.64667  0.25000  Biso   1.000  Cu
  Cu185    1.0000 0.50000  0.16991  0.25000  Biso   1.000  Cu
  Cu186    1.0000 0.00000  0.66991  0.25000  Biso   1.000  Cu
  Cu187    1.0000 0.00000  0.83009  0.25000  Biso   1.000  Cu
  Cu188    1.0000 0.50000  0.33009  0.25000  Biso   1.000  Cu
  Cu189    1.0000 0.50000  0.83009  0.75000  Biso   1.000  Cu
  Cu190    1.0000 0.00000  0.33009  0.75000  Biso   1.000  Cu
  Cu191    1.0000 0.00000  0.16991  0.75000  Biso   1.000  Cu
  Cu192    1.0000 0.50000  0.66991  0.75000  Biso   1.000  Cu
  N1       1.0000 0.60810  0.02405  0.01815  Biso   1.000  N
  N2       1.0000 0.10810  0.52405  0.01815  Biso   1.000  N
  N3       1.0000 0.89190  0.97595  0.01815  Biso   1.000  N
  N4       1.0000 0.39190  0.02405  0.48185  Biso   1.000  N
  N5       1.0000 0.10810  0.97595  0.48185  Biso   1.000  N
  N6       1.0000 0.39190  0.47595  0.01815  Biso   1.000  N
  N7       1.0000 0.89190  0.52405  0.48185  Biso   1.000  N
  N8       1.0000 0.60810  0.47595  0.48185  Biso   1.000  N
  N9       1.0000 0.39190  0.97595  0.98185  Biso   1.000  N
  N10      1.0000 0.89190  0.47595  0.98185  Biso   1.000  N
  N11      1.0000 0.10810  0.02405  0.98185  Biso   1.000  N
  N12      1.0000 0.60810  0.97595  0.51815  Biso   1.000  N
  N13      1.0000 0.89190  0.02405  0.51815  Biso   1.000  N
  N14      1.0000 0.60810  0.52405  0.98185  Biso   1.000  N
  N15      1.0000 0.10810  0.47595  0.51815  Biso   1.000  N
  N16      1.0000 0.39190  0.52405  0.51815  Biso   1.000  N
  N17      1.0000 0.59760  0.01323  0.98193  Biso   1.000  N
  N18      1.0000 0.09760  0.51323  0.98193  Biso   1.000  N
  N19      1.0000 0.90240  0.98677  0.98193  Biso   1.000  N
  N20      1.0000 0.40240  0.01323  0.51807  Biso   1.000  N
  N21      1.0000 0.09760  0.98677  0.51807  Biso   1.000  N
  N22      1.0000 0.40240  0.48677  0.98193  Biso   1.000  N
  N23      1.0000 0.90240  0.51323  0.51807  Biso   1.000  N
  N24      1.0000 0.59760  0.48677  0.51807  Biso   1.000  N
  N25      1.0000 0.40240  0.98677  0.01807  Biso   1.000  N
  N26      1.0000 0.90240  0.48677  0.01807  Biso   1.000  N
  N27      1.0000 0.09760  0.01323  0.01807  Biso   1.000  N
  N28      1.0000 0.59760  0.98677  0.48193  Biso   1.000  N
  N29      1.0000 0.90240  0.01323  0.48193  Biso   1.000  N
  N30      1.0000 0.59760  0.51323  0.01807  Biso   1.000  N
  N31      1.0000 0.09760  0.48677  0.48193  Biso   1.000  N
  N32      1.0000 0.40240  0.51323  0.48193  Biso   1.000  N
  N33      1.0000 0.44190  0.04234  0.92855  Biso   1.000  N
  N34      1.0000 0.94190  0.54234  0.92855  Biso   1.000  N
  N35      1.0000 0.05810  0.95766  0.92855  Biso   1.000  N
  N36      1.0000 0.55810  0.04234  0.57145  Biso   1.000  N
  N37      1.0000 0.94190  0.95766  0.57145  Biso   1.000  N
  N38      1.0000 0.55810  0.45766  0.92855  Biso   1.000  N
  N39      1.0000 0.05810  0.54234  0.57145  Biso   1.000  N
  N40      1.0000 0.44190  0.45766  0.57145  Biso   1.000  N
  N41      1.0000 0.55810  0.95766  0.07145  Biso   1.000  N
  N42      1.0000 0.05810  0.45766  0.07145  Biso   1.000  N
  N43      1.0000 0.94190  0.04234  0.07145  Biso   1.000  N
  N44      1.0000 0.44190  0.95766  0.42855  Biso   1.000  N
  N45      1.0000 0.05810  0.04234  0.42855  Biso   1.000  N
  N46      1.0000 0.44190  0.54234  0.07145  Biso   1.000  N
  N47      1.0000 0.94190  0.45766  0.42855  Biso   1.000  N
  N48      1.0000 0.55810  0.54234  0.42855  Biso   1.000  N
  N49      1.0000 0.39810  0.06216  0.94727  Biso   1.000  N
  N50      1.0000 0.89810  0.56216  0.94727  Biso   1.000  N
  N51      1.0000 0.10190  0.93784  0.94727  Biso   1.000  N
  N52      1.0000 0.60190  0.06216  0.55273  Biso   1.000  N
  N53      1.0000 0.89810  0.93784  0.55273  Biso   1.000  N
  N54      1.0000 0.60190  0.43784  0.94727  Biso   1.000  N
  N55      1.0000 0.10190  0.56216  0.55273  Biso   1.000  N
  N56      1.0000 0.39810  0.43784  0.55273  Biso   1.000  N
  N57      1.0000 0.60190  0.93784  0.05273  Biso   1.000  N
  N58      1.0000 0.10190  0.43784  0.05273  Biso   1.000  N
  N59      1.0000 0.89810  0.06216  0.05273  Biso   1.000  N
  N60      1.0000 0.39810  0.93784  0.44727  Biso   1.000  N
  N61      1.0000 0.10190  0.06216  0.44727  Biso   1.000  N
  N62      1.0000 0.39810  0.56216  0.05273  Biso   1.000  N
  N63      1.0000 0.89810  0.43784  0.44727  Biso   1.000  N
  N64      1.0000 0.60190  0.56216  0.44727  Biso   1.000  N
  N65      1.0000 0.35390  0.11728  0.80218  Biso   1.000  N
  N66      1.0000 0.85390  0.61728  0.80218  Biso   1.000  N
  N67      1.0000 0.14610  0.88272  0.80218  Biso   1.000  N
  N68      1.0000 0.64610  0.11728  0.69782  Biso   1.000  N
  N69      1.0000 0.85390  0.88272  0.69782  Biso   1.000  N
  N70      1.0000 0.64610  0.38272  0.80218  Biso   1.000  N
  N71      1.0000 0.14610  0.61728  0.69782  Biso   1.000  N
  N72      1.0000 0.35390  0.38272  0.69782  Biso   1.000  N
  N73      1.0000 0.64610  0.88272  0.19782  Biso   1.000  N
  N74      1.0000 0.14610  0.38272  0.19782  Biso   1.000  N
  N75      1.0000 0.85390  0.11728  0.19782  Biso   1.000  N
  N76      1.0000 0.35390  0.88272  0.30218  Biso   1.000  N
  N77      1.0000 0.14610  0.11728  0.30218  Biso   1.000  N
  N78      1.0000 0.35390  0.61728  0.19782  Biso   1.000  N
  N79      1.0000 0.85390  0.38272  0.30218  Biso   1.000  N
  N80      1.0000 0.64610  0.61728  0.30218  Biso   1.000  N
  N81      1.0000 0.32940  0.09122  0.78760  Biso   1.000  N
  N82      1.0000 0.82940  0.59122  0.78760  Biso   1.000  N
  N83      1.0000 0.17060  0.90878  0.78760  Biso   1.000  N
  N84      1.0000 0.67060  0.09122  0.71240  Biso   1.000  N
  N85      1.0000 0.82940  0.90878  0.71240  Biso   1.000  N
  N86      1.0000 0.67060  0.40878  0.78760  Biso   1.000  N
  N87      1.0000 0.17060  0.59122  0.71240  Biso   1.000  N
  N88      1.0000 0.32940  0.40878  0.71240  Biso   1.000  N
  N89      1.0000 0.67060  0.90878  0.21240  Biso   1.000  N
  N90      1.0000 0.17060  0.40878  0.21240  Biso   1.000  N
  N91      1.0000 0.82940  0.09122  0.21240  Biso   1.000  N
  N92      1.0000 0.32940  0.90878  0.28760  Biso   1.000  N
  N93      1.0000 0.17060  0.09122  0.28760  Biso   1.000  N
  N94      1.0000 0.32940  0.59122  0.21240  Biso   1.000  N
  N95      1.0000 0.82940  0.40878  0.28760  Biso   1.000  N
  N96      1.0000 0.67060  0.59122  0.28760  Biso   1.000  N
  N97      1.0000 0.20160  0.18833  0.26474  Biso   1.000  N
  N98      1.0000 0.70160  0.68833  0.26474  Biso   1.000  N
  N99      1.0000 0.29840  0.81167  0.26474  Biso   1.000  N
  N100     1.0000 0.79840  0.18833  0.23526  Biso   1.000  N
  N101     1.0000 0.70160  0.81167  0.23526  Biso   1.000  N
  N102     1.0000 0.79840  0.31167  0.26474  Biso   1.000  N
  N103     1.0000 0.29840  0.68833  0.23526  Biso   1.000  N
  N104     1.0000 0.20160  0.31167  0.23526  Biso   1.000  N
  N105     1.0000 0.79840  0.81167  0.73526  Biso   1.000  N
  N106     1.0000 0.29840  0.31167  0.73526  Biso   1.000  N
  N107     1.0000 0.70160  0.18833  0.73526  Biso   1.000  N
  N108     1.0000 0.20160  0.81167  0.76474  Biso   1.000  N
  N109     1.0000 0.29840  0.18833  0.76474  Biso   1.000  N
  N110     1.0000 0.20160  0.68833  0.73526  Biso   1.000  N
  N111     1.0000 0.70160  0.31167  0.76474  Biso   1.000  N
  N112     1.0000 0.79840  0.68833  0.76474  Biso   1.000  N
  N113     1.0000 0.26650  0.18781  0.24583  Biso   1.000  N
  N114     1.0000 0.76650  0.68781  0.24583  Biso   1.000  N
  N115     1.0000 0.23350  0.81219  0.24583  Biso   1.000  N
  N116     1.0000 0.73350  0.18781  0.25417  Biso   1.000  N
  N117     1.0000 0.76650  0.81219  0.25417  Biso   1.000  N
  N118     1.0000 0.73350  0.31219  0.24583  Biso   1.000  N
  N119     1.0000 0.23350  0.68781  0.25417  Biso   1.000  N
  N120     1.0000 0.26650  0.31219  0.25417  Biso   1.000  N
  N121     1.0000 0.73350  0.81219  0.75417  Biso   1.000  N
  N122     1.0000 0.23350  0.31219  0.75417  Biso   1.000  N
  N123     1.0000 0.76650  0.18781  0.75417  Biso   1.000  N
  N124     1.0000 0.26650  0.81219  0.74583  Biso   1.000  N
  N125     1.0000 0.23350  0.18781  0.74583  Biso   1.000  N
  N126     1.0000 0.26650  0.68781  0.75417  Biso   1.000  N
  N127     1.0000 0.76650  0.31219  0.74583  Biso   1.000  N
  N128     1.0000 0.73350  0.68781  0.74583  Biso   1.000  N
  N129     1.0000 0.32660  0.12054  0.19903  Biso   1.000  N
  N130     1.0000 0.82660  0.62054  0.19903  Biso   1.000  N
  N131     1.0000 0.17340  0.87946  0.19903  Biso   1.000  N
  N132     1.0000 0.67340  0.12054  0.30097  Biso   1.000  N
  N133     1.0000 0.82660  0.87946  0.30097  Biso   1.000  N
  N134     1.0000 0.67340  0.37946  0.19903  Biso   1.000  N
  N135     1.0000 0.17340  0.62054  0.30097  Biso   1.000  N
  N136     1.0000 0.32660  0.37946  0.30097  Biso   1.000  N
  N137     1.0000 0.67340  0.87946  0.80097  Biso   1.000  N
  N138     1.0000 0.17340  0.37946  0.80097  Biso   1.000  N
  N139     1.0000 0.82660  0.12054  0.80097  Biso   1.000  N
  N140     1.0000 0.32660  0.87946  0.69903  Biso   1.000  N
  N141     1.0000 0.17340  0.12054  0.69903  Biso   1.000  N
  N142     1.0000 0.32660  0.62054  0.80097  Biso   1.000  N
  N143     1.0000 0.82660  0.37946  0.69903  Biso   1.000  N
  N144     1.0000 0.67340  0.62054  0.69903  Biso   1.000  N
  N145     1.0000 0.28850  0.09512  0.20196  Biso   1.000  N
  N146     1.0000 0.78850  0.59512  0.20196  Biso   1.000  N
  N147     1.0000 0.21150  0.90488  0.20196  Biso   1.000  N
  N148     1.0000 0.71150  0.09512  0.29804  Biso   1.000  N
  N149     1.0000 0.78850  0.90488  0.29804  Biso   1.000  N
  N150     1.0000 0.71150  0.40488  0.20196  Biso   1.000  N
  N151     1.0000 0.21150  0.59512  0.29804  Biso   1.000  N
  N152     1.0000 0.28850  0.40488  0.29804  Biso   1.000  N
  N153     1.0000 0.71150  0.90488  0.79804  Biso   1.000  N
  N154     1.0000 0.21150  0.40488  0.79804  Biso   1.000  N
  N155     1.0000 0.78850  0.09512  0.79804  Biso   1.000  N
  N156     1.0000 0.28850  0.90488  0.70196  Biso   1.000  N
  N157     1.0000 0.21150  0.09512  0.70196  Biso   1.000  N
  N158     1.0000 0.28850  0.59512  0.79804  Biso   1.000  N
  N159     1.0000 0.78850  0.40488  0.70196  Biso   1.000  N
  N160     1.0000 0.71150  0.59512  0.70196  Biso   1.000  N
  N161     1.0000 0.46580  0.06245  0.07176  Biso   1.000  N
  N162     1.0000 0.96580  0.56245  0.07176  Biso   1.000  N
  N163     1.0000 0.03420  0.93755  0.07176  Biso   1.000  N
  N164     1.0000 0.53420  0.06245  0.42824  Biso   1.000  N
  N165     1.0000 0.96580  0.93755  0.42824  Biso   1.000  N
  N166     1.0000 0.53420  0.43755  0.07176  Biso   1.000  N
  N167     1.0000 0.03420  0.56245  0.42824  Biso   1.000  N
  N168     1.0000 0.46580  0.43755  0.42824  Biso   1.000  N
  N169     1.0000 0.53420  0.93755  0.92824  Biso   1.000  N
  N170     1.0000 0.03420  0.43755  0.92824  Biso   1.000  N
  N171     1.0000 0.96580  0.06245  0.92824  Biso   1.000  N
  N172     1.0000 0.46580  0.93755  0.57176  Biso   1.000  N
  N173     1.0000 0.03420  0.06245  0.57176  Biso   1.000  N
  N174     1.0000 0.46580  0.56245  0.92824  Biso   1.000  N
  N175     1.0000 0.96580  0.43755  0.57176  Biso   1.000  N
  N176     1.0000 0.53420  0.56245  0.57176  Biso   1.000  N
  N177     1.0000 0.40870  0.07361  0.05163  Biso   1.000  N
  N178     1.0000 0.90870  0.57361  0.05163  Biso   1.000  N
  N179     1.0000 0.09130  0.92639  0.05163  Biso   1.000  N
  N180     1.0000 0.59130  0.07361  0.44837  Biso   1.000  N
  N181     1.0000 0.90870  0.92639  0.44837  Biso   1.000  N
  N182     1.0000 0.59130  0.42639  0.05163  Biso   1.000  N
  N183     1.0000 0.09130  0.57361  0.44837  Biso   1.000  N
  N184     1.0000 0.40870  0.42639  0.44837  Biso   1.000  N
  N185     1.0000 0.59130  0.92639  0.94837  Biso   1.000  N
  N186     1.0000 0.09130  0.42639  0.94837  Biso   1.000  N
  N187     1.0000 0.90870  0.07361  0.94837  Biso   1.000  N
  N188     1.0000 0.40870  0.92639  0.55163  Biso   1.000  N
  N189     1.0000 0.09130  0.07361  0.55163  Biso   1.000  N
  N190     1.0000 0.40870  0.57361  0.94837  Biso   1.000  N
  N191     1.0000 0.90870  0.42639  0.55163  Biso   1.000  N
  N192     1.0000 0.59130  0.57361  0.55163  Biso   1.000  N
  N193     1.0000 0.60140  0.14374  0.20339  Biso   1.000  N
  N194     1.0000 0.10140  0.64374  0.20339  Biso   1.000  N
  N195     1.0000 0.89860  0.85626  0.20339  Biso   1.000  N
  N196     1.0000 0.39860  0.14374  0.29661  Biso   1.000  N
  N197     1.0000 0.10140  0.85626  0.29661  Biso   1.000  N
  N198     1.0000 0.39860  0.35626  0.20339  Biso   1.000  N
  N199     1.0000 0.89860  0.64374  0.29661  Biso   1.000  N
  N200     1.0000 0.60140  0.35626  0.29661  Biso   1.000  N
  N201     1.0000 0.39860  0.85626  0.79661  Biso   1.000  N
  N202     1.0000 0.89860  0.35626  0.79661  Biso   1.000  N
  N203     1.0000 0.10140  0.14374  0.79661  Biso   1.000  N
  N204     1.0000 0.60140  0.85626  0.70339  Biso   1.000  N
  N205     1.0000 0.89860  0.14374  0.70339  Biso   1.000  N
  N206     1.0000 0.60140  0.64374  0.79661  Biso   1.000  N
  N207     1.0000 0.10140  0.35626  0.70339  Biso   1.000  N
  N208     1.0000 0.39860  0.64374  0.70339  Biso   1.000  N
  N209     1.0000 0.56310  0.16911  0.20961  Biso   1.000  N
  N210     1.0000 0.06310  0.66911  0.20961  Biso   1.000  N
  N211     1.0000 0.93690  0.83089  0.20961  Biso   1.000  N
  N212     1.0000 0.43690  0.16911  0.29039  Biso   1.000  N
  N213     1.0000 0.06310  0.83089  0.29039  Biso   1.000  N
  N214     1.0000 0.43690  0.33089  0.20961  Biso   1.000  N
  N215     1.0000 0.93690  0.66911  0.29039  Biso   1.000  N
  N216     1.0000 0.56310  0.33089  0.29039  Biso   1.000  N
  N217     1.0000 0.43690  0.83089  0.79039  Biso   1.000  N
  N218     1.0000 0.93690  0.33089  0.79039  Biso   1.000  N
  N219     1.0000 0.06310  0.16911  0.79039  Biso   1.000  N
  N220     1.0000 0.56310  0.83089  0.70961  Biso   1.000  N
  N221     1.0000 0.93690  0.16911  0.70961  Biso   1.000  N
  N222     1.0000 0.56310  0.66911  0.79039  Biso   1.000  N
  N223     1.0000 0.06310  0.33089  0.70961  Biso   1.000  N
  N224     1.0000 0.43690  0.66911  0.70961  Biso   1.000  N
  N225     1.0000 0.65640  0.18658  0.05232  Biso   1.000  N
  N226     1.0000 0.15640  0.68658  0.05232  Biso   1.000  N
  N227     1.0000 0.84360  0.81342  0.05232  Biso   1.000  N
  N228     1.0000 0.34360  0.18658  0.44768  Biso   1.000  N
  N229     1.0000 0.15640  0.81342  0.44768  Biso   1.000  N
  N230     1.0000 0.34360  0.31342  0.05232  Biso   1.000  N
  N231     1.0000 0.84360  0.68658  0.44768  Biso   1.000  N
  N232     1.0000 0.65640  0.31342  0.44768  Biso   1.000  N
  N233     1.0000 0.34360  0.81342  0.94768  Biso   1.000  N
  N234     1.0000 0.84360  0.31342  0.94768  Biso   1.000  N
  N235     1.0000 0.15640  0.18658  0.94768  Biso   1.000  N
  N236     1.0000 0.65640  0.81342  0.55232  Biso   1.000  N
  N237     1.0000 0.84360  0.18658  0.55232  Biso   1.000  N
  N238     1.0000 0.65640  0.68658  0.94768  Biso   1.000  N
  N239     1.0000 0.15640  0.31342  0.55232  Biso   1.000  N
  N240     1.0000 0.34360  0.68658  0.55232  Biso   1.000  N
  N241     1.0000 0.69730  0.20804  0.06907  Biso   1.000  N
  N242     1.0000 0.19730  0.70804  0.06907  Biso   1.000  N
  N243     1.0000 0.80270  0.79196  0.06907  Biso   1.000  N
  N244     1.0000 0.30270  0.20804  0.43093  Biso   1.000  N
  N245     1.0000 0.19730  0.79196  0.43093  Biso   1.000  N
  N246     1.0000 0.30270  0.29196  0.06907  Biso   1.000  N
  N247     1.0000 0.80270  0.70804  0.43093  Biso   1.000  N
  N248     1.0000 0.69730  0.29196  0.43093  Biso   1.000  N
  N249     1.0000 0.30270  0.79196  0.93093  Biso   1.000  N
  N250     1.0000 0.80270  0.29196  0.93093  Biso   1.000  N
  N251     1.0000 0.19730  0.20804  0.93093  Biso   1.000  N
  N252     1.0000 0.69730  0.79196  0.56907  Biso   1.000  N
  N253     1.0000 0.80270  0.20804  0.56907  Biso   1.000  N
  N254     1.0000 0.69730  0.70804  0.93093  Biso   1.000  N
  N255     1.0000 0.19730  0.29196  0.56907  Biso   1.000  N
  N256     1.0000 0.30270  0.70804  0.56907  Biso   1.000  N
  N257     1.0000 0.85770  0.22606  0.97672  Biso   1.000  N
  N258     1.0000 0.35770  0.72606  0.97672  Biso   1.000  N
  N259     1.0000 0.64230  0.77394  0.97672  Biso   1.000  N
  N260     1.0000 0.14230  0.22606  0.52328  Biso   1.000  N
  N261     1.0000 0.35770  0.77394  0.52328  Biso   1.000  N
  N262     1.0000 0.14230  0.27394  0.97672  Biso   1.000  N
  N263     1.0000 0.64230  0.72606  0.52328  Biso   1.000  N
  N264     1.0000 0.85770  0.27394  0.52328  Biso   1.000  N
  N265     1.0000 0.14230  0.77394  0.02328  Biso   1.000  N
  N266     1.0000 0.64230  0.27394  0.02328  Biso   1.000  N
  N267     1.0000 0.35770  0.22606  0.02328  Biso   1.000  N
  N268     1.0000 0.85770  0.77394  0.47672  Biso   1.000  N
  N269     1.0000 0.64230  0.22606  0.47672  Biso   1.000  N
  N270     1.0000 0.85770  0.72606  0.02328  Biso   1.000  N
  N271     1.0000 0.35770  0.27394  0.47672  Biso   1.000  N
  N272     1.0000 0.14230  0.72606  0.47672  Biso   1.000  N
  N273     1.0000 0.84730  0.23780  0.01268  Biso   1.000  N
  N274     1.0000 0.34730  0.73780  0.01268  Biso   1.000  N
  N275     1.0000 0.65270  0.76220  0.01268  Biso   1.000  N
  N276     1.0000 0.15270  0.23780  0.48732  Biso   1.000  N
  N277     1.0000 0.34730  0.76220  0.48732  Biso   1.000  N
  N278     1.0000 0.15270  0.26220  0.01268  Biso   1.000  N
  N279     1.0000 0.65270  0.73780  0.48732  Biso   1.000  N
  N280     1.0000 0.84730  0.26220  0.48732  Biso   1.000  N
  N281     1.0000 0.15270  0.76220  0.98732  Biso   1.000  N
  N282     1.0000 0.65270  0.26220  0.98732  Biso   1.000  N
  N283     1.0000 0.34730  0.23780  0.98732  Biso   1.000  N
  N284     1.0000 0.84730  0.76220  0.51268  Biso   1.000  N
  N285     1.0000 0.65270  0.23780  0.51268  Biso   1.000  N
  N286     1.0000 0.84730  0.73780  0.98732  Biso   1.000  N
  N287     1.0000 0.34730  0.26220  0.51268  Biso   1.000  N
  N288     1.0000 0.15270  0.73780  0.51268  Biso   1.000  N
  N289     1.0000 0.66160  0.17253  0.94828  Biso   1.000  N
  N290     1.0000 0.16160  0.67253  0.94828  Biso   1.000  N
  N291     1.0000 0.83840  0.82747  0.94828  Biso   1.000  N
  N292     1.0000 0.33840  0.17253  0.55172  Biso   1.000  N
  N293     1.0000 0.16160  0.82747  0.55172  Biso   1.000  N
  N294     1.0000 0.33840  0.32747  0.94828  Biso   1.000  N
  N295     1.0000 0.83840  0.67253  0.55172  Biso   1.000  N
  N296     1.0000 0.66160  0.32747  0.55172  Biso   1.000  N
  N297     1.0000 0.33840  0.82747  0.05172  Biso   1.000  N
  N298     1.0000 0.83840  0.32747  0.05172  Biso   1.000  N
  N299     1.0000 0.16160  0.17253  0.05172  Biso   1.000  N
  N300     1.0000 0.66160  0.82747  0.44828  Biso   1.000  N
  N301     1.0000 0.83840  0.17253  0.44828  Biso   1.000  N
  N302     1.0000 0.66160  0.67253  0.05172  Biso   1.000  N
  N303     1.0000 0.16160  0.32747  0.44828  Biso   1.000  N
  N304     1.0000 0.33840  0.67253  0.44828  Biso   1.000  N
  N305     1.0000 0.71420  0.18555  0.92679  Biso   1.000  N
  N306     1.0000 0.21420  0.68555  0.92679  Biso   1.000  N
  N307     1.0000 0.78580  0.81445  0.92679  Biso   1.000  N
  N308     1.0000 0.28580  0.18555  0.57321  Biso   1.000  N
  N309     1.0000 0.21420  0.81445  0.57321  Biso   1.000  N
  N310     1.0000 0.28580  0.31445  0.92679  Biso   1.000  N
  N311     1.0000 0.78580  0.68555  0.57321  Biso   1.000  N
  N312     1.0000 0.71420  0.31445  0.57321  Biso   1.000  N
  N313     1.0000 0.28580  0.81445  0.07321  Biso   1.000  N
  N314     1.0000 0.78580  0.31445  0.07321  Biso   1.000  N
  N315     1.0000 0.21420  0.18555  0.07321  Biso   1.000  N
  N316     1.0000 0.71420  0.81445  0.42679  Biso   1.000  N
  N317     1.0000 0.78580  0.18555  0.42679  Biso   1.000  N
  N318     1.0000 0.71420  0.68555  0.07321  Biso   1.000  N
  N319     1.0000 0.21420  0.31445  0.42679  Biso   1.000  N
  N320     1.0000 0.28580  0.68555  0.42679  Biso   1.000  N
  N321     1.0000 0.57060  0.11787  0.80882  Biso   1.000  N
  N322     1.0000 0.07060  0.61787  0.80882  Biso   1.000  N
  N323     1.0000 0.92940  0.88213  0.80882  Biso   1.000  N
  N324     1.0000 0.42940  0.11787  0.69118  Biso   1.000  N
  N325     1.0000 0.07060  0.88213  0.69118  Biso   1.000  N
  N326     1.0000 0.42940  0.38213  0.80882  Biso   1.000  N
  N327     1.0000 0.92940  0.61787  0.69118  Biso   1.000  N
  N328     1.0000 0.57060  0.38213  0.69118  Biso   1.000  N
  N329     1.0000 0.42940  0.88213  0.19118  Biso   1.000  N
  N330     1.0000 0.92940  0.38213  0.19118  Biso   1.000  N
  N331     1.0000 0.07060  0.11787  0.19118  Biso   1.000  N
  N332     1.0000 0.57060  0.88213  0.30882  Biso   1.000  N
  N333     1.0000 0.92940  0.11787  0.30882  Biso   1.000  N
  N334     1.0000 0.57060  0.61787  0.19118  Biso   1.000  N
  N335     1.0000 0.07060  0.38213  0.30882  Biso   1.000  N
  N336     1.0000 0.42940  0.61787  0.30882  Biso   1.000  N
  N337     1.0000 0.55690  0.14514  0.79427  Biso   1.000  N
  N338     1.0000 0.05690  0.64514  0.79427  Biso   1.000  N
  N339     1.0000 0.94310  0.85486  0.79427  Biso   1.000  N
  N340     1.0000 0.44310  0.14514  0.70573  Biso   1.000  N
  N341     1.0000 0.05690  0.85486  0.70573  Biso   1.000  N
  N342     1.0000 0.44310  0.35486  0.79427  Biso   1.000  N
  N343     1.0000 0.94310  0.64514  0.70573  Biso   1.000  N
  N344     1.0000 0.55690  0.35486  0.70573  Biso   1.000  N
  N345     1.0000 0.44310  0.85486  0.20573  Biso   1.000  N
  N346     1.0000 0.94310  0.35486  0.20573  Biso   1.000  N
  N347     1.0000 0.05690  0.14514  0.20573  Biso   1.000  N
  N348     1.0000 0.55690  0.85486  0.29427  Biso   1.000  N
  N349     1.0000 0.94310  0.14514  0.29427  Biso   1.000  N
  N350     1.0000 0.55690  0.64514  0.20573  Biso   1.000  N
  N351     1.0000 0.05690  0.35486  0.29427  Biso   1.000  N
  N352     1.0000 0.44310  0.64514  0.29427  Biso   1.000  N
  N353     1.0000 0.52890  0.04834  0.76209  Biso   1.000  N
  N354     1.0000 0.02890  0.54834  0.76209  Biso   1.000  N
  N355     1.0000 0.97110  0.95166  0.76209  Biso   1.000  N
  N356     1.0000 0.47110  0.04834  0.73791  Biso   1.000  N
  N357     1.0000 0.02890  0.95166  0.73791  Biso   1.000  N
  N358     1.0000 0.47110  0.45166  0.76209  Biso   1.000  N
  N359     1.0000 0.97110  0.54834  0.73791  Biso   1.000  N
  N360     1.0000 0.52890  0.45166  0.73791  Biso   1.000  N
  N361     1.0000 0.47110  0.95166  0.23791  Biso   1.000  N
  N362     1.0000 0.97110  0.45166  0.23791  Biso   1.000  N
  N363     1.0000 0.02890  0.04834  0.23791  Biso   1.000  N
  N364     1.0000 0.52890  0.95166  0.26209  Biso   1.000  N
  N365     1.0000 0.97110  0.04834  0.26209  Biso   1.000  N
  N366     1.0000 0.52890  0.54834  0.23791  Biso   1.000  N
  N367     1.0000 0.02890  0.45166  0.26209  Biso   1.000  N
  N368     1.0000 0.47110  0.54834  0.26209  Biso   1.000  N
  N369     1.0000 0.46490  0.92443  0.75653  Biso   1.000  N
  N370     1.0000 0.96490  0.42443  0.75653  Biso   1.000  N
  N371     1.0000 0.03510  0.07557  0.75653  Biso   1.000  N
  N372     1.0000 0.53510  0.92443  0.74347  Biso   1.000  N
  N373     1.0000 0.96490  0.07557  0.74347  Biso   1.000  N
  N374     1.0000 0.53510  0.57557  0.75653  Biso   1.000  N
  N375     1.0000 0.03510  0.42443  0.74347  Biso   1.000  N
  N376     1.0000 0.46490  0.57557  0.74347  Biso   1.000  N
  N377     1.0000 0.53510  0.07557  0.24347  Biso   1.000  N
  N378     1.0000 0.03510  0.57557  0.24347  Biso   1.000  N
  N379     1.0000 0.96490  0.92443  0.24347  Biso   1.000  N
  N380     1.0000 0.46490  0.07557  0.25653  Biso   1.000  N
  N381     1.0000 0.03510  0.92443  0.25653  Biso   1.000  N
  N382     1.0000 0.46490  0.42443  0.24347  Biso   1.000  N
  N383     1.0000 0.96490  0.57557  0.25653  Biso   1.000  N
  N384     1.0000 0.53510  0.42443  0.25653  Biso   1.000  N
  C1       1.0000 0.70430  0.03001  0.06595  Biso   1.000  C
  C2       1.0000 0.20430  0.53001  0.06595  Biso   1.000  C
  C3       1.0000 0.79570  0.96999  0.06595  Biso   1.000  C
  C4       1.0000 0.29570  0.03001  0.43405  Biso   1.000  C
  C5       1.0000 0.20430  0.96999  0.43405  Biso   1.000  C
  C6       1.0000 0.29570  0.46999  0.06595  Biso   1.000  C
  C7       1.0000 0.79570  0.53001  0.43405  Biso   1.000  C
  C8       1.0000 0.70430  0.46999  0.43405  Biso   1.000  C
  C9       1.0000 0.29570  0.96999  0.93405  Biso   1.000  C
  C10      1.0000 0.79570  0.46999  0.93405  Biso   1.000  C
  C11      1.0000 0.20430  0.03001  0.93405  Biso   1.000  C
  C12      1.0000 0.70430  0.96999  0.56595  Biso   1.000  C
  C13      1.0000 0.79570  0.03001  0.56595  Biso   1.000  C
  C14      1.0000 0.70430  0.53001  0.93405  Biso   1.000  C
  C15      1.0000 0.20430  0.46999  0.56595  Biso   1.000  C
  C16      1.0000 0.29570  0.53001  0.56595  Biso   1.000  C
  H1       1.0000 0.68290  0.04900  0.07150  Biso   1.000  H
  H2       1.0000 0.18290  0.54900  0.07150  Biso   1.000  H
  H3       1.0000 0.81710  0.95100  0.07150  Biso   1.000  H
  H4       1.0000 0.31710  0.04900  0.42850  Biso   1.000  H
  H5       1.0000 0.18290  0.95100  0.42850  Biso   1.000  H
  H6       1.0000 0.31710  0.45100  0.07150  Biso   1.000  H
  H7       1.0000 0.81710  0.54900  0.42850  Biso   1.000  H
  H8       1.0000 0.68290  0.45100  0.42850  Biso   1.000  H
  H9       1.0000 0.31710  0.95100  0.92850  Biso   1.000  H
  H10      1.0000 0.81710  0.45100  0.92850  Biso   1.000  H
  H11      1.0000 0.18290  0.04900  0.92850  Biso   1.000  H
  H12      1.0000 0.68290  0.95100  0.57150  Biso   1.000  H
  H13      1.0000 0.81710  0.04900  0.57150  Biso   1.000  H
  H14      1.0000 0.68290  0.54900  0.92850  Biso   1.000  H
  H15      1.0000 0.18290  0.45100  0.57150  Biso   1.000  H
  H16      1.0000 0.31710  0.54900  0.57150  Biso   1.000  H
  H17      1.0000 0.75690  0.03180  0.06510  Biso   1.000  H
  H18      1.0000 0.25690  0.53180  0.06510  Biso   1.000  H
  H19      1.0000 0.74310  0.96820  0.06510  Biso   1.000  H
  H20      1.0000 0.24310  0.03180  0.43490  Biso   1.000  H
  H21      1.0000 0.25690  0.96820  0.43490  Biso   1.000  H
  H22      1.0000 0.24310  0.46820  0.06510  Biso   1.000  H
  H23      1.0000 0.74310  0.53180  0.43490  Biso   1.000  H
  H24      1.0000 0.75690  0.46820  0.43490  Biso   1.000  H
  H25      1.0000 0.24310  0.96820  0.93490  Biso   1.000  H
  H26      1.0000 0.74310  0.46820  0.93490  Biso   1.000  H
  H27      1.0000 0.25690  0.03180  0.93490  Biso   1.000  H
  H28      1.0000 0.75690  0.96820  0.56510  Biso   1.000  H
  H29      1.0000 0.74310  0.03180  0.56510  Biso   1.000  H
  H30      1.0000 0.75690  0.53180  0.93490  Biso   1.000  H
  H31      1.0000 0.25690  0.46820  0.56510  Biso   1.000  H
  H32      1.0000 0.24310  0.53180  0.56510  Biso   1.000  H
  H33      1.0000 0.69060  0.01630  0.08610  Biso   1.000  H
  H34      1.0000 0.19060  0.51630  0.08610  Biso   1.000  H
  H35      1.0000 0.80940  0.98370  0.08610  Biso   1.000  H
  H36      1.0000 0.30940  0.01630  0.41390  Biso   1.000  H
  H37      1.0000 0.19060  0.98370  0.41390  Biso   1.000  H
  H38      1.0000 0.30940  0.48370  0.08610  Biso   1.000  H
  H39      1.0000 0.80940  0.51630  0.41390  Biso   1.000  H
  H40      1.0000 0.69060  0.48370  0.41390  Biso   1.000  H
  H41      1.0000 0.30940  0.98370  0.91390  Biso   1.000  H
  H42      1.0000 0.80940  0.48370  0.91390  Biso   1.000  H
  H43      1.0000 0.19060  0.01630  0.91390  Biso   1.000  H
  H44      1.0000 0.69060  0.98370  0.58610  Biso   1.000  H
  H45      1.0000 0.80940  0.01630  0.58610  Biso   1.000  H
  H46      1.0000 0.69060  0.51630  0.91390  Biso   1.000  H
  H47      1.0000 0.19060  0.48370  0.58610  Biso   1.000  H
  H48      1.0000 0.30940  0.51630  0.58610  Biso   1.000  H
  C17      1.0000 0.67710  0.01927  0.02795  Biso   1.000  C
  C18      1.0000 0.17710  0.51927  0.02795  Biso   1.000  C
  C19      1.0000 0.82290  0.98073  0.02795  Biso   1.000  C
  C20      1.0000 0.32290  0.01927  0.47205  Biso   1.000  C
  C21      1.0000 0.17710  0.98073  0.47205  Biso   1.000  C
  C22      1.0000 0.32290  0.48073  0.02795  Biso   1.000  C
  C23      1.0000 0.82290  0.51927  0.47205  Biso   1.000  C
  C24      1.0000 0.67710  0.48073  0.47205  Biso   1.000  C
  C25      1.0000 0.32290  0.98073  0.97205  Biso   1.000  C
  C26      1.0000 0.82290  0.48073  0.97205  Biso   1.000  C
  C27      1.0000 0.17710  0.01927  0.97205  Biso   1.000  C
  C28      1.0000 0.67710  0.98073  0.52795  Biso   1.000  C
  C29      1.0000 0.82290  0.01927  0.52795  Biso   1.000  C
  C30      1.0000 0.67710  0.51927  0.97205  Biso   1.000  C
  C31      1.0000 0.17710  0.48073  0.52795  Biso   1.000  C
  C32      1.0000 0.32290  0.51927  0.52795  Biso   1.000  C
  C33      1.0000 0.71220  0.00499  0.99842  Biso   1.000  C
  C34      1.0000 0.21220  0.50499  0.99842  Biso   1.000  C
  C35      1.0000 0.78780  0.99501  0.99842  Biso   1.000  C
  C36      1.0000 0.28780  0.00499  0.50158  Biso   1.000  C
  C37      1.0000 0.21220  0.99501  0.50158  Biso   1.000  C
  C38      1.0000 0.28780  0.49501  0.99842  Biso   1.000  C
  C39      1.0000 0.78780  0.50499  0.50158  Biso   1.000  C
  C40      1.0000 0.71220  0.49501  0.50158  Biso   1.000  C
  C41      1.0000 0.28780  0.99501  0.00158  Biso   1.000  C
  C42      1.0000 0.78780  0.49501  0.00158  Biso   1.000  C
  C43      1.0000 0.21220  0.00499  0.00158  Biso   1.000  C
  C44      1.0000 0.71220  0.99501  0.49842  Biso   1.000  C
  C45      1.0000 0.78780  0.00499  0.49842  Biso   1.000  C
  C46      1.0000 0.71220  0.50499  0.00158  Biso   1.000  C
  C47      1.0000 0.21220  0.49501  0.49842  Biso   1.000  C
  C48      1.0000 0.28780  0.50499  0.49842  Biso   1.000  C
  C49      1.0000 0.65990  0.00179  0.96978  Biso   1.000  C
  C50      1.0000 0.15990  0.50179  0.96978  Biso   1.000  C
  C51      1.0000 0.84010  0.99821  0.96978  Biso   1.000  C
  C52      1.0000 0.34010  0.00179  0.53022  Biso   1.000  C
  C53      1.0000 0.15990  0.99821  0.53022  Biso   1.000  C
  C54      1.0000 0.34010  0.49821  0.96978  Biso   1.000  C
  C55      1.0000 0.84010  0.50179  0.53022  Biso   1.000  C
  C56      1.0000 0.65990  0.49821  0.53022  Biso   1.000  C
  C57      1.0000 0.34010  0.99821  0.03022  Biso   1.000  C
  C58      1.0000 0.84010  0.49821  0.03022  Biso   1.000  C
  C59      1.0000 0.15990  0.00179  0.03022  Biso   1.000  C
  C60      1.0000 0.65990  0.99821  0.46978  Biso   1.000  C
  C61      1.0000 0.84010  0.00179  0.46978  Biso   1.000  C
  C62      1.0000 0.65990  0.50179  0.03022  Biso   1.000  C
  C63      1.0000 0.15990  0.49821  0.46978  Biso   1.000  C
  C64      1.0000 0.34010  0.50179  0.46978  Biso   1.000  C
  C65      1.0000 0.66550  0.98933  0.93032  Biso   1.000  C
  C66      1.0000 0.16550  0.48933  0.93032  Biso   1.000  C
  C67      1.0000 0.83450  0.01067  0.93032  Biso   1.000  C
  C68      1.0000 0.33450  0.98933  0.56968  Biso   1.000  C
  C69      1.0000 0.16550  0.01067  0.56968  Biso   1.000  C
  C70      1.0000 0.33450  0.51067  0.93032  Biso   1.000  C
  C71      1.0000 0.83450  0.48933  0.56968  Biso   1.000  C
  C72      1.0000 0.66550  0.51067  0.56968  Biso   1.000  C
  C73      1.0000 0.33450  0.01067  0.06968  Biso   1.000  C
  C74      1.0000 0.83450  0.51067  0.06968  Biso   1.000  C
  C75      1.0000 0.16550  0.98933  0.06968  Biso   1.000  C
  C76      1.0000 0.66550  0.01067  0.43032  Biso   1.000  C
  C77      1.0000 0.83450  0.98933  0.43032  Biso   1.000  C
  C78      1.0000 0.66550  0.48933  0.06968  Biso   1.000  C
  C79      1.0000 0.16550  0.51067  0.43032  Biso   1.000  C
  C80      1.0000 0.33450  0.48933  0.43032  Biso   1.000  C
  H49      1.0000 0.61850  0.99050  0.91760  Biso   1.000  H
  H50      1.0000 0.11850  0.49050  0.91760  Biso   1.000  H
  H51      1.0000 0.88150  0.00950  0.91760  Biso   1.000  H
  H52      1.0000 0.38150  0.99050  0.58240  Biso   1.000  H
  H53      1.0000 0.11850  0.00950  0.58240  Biso   1.000  H
  H54      1.0000 0.38150  0.50950  0.91760  Biso   1.000  H
  H55      1.0000 0.88150  0.49050  0.58240  Biso   1.000  H
  H56      1.0000 0.61850  0.50950  0.58240  Biso   1.000  H
  H57      1.0000 0.38150  0.00950  0.08240  Biso   1.000  H
  H58      1.0000 0.88150  0.50950  0.08240  Biso   1.000  H
  H59      1.0000 0.11850  0.99050  0.08240  Biso   1.000  H
  H60      1.0000 0.61850  0.00950  0.41760  Biso   1.000  H
  H61      1.0000 0.88150  0.99050  0.41760  Biso   1.000  H
  H62      1.0000 0.61850  0.49050  0.08240  Biso   1.000  H
  H63      1.0000 0.11850  0.50950  0.41760  Biso   1.000  H
  H64      1.0000 0.38150  0.49050  0.41760  Biso   1.000  H
  H65      1.0000 0.68060  0.96900  0.93200  Biso   1.000  H
  H66      1.0000 0.18060  0.46900  0.93200  Biso   1.000  H
  H67      1.0000 0.81940  0.03100  0.93200  Biso   1.000  H
  H68      1.0000 0.31940  0.96900  0.56800  Biso   1.000  H
  H69      1.0000 0.18060  0.03100  0.56800  Biso   1.000  H
  H70      1.0000 0.31940  0.53100  0.93200  Biso   1.000  H
  H71      1.0000 0.81940  0.46900  0.56800  Biso   1.000  H
  H72      1.0000 0.68060  0.53100  0.56800  Biso   1.000  H
  H73      1.0000 0.31940  0.03100  0.06800  Biso   1.000  H
  H74      1.0000 0.81940  0.53100  0.06800  Biso   1.000  H
  H75      1.0000 0.18060  0.96900  0.06800  Biso   1.000  H
  H76      1.0000 0.68060  0.03100  0.43200  Biso   1.000  H
  H77      1.0000 0.81940  0.96900  0.43200  Biso   1.000  H
  H78      1.0000 0.68060  0.46900  0.06800  Biso   1.000  H
  H79      1.0000 0.18060  0.53100  0.43200  Biso   1.000  H
  H80      1.0000 0.31940  0.46900  0.43200  Biso   1.000  H
  H81      1.0000 0.70120  0.00030  0.91550  Biso   1.000  H
  H82      1.0000 0.20120  0.50030  0.91550  Biso   1.000  H
  H83      1.0000 0.79880  0.99970  0.91550  Biso   1.000  H
  H84      1.0000 0.29880  0.00030  0.58450  Biso   1.000  H
  H85      1.0000 0.20120  0.99970  0.58450  Biso   1.000  H
  H86      1.0000 0.29880  0.49970  0.91550  Biso   1.000  H
  H87      1.0000 0.79880  0.50030  0.58450  Biso   1.000  H
  H88      1.0000 0.70120  0.49970  0.58450  Biso   1.000  H
  H89      1.0000 0.29880  0.99970  0.08450  Biso   1.000  H
  H90      1.0000 0.79880  0.49970  0.08450  Biso   1.000  H
  H91      1.0000 0.20120  0.00030  0.08450  Biso   1.000  H
  H92      1.0000 0.70120  0.99970  0.41550  Biso   1.000  H
  H93      1.0000 0.79880  0.00030  0.41550  Biso   1.000  H
  H94      1.0000 0.70120  0.50030  0.08450  Biso   1.000  H
  H95      1.0000 0.20120  0.49970  0.41550  Biso   1.000  H
  H96      1.0000 0.29880  0.50030  0.41550  Biso   1.000  H
  C81      1.0000 0.47770  0.02960  0.86293  Biso   1.000  C
  C82      1.0000 0.97770  0.52960  0.86293  Biso   1.000  C
  C83      1.0000 0.02230  0.97040  0.86293  Biso   1.000  C
  C84      1.0000 0.52230  0.02960  0.63707  Biso   1.000  C
  C85      1.0000 0.97770  0.97040  0.63707  Biso   1.000  C
  C86      1.0000 0.52230  0.47040  0.86293  Biso   1.000  C
  C87      1.0000 0.02230  0.52960  0.63707  Biso   1.000  C
  C88      1.0000 0.47770  0.47040  0.63707  Biso   1.000  C
  C89      1.0000 0.52230  0.97040  0.13707  Biso   1.000  C
  C90      1.0000 0.02230  0.47040  0.13707  Biso   1.000  C
  C91      1.0000 0.97770  0.02960  0.13707  Biso   1.000  C
  C92      1.0000 0.47770  0.97040  0.36293  Biso   1.000  C
  C93      1.0000 0.02230  0.02960  0.36293  Biso   1.000  C
  C94      1.0000 0.47770  0.52960  0.13707  Biso   1.000  C
  C95      1.0000 0.97770  0.47040  0.36293  Biso   1.000  C
  C96      1.0000 0.52230  0.52960  0.36293  Biso   1.000  C
  H97      1.0000 0.52150  0.02230  0.87530  Biso   1.000  H
  H98      1.0000 0.02150  0.52230  0.87530  Biso   1.000  H
  H99      1.0000 0.97850  0.97770  0.87530  Biso   1.000  H
  H100     1.0000 0.47850  0.02230  0.62470  Biso   1.000  H
  H101     1.0000 0.02150  0.97770  0.62470  Biso   1.000  H
  H102     1.0000 0.47850  0.47770  0.87530  Biso   1.000  H
  H103     1.0000 0.97850  0.52230  0.62470  Biso   1.000  H
  H104     1.0000 0.52150  0.47770  0.62470  Biso   1.000  H
  H105     1.0000 0.47850  0.97770  0.12470  Biso   1.000  H
  H106     1.0000 0.97850  0.47770  0.12470  Biso   1.000  H
  H107     1.0000 0.02150  0.02230  0.12470  Biso   1.000  H
  H108     1.0000 0.52150  0.97770  0.37530  Biso   1.000  H
  H109     1.0000 0.97850  0.02230  0.37530  Biso   1.000  H
  H110     1.0000 0.52150  0.52230  0.12470  Biso   1.000  H
  H111     1.0000 0.02150  0.47770  0.37530  Biso   1.000  H
  H112     1.0000 0.47850  0.52230  0.37530  Biso   1.000  H
  H113     1.0000 0.49110  0.04170  0.84100  Biso   1.000  H
  H114     1.0000 0.99110  0.54170  0.84100  Biso   1.000  H
  H115     1.0000 0.00890  0.95830  0.84100  Biso   1.000  H
  H116     1.0000 0.50890  0.04170  0.65900  Biso   1.000  H
  H117     1.0000 0.99110  0.95830  0.65900  Biso   1.000  H
  H118     1.0000 0.50890  0.45830  0.84100  Biso   1.000  H
  H119     1.0000 0.00890  0.54170  0.65900  Biso   1.000  H
  H120     1.0000 0.49110  0.45830  0.65900  Biso   1.000  H
  H121     1.0000 0.50890  0.95830  0.15900  Biso   1.000  H
  H122     1.0000 0.00890  0.45830  0.15900  Biso   1.000  H
  H123     1.0000 0.99110  0.04170  0.15900  Biso   1.000  H
  H124     1.0000 0.49110  0.95830  0.34100  Biso   1.000  H
  H125     1.0000 0.00890  0.04170  0.34100  Biso   1.000  H
  H126     1.0000 0.49110  0.54170  0.15900  Biso   1.000  H
  H127     1.0000 0.99110  0.45830  0.34100  Biso   1.000  H
  H128     1.0000 0.50890  0.54170  0.34100  Biso   1.000  H
  H129     1.0000 0.44830  0.01330  0.85410  Biso   1.000  H
  H130     1.0000 0.94830  0.51330  0.85410  Biso   1.000  H
  H131     1.0000 0.05170  0.98670  0.85410  Biso   1.000  H
  H132     1.0000 0.55170  0.01330  0.64590  Biso   1.000  H
  H133     1.0000 0.94830  0.98670  0.64590  Biso   1.000  H
  H134     1.0000 0.55170  0.48670  0.85410  Biso   1.000  H
  H135     1.0000 0.05170  0.51330  0.64590  Biso   1.000  H
  H136     1.0000 0.44830  0.48670  0.64590  Biso   1.000  H
  H137     1.0000 0.55170  0.98670  0.14590  Biso   1.000  H
  H138     1.0000 0.05170  0.48670  0.14590  Biso   1.000  H
  H139     1.0000 0.94830  0.01330  0.14590  Biso   1.000  H
  H140     1.0000 0.44830  0.98670  0.35410  Biso   1.000  H
  H141     1.0000 0.05170  0.01330  0.35410  Biso   1.000  H
  H142     1.0000 0.44830  0.51330  0.14590  Biso   1.000  H
  H143     1.0000 0.94830  0.48670  0.35410  Biso   1.000  H
  H144     1.0000 0.55170  0.51330  0.35410  Biso   1.000  H
  C97      1.0000 0.43570  0.04709  0.89081  Biso   1.000  C
  C98      1.0000 0.93570  0.54709  0.89081  Biso   1.000  C
  C99      1.0000 0.06430  0.95291  0.89081  Biso   1.000  C
  C100     1.0000 0.56430  0.04709  0.60919  Biso   1.000  C
  C101     1.0000 0.93570  0.95291  0.60919  Biso   1.000  C
  C102     1.0000 0.56430  0.45291  0.89081  Biso   1.000  C
  C103     1.0000 0.06430  0.54709  0.60919  Biso   1.000  C
  C104     1.0000 0.43570  0.45291  0.60919  Biso   1.000  C
  C105     1.0000 0.56430  0.95291  0.10919  Biso   1.000  C
  C106     1.0000 0.06430  0.45291  0.10919  Biso   1.000  C
  C107     1.0000 0.93570  0.04709  0.10919  Biso   1.000  C
  C108     1.0000 0.43570  0.95291  0.39081  Biso   1.000  C
  C109     1.0000 0.06430  0.04709  0.39081  Biso   1.000  C
  C110     1.0000 0.43570  0.54709  0.10919  Biso   1.000  C
  C111     1.0000 0.93570  0.45291  0.39081  Biso   1.000  C
  C112     1.0000 0.56430  0.54709  0.39081  Biso   1.000  C
  C113     1.0000 0.38770  0.06976  0.88425  Biso   1.000  C
  C114     1.0000 0.88770  0.56976  0.88425  Biso   1.000  C
  C115     1.0000 0.11230  0.93024  0.88425  Biso   1.000  C
  C116     1.0000 0.61230  0.06976  0.61575  Biso   1.000  C
  C117     1.0000 0.88770  0.93024  0.61575  Biso   1.000  C
  C118     1.0000 0.61230  0.43024  0.88425  Biso   1.000  C
  C119     1.0000 0.11230  0.56976  0.61575  Biso   1.000  C
  C120     1.0000 0.38770  0.43024  0.61575  Biso   1.000  C
  C121     1.0000 0.61230  0.93024  0.11575  Biso   1.000  C
  C122     1.0000 0.11230  0.43024  0.11575  Biso   1.000  C
  C123     1.0000 0.88770  0.06976  0.11575  Biso   1.000  C
  C124     1.0000 0.38770  0.93024  0.38425  Biso   1.000  C
  C125     1.0000 0.11230  0.06976  0.38425  Biso   1.000  C
  C126     1.0000 0.38770  0.56976  0.11575  Biso   1.000  C
  C127     1.0000 0.88770  0.43024  0.38425  Biso   1.000  C
  C128     1.0000 0.61230  0.56976  0.38425  Biso   1.000  C
  C129     1.0000 0.36530  0.07859  0.92064  Biso   1.000  C
  C130     1.0000 0.86530  0.57859  0.92064  Biso   1.000  C
  C131     1.0000 0.13470  0.92141  0.92064  Biso   1.000  C
  C132     1.0000 0.63470  0.07859  0.57936  Biso   1.000  C
  C133     1.0000 0.86530  0.92141  0.57936  Biso   1.000  C
  C134     1.0000 0.63470  0.42141  0.92064  Biso   1.000  C
  C135     1.0000 0.13470  0.57859  0.57936  Biso   1.000  C
  C136     1.0000 0.36530  0.42141  0.57936  Biso   1.000  C
  C137     1.0000 0.63470  0.92141  0.07936  Biso   1.000  C
  C138     1.0000 0.13470  0.42141  0.07936  Biso   1.000  C
  C139     1.0000 0.86530  0.07859  0.07936  Biso   1.000  C
  C140     1.0000 0.36530  0.92141  0.42064  Biso   1.000  C
  C141     1.0000 0.13470  0.07859  0.42064  Biso   1.000  C
  C142     1.0000 0.36530  0.57859  0.07936  Biso   1.000  C
  C143     1.0000 0.86530  0.42141  0.42064  Biso   1.000  C
  C144     1.0000 0.63470  0.57859  0.42064  Biso   1.000  C
  C145     1.0000 0.31260  0.10128  0.93204  Biso   1.000  C
  C146     1.0000 0.81260  0.60128  0.93204  Biso   1.000  C
  C147     1.0000 0.18740  0.89872  0.93204  Biso   1.000  C
  C148     1.0000 0.68740  0.10128  0.56796  Biso   1.000  C
  C149     1.0000 0.81260  0.89872  0.56796  Biso   1.000  C
  C150     1.0000 0.68740  0.39872  0.93204  Biso   1.000  C
  C151     1.0000 0.18740  0.60128  0.56796  Biso   1.000  C
  C152     1.0000 0.31260  0.39872  0.56796  Biso   1.000  C
  C153     1.0000 0.68740  0.89872  0.06796  Biso   1.000  C
  C154     1.0000 0.18740  0.39872  0.06796  Biso   1.000  C
  C155     1.0000 0.81260  0.10128  0.06796  Biso   1.000  C
  C156     1.0000 0.31260  0.89872  0.43204  Biso   1.000  C
  C157     1.0000 0.18740  0.10128  0.43204  Biso   1.000  C
  C158     1.0000 0.31260  0.60128  0.06796  Biso   1.000  C
  C159     1.0000 0.81260  0.39872  0.43204  Biso   1.000  C
  C160     1.0000 0.68740  0.60128  0.43204  Biso   1.000  C
  H145     1.0000 0.28160  0.09380  0.95250  Biso   1.000  H
  H146     1.0000 0.78160  0.59380  0.95250  Biso   1.000  H
  H147     1.0000 0.21840  0.90620  0.95250  Biso   1.000  H
  H148     1.0000 0.71840  0.09380  0.54750  Biso   1.000  H
  H149     1.0000 0.78160  0.90620  0.54750  Biso   1.000  H
  H150     1.0000 0.71840  0.40620  0.95250  Biso   1.000  H
  H151     1.0000 0.21840  0.59380  0.54750  Biso   1.000  H
  H152     1.0000 0.28160  0.40620  0.54750  Biso   1.000  H
  H153     1.0000 0.71840  0.90620  0.04750  Biso   1.000  H
  H154     1.0000 0.21840  0.40620  0.04750  Biso   1.000  H
  H155     1.0000 0.78160  0.09380  0.04750  Biso   1.000  H
  H156     1.0000 0.28160  0.90620  0.45250  Biso   1.000  H
  H157     1.0000 0.21840  0.09380  0.45250  Biso   1.000  H
  H158     1.0000 0.28160  0.59380  0.04750  Biso   1.000  H
  H159     1.0000 0.78160  0.40620  0.45250  Biso   1.000  H
  H160     1.0000 0.71840  0.59380  0.45250  Biso   1.000  H
  H161     1.0000 0.28300  0.10660  0.90990  Biso   1.000  H
  H162     1.0000 0.78300  0.60660  0.90990  Biso   1.000  H
  H163     1.0000 0.21700  0.89340  0.90990  Biso   1.000  H
  H164     1.0000 0.71700  0.10660  0.59010  Biso   1.000  H
  H165     1.0000 0.78300  0.89340  0.59010  Biso   1.000  H
  H166     1.0000 0.71700  0.39340  0.90990  Biso   1.000  H
  H167     1.0000 0.21700  0.60660  0.59010  Biso   1.000  H
  H168     1.0000 0.28300  0.39340  0.59010  Biso   1.000  H
  H169     1.0000 0.71700  0.89340  0.09010  Biso   1.000  H
  H170     1.0000 0.21700  0.39340  0.09010  Biso   1.000  H
  H171     1.0000 0.78300  0.10660  0.09010  Biso   1.000  H
  H172     1.0000 0.28300  0.89340  0.40990  Biso   1.000  H
  H173     1.0000 0.21700  0.10660  0.40990  Biso   1.000  H
  H174     1.0000 0.28300  0.60660  0.09010  Biso   1.000  H
  H175     1.0000 0.78300  0.39340  0.40990  Biso   1.000  H
  H176     1.0000 0.71700  0.60660  0.40990  Biso   1.000  H
  H177     1.0000 0.33870  0.11840  0.94120  Biso   1.000  H
  H178     1.0000 0.83870  0.61840  0.94120  Biso   1.000  H
  H179     1.0000 0.16130  0.88160  0.94120  Biso   1.000  H
  H180     1.0000 0.66130  0.11840  0.55880  Biso   1.000  H
  H181     1.0000 0.83870  0.88160  0.55880  Biso   1.000  H
  H182     1.0000 0.66130  0.38160  0.94120  Biso   1.000  H
  H183     1.0000 0.16130  0.61840  0.55880  Biso   1.000  H
  H184     1.0000 0.33870  0.38160  0.55880  Biso   1.000  H
  H185     1.0000 0.66130  0.88160  0.05880  Biso   1.000  H
  H186     1.0000 0.16130  0.38160  0.05880  Biso   1.000  H
  H187     1.0000 0.83870  0.11840  0.05880  Biso   1.000  H
  H188     1.0000 0.33870  0.88160  0.44120  Biso   1.000  H
  H189     1.0000 0.16130  0.11840  0.44120  Biso   1.000  H
  H190     1.0000 0.33870  0.61840  0.05880  Biso   1.000  H
  H191     1.0000 0.83870  0.38160  0.44120  Biso   1.000  H
  H192     1.0000 0.66130  0.61840  0.44120  Biso   1.000  H
  C161     1.0000 0.40730  0.13702  0.86101  Biso   1.000  C
  C162     1.0000 0.90730  0.63702  0.86101  Biso   1.000  C
  C163     1.0000 0.09270  0.86298  0.86101  Biso   1.000  C
  C164     1.0000 0.59270  0.13702  0.63899  Biso   1.000  C
  C165     1.0000 0.90730  0.86298  0.63899  Biso   1.000  C
  C166     1.0000 0.59270  0.36298  0.86101  Biso   1.000  C
  C167     1.0000 0.09270  0.63702  0.63899  Biso   1.000  C
  C168     1.0000 0.40730  0.36298  0.63899  Biso   1.000  C
  C169     1.0000 0.59270  0.86298  0.13899  Biso   1.000  C
  C170     1.0000 0.09270  0.36298  0.13899  Biso   1.000  C
  C171     1.0000 0.90730  0.13702  0.13899  Biso   1.000  C
  C172     1.0000 0.40730  0.86298  0.36101  Biso   1.000  C
  C173     1.0000 0.09270  0.13702  0.36101  Biso   1.000  C
  C174     1.0000 0.40730  0.63702  0.13899  Biso   1.000  C
  C175     1.0000 0.90730  0.36298  0.36101  Biso   1.000  C
  C176     1.0000 0.59270  0.63702  0.36101  Biso   1.000  C
  H193     1.0000 0.44070  0.14830  0.84510  Biso   1.000  H
  H194     1.0000 0.94070  0.64830  0.84510  Biso   1.000  H
  H195     1.0000 0.05930  0.85170  0.84510  Biso   1.000  H
  H196     1.0000 0.55930  0.14830  0.65490  Biso   1.000  H
  H197     1.0000 0.94070  0.85170  0.65490  Biso   1.000  H
  H198     1.0000 0.55930  0.35170  0.84510  Biso   1.000  H
  H199     1.0000 0.05930  0.64830  0.65490  Biso   1.000  H
  H200     1.0000 0.44070  0.35170  0.65490  Biso   1.000  H
  H201     1.0000 0.55930  0.85170  0.15490  Biso   1.000  H
  H202     1.0000 0.05930  0.35170  0.15490  Biso   1.000  H
  H203     1.0000 0.94070  0.14830  0.15490  Biso   1.000  H
  H204     1.0000 0.44070  0.85170  0.34510  Biso   1.000  H
  H205     1.0000 0.05930  0.14830  0.34510  Biso   1.000  H
  H206     1.0000 0.44070  0.64830  0.15490  Biso   1.000  H
  H207     1.0000 0.94070  0.35170  0.34510  Biso   1.000  H
  H208     1.0000 0.55930  0.64830  0.34510  Biso   1.000  H
  H209     1.0000 0.43320  0.12930  0.88320  Biso   1.000  H
  H210     1.0000 0.93320  0.62930  0.88320  Biso   1.000  H
  H211     1.0000 0.06680  0.87070  0.88320  Biso   1.000  H
  H212     1.0000 0.56680  0.12930  0.61680  Biso   1.000  H
  H213     1.0000 0.93320  0.87070  0.61680  Biso   1.000  H
  H214     1.0000 0.56680  0.37070  0.88320  Biso   1.000  H
  H215     1.0000 0.06680  0.62930  0.61680  Biso   1.000  H
  H216     1.0000 0.43320  0.37070  0.61680  Biso   1.000  H
  H217     1.0000 0.56680  0.87070  0.11680  Biso   1.000  H
  H218     1.0000 0.06680  0.37070  0.11680  Biso   1.000  H
  H219     1.0000 0.93320  0.12930  0.11680  Biso   1.000  H
  H220     1.0000 0.43320  0.87070  0.38320  Biso   1.000  H
  H221     1.0000 0.06680  0.12930  0.38320  Biso   1.000  H
  H222     1.0000 0.43320  0.62930  0.11680  Biso   1.000  H
  H223     1.0000 0.93320  0.37070  0.38320  Biso   1.000  H
  H224     1.0000 0.56680  0.62930  0.38320  Biso   1.000  H
  H225     1.0000 0.36790  0.14950  0.86980  Biso   1.000  H
  H226     1.0000 0.86790  0.64950  0.86980  Biso   1.000  H
  H227     1.0000 0.13210  0.85050  0.86980  Biso   1.000  H
  H228     1.0000 0.63210  0.14950  0.63020  Biso   1.000  H
  H229     1.0000 0.86790  0.85050  0.63020  Biso   1.000  H
  H230     1.0000 0.63210  0.35050  0.86980  Biso   1.000  H
  H231     1.0000 0.13210  0.64950  0.63020  Biso   1.000  H
  H232     1.0000 0.36790  0.35050  0.63020  Biso   1.000  H
  H233     1.0000 0.63210  0.85050  0.13020  Biso   1.000  H
  H234     1.0000 0.13210  0.35050  0.13020  Biso   1.000  H
  H235     1.0000 0.86790  0.14950  0.13020  Biso   1.000  H
  H236     1.0000 0.36790  0.85050  0.36980  Biso   1.000  H
  H237     1.0000 0.13210  0.14950  0.36980  Biso   1.000  H
  H238     1.0000 0.36790  0.64950  0.13020  Biso   1.000  H
  H239     1.0000 0.86790  0.35050  0.36980  Biso   1.000  H
  H240     1.0000 0.63210  0.64950  0.36980  Biso   1.000  H
  C177     1.0000 0.37730  0.11268  0.83808  Biso   1.000  C
  C178     1.0000 0.87730  0.61268  0.83808  Biso   1.000  C
  C179     1.0000 0.12270  0.88732  0.83808  Biso   1.000  C
  C180     1.0000 0.62270  0.11268  0.66192  Biso   1.000  C
  C181     1.0000 0.87730  0.88732  0.66192  Biso   1.000  C
  C182     1.0000 0.62270  0.38732  0.83808  Biso   1.000  C
  C183     1.0000 0.12270  0.61268  0.66192  Biso   1.000  C
  C184     1.0000 0.37730  0.38732  0.66192  Biso   1.000  C
  C185     1.0000 0.62270  0.88732  0.16192  Biso   1.000  C
  C186     1.0000 0.12270  0.38732  0.16192  Biso   1.000  C
  C187     1.0000 0.87730  0.11268  0.16192  Biso   1.000  C
  C188     1.0000 0.37730  0.88732  0.33808  Biso   1.000  C
  C189     1.0000 0.12270  0.11268  0.33808  Biso   1.000  C
  C190     1.0000 0.37730  0.61268  0.16192  Biso   1.000  C
  C191     1.0000 0.87730  0.38732  0.33808  Biso   1.000  C
  C192     1.0000 0.62270  0.61268  0.33808  Biso   1.000  C
  C193     1.0000 0.36930  0.08355  0.84752  Biso   1.000  C
  C194     1.0000 0.86930  0.58355  0.84752  Biso   1.000  C
  C195     1.0000 0.13070  0.91645  0.84752  Biso   1.000  C
  C196     1.0000 0.63070  0.08355  0.65248  Biso   1.000  C
  C197     1.0000 0.86930  0.91645  0.65248  Biso   1.000  C
  C198     1.0000 0.63070  0.41645  0.84752  Biso   1.000  C
  C199     1.0000 0.13070  0.58355  0.65248  Biso   1.000  C
  C200     1.0000 0.36930  0.41645  0.65248  Biso   1.000  C
  C201     1.0000 0.63070  0.91645  0.15248  Biso   1.000  C
  C202     1.0000 0.13070  0.41645  0.15248  Biso   1.000  C
  C203     1.0000 0.86930  0.08355  0.15248  Biso   1.000  C
  C204     1.0000 0.36930  0.91645  0.34752  Biso   1.000  C
  C205     1.0000 0.13070  0.08355  0.34752  Biso   1.000  C
  C206     1.0000 0.36930  0.58355  0.15248  Biso   1.000  C
  C207     1.0000 0.86930  0.41645  0.34752  Biso   1.000  C
  C208     1.0000 0.63070  0.58355  0.34752  Biso   1.000  C
  C209     1.0000 0.33910  0.07076  0.81475  Biso   1.000  C
  C210     1.0000 0.83910  0.57076  0.81475  Biso   1.000  C
  C211     1.0000 0.16090  0.92924  0.81475  Biso   1.000  C
  C212     1.0000 0.66090  0.07076  0.68525  Biso   1.000  C
  C213     1.0000 0.83910  0.92924  0.68525  Biso   1.000  C
  C214     1.0000 0.66090  0.42924  0.81475  Biso   1.000  C
  C215     1.0000 0.16090  0.57076  0.68525  Biso   1.000  C
  C216     1.0000 0.33910  0.42924  0.68525  Biso   1.000  C
  C217     1.0000 0.66090  0.92924  0.18525  Biso   1.000  C
  C218     1.0000 0.16090  0.42924  0.18525  Biso   1.000  C
  C219     1.0000 0.83910  0.07076  0.18525  Biso   1.000  C
  C220     1.0000 0.33910  0.92924  0.31475  Biso   1.000  C
  C221     1.0000 0.16090  0.07076  0.31475  Biso   1.000  C
  C222     1.0000 0.33910  0.57076  0.18525  Biso   1.000  C
  C223     1.0000 0.83910  0.42924  0.31475  Biso   1.000  C
  C224     1.0000 0.66090  0.57076  0.31475  Biso   1.000  C
  C225     1.0000 0.32040  0.04003  0.80773  Biso   1.000  C
  C226     1.0000 0.82040  0.54003  0.80773  Biso   1.000  C
  C227     1.0000 0.17960  0.95997  0.80773  Biso   1.000  C
  C228     1.0000 0.67960  0.04003  0.69227  Biso   1.000  C
  C229     1.0000 0.82040  0.95997  0.69227  Biso   1.000  C
  C230     1.0000 0.67960  0.45997  0.80773  Biso   1.000  C
  C231     1.0000 0.17960  0.54003  0.69227  Biso   1.000  C
  C232     1.0000 0.32040  0.45997  0.69227  Biso   1.000  C
  C233     1.0000 0.67960  0.95997  0.19227  Biso   1.000  C
  C234     1.0000 0.17960  0.45997  0.19227  Biso   1.000  C
  C235     1.0000 0.82040  0.04003  0.19227  Biso   1.000  C
  C236     1.0000 0.32040  0.95997  0.30773  Biso   1.000  C
  C237     1.0000 0.17960  0.04003  0.30773  Biso   1.000  C
  C238     1.0000 0.32040  0.54003  0.19227  Biso   1.000  C
  C239     1.0000 0.82040  0.45997  0.30773  Biso   1.000  C
  C240     1.0000 0.67960  0.54003  0.30773  Biso   1.000  C
  H241     1.0000 0.28440  0.03880  0.78730  Biso   1.000  H
  H242     1.0000 0.78440  0.53880  0.78730  Biso   1.000  H
  H243     1.0000 0.21560  0.96120  0.78730  Biso   1.000  H
  H244     1.0000 0.71560  0.03880  0.71270  Biso   1.000  H
  H245     1.0000 0.78440  0.96120  0.71270  Biso   1.000  H
  H246     1.0000 0.71560  0.46120  0.78730  Biso   1.000  H
  H247     1.0000 0.21560  0.53880  0.71270  Biso   1.000  H
  H248     1.0000 0.28440  0.46120  0.71270  Biso   1.000  H
  H249     1.0000 0.71560  0.96120  0.21270  Biso   1.000  H
  H250     1.0000 0.21560  0.46120  0.21270  Biso   1.000  H
  H251     1.0000 0.78440  0.03880  0.21270  Biso   1.000  H
  H252     1.0000 0.28440  0.96120  0.28730  Biso   1.000  H
  H253     1.0000 0.21560  0.03880  0.28730  Biso   1.000  H
  H254     1.0000 0.28440  0.53880  0.21270  Biso   1.000  H
  H255     1.0000 0.78440  0.46120  0.28730  Biso   1.000  H
  H256     1.0000 0.71560  0.53880  0.28730  Biso   1.000  H
  H257     1.0000 0.30070  0.03150  0.83120  Biso   1.000  H
  H258     1.0000 0.80070  0.53150  0.83120  Biso   1.000  H
  H259     1.0000 0.19930  0.96850  0.83120  Biso   1.000  H
  H260     1.0000 0.69930  0.03150  0.66880  Biso   1.000  H
  H261     1.0000 0.80070  0.96850  0.66880  Biso   1.000  H
  H262     1.0000 0.69930  0.46850  0.83120  Biso   1.000  H
  H263     1.0000 0.19930  0.53150  0.66880  Biso   1.000  H
  H264     1.0000 0.30070  0.46850  0.66880  Biso   1.000  H
  H265     1.0000 0.69930  0.96850  0.16880  Biso   1.000  H
  H266     1.0000 0.19930  0.46850  0.16880  Biso   1.000  H
  H267     1.0000 0.80070  0.03150  0.16880  Biso   1.000  H
  H268     1.0000 0.30070  0.96850  0.33120  Biso   1.000  H
  H269     1.0000 0.19930  0.03150  0.33120  Biso   1.000  H
  H270     1.0000 0.30070  0.53150  0.16880  Biso   1.000  H
  H271     1.0000 0.80070  0.46850  0.33120  Biso   1.000  H
  H272     1.0000 0.69930  0.53150  0.33120  Biso   1.000  H
  H273     1.0000 0.36390  0.02940  0.80010  Biso   1.000  H
  H274     1.0000 0.86390  0.52940  0.80010  Biso   1.000  H
  H275     1.0000 0.13610  0.97060  0.80010  Biso   1.000  H
  H276     1.0000 0.63610  0.02940  0.69990  Biso   1.000  H
  H277     1.0000 0.86390  0.97060  0.69990  Biso   1.000  H
  H278     1.0000 0.63610  0.47060  0.80010  Biso   1.000  H
  H279     1.0000 0.13610  0.52940  0.69990  Biso   1.000  H
  H280     1.0000 0.36390  0.47060  0.69990  Biso   1.000  H
  H281     1.0000 0.63610  0.97060  0.19990  Biso   1.000  H
  H282     1.0000 0.13610  0.47060  0.19990  Biso   1.000  H
  H283     1.0000 0.86390  0.02940  0.19990  Biso   1.000  H
  H284     1.0000 0.36390  0.97060  0.30010  Biso   1.000  H
  H285     1.0000 0.13610  0.02940  0.30010  Biso   1.000  H
  H286     1.0000 0.36390  0.52940  0.19990  Biso   1.000  H
  H287     1.0000 0.86390  0.47060  0.30010  Biso   1.000  H
  H288     1.0000 0.63610  0.52940  0.30010  Biso   1.000  H
  C241     1.0000 0.11390  0.22396  0.28973  Biso   1.000  C
  C242     1.0000 0.61390  0.72396  0.28973  Biso   1.000  C
  C243     1.0000 0.38610  0.77604  0.28973  Biso   1.000  C
  C244     1.0000 0.88610  0.22396  0.21027  Biso   1.000  C
  C245     1.0000 0.61390  0.77604  0.21027  Biso   1.000  C
  C246     1.0000 0.88610  0.27604  0.28973  Biso   1.000  C
  C247     1.0000 0.38610  0.72396  0.21027  Biso   1.000  C
  C248     1.0000 0.11390  0.27604  0.21027  Biso   1.000  C
  C249     1.0000 0.88610  0.77604  0.71027  Biso   1.000  C
  C250     1.0000 0.38610  0.27604  0.71027  Biso   1.000  C
  C251     1.0000 0.61390  0.22396  0.71027  Biso   1.000  C
  C252     1.0000 0.11390  0.77604  0.78973  Biso   1.000  C
  C253     1.0000 0.38610  0.22396  0.78973  Biso   1.000  C
  C254     1.0000 0.11390  0.72396  0.71027  Biso   1.000  C
  C255     1.0000 0.61390  0.27604  0.78973  Biso   1.000  C
  C256     1.0000 0.88610  0.72396  0.78973  Biso   1.000  C
  H289     1.0000 0.09740  0.20730  0.30470  Biso   1.000  H
  H290     1.0000 0.59740  0.70730  0.30470  Biso   1.000  H
  H291     1.0000 0.40260  0.79270  0.30470  Biso   1.000  H
  H292     1.0000 0.90260  0.20730  0.19530  Biso   1.000  H
  H293     1.0000 0.59740  0.79270  0.19530  Biso   1.000  H
  H294     1.0000 0.90260  0.29270  0.30470  Biso   1.000  H
  H295     1.0000 0.40260  0.70730  0.19530  Biso   1.000  H
  H296     1.0000 0.09740  0.29270  0.19530  Biso   1.000  H
  H297     1.0000 0.90260  0.79270  0.69530  Biso   1.000  H
  H298     1.0000 0.40260  0.29270  0.69530  Biso   1.000  H
  H299     1.0000 0.59740  0.20730  0.69530  Biso   1.000  H
  H300     1.0000 0.09740  0.79270  0.80470  Biso   1.000  H
  H301     1.0000 0.40260  0.20730  0.80470  Biso   1.000  H
  H302     1.0000 0.09740  0.70730  0.69530  Biso   1.000  H
  H303     1.0000 0.59740  0.29270  0.80470  Biso   1.000  H
  H304     1.0000 0.90260  0.70730  0.80470  Biso   1.000  H
  H305     1.0000 0.12340  0.24030  0.30690  Biso   1.000  H
  H306     1.0000 0.62340  0.74030  0.30690  Biso   1.000  H
  H307     1.0000 0.37660  0.75970  0.30690  Biso   1.000  H
  H308     1.0000 0.87660  0.24030  0.19310  Biso   1.000  H
  H309     1.0000 0.62340  0.75970  0.19310  Biso   1.000  H
  H310     1.0000 0.87660  0.25970  0.30690  Biso   1.000  H
  H311     1.0000 0.37660  0.74030  0.19310  Biso   1.000  H
  H312     1.0000 0.12340  0.25970  0.19310  Biso   1.000  H
  H313     1.0000 0.87660  0.75970  0.69310  Biso   1.000  H
  H314     1.0000 0.37660  0.25970  0.69310  Biso   1.000  H
  H315     1.0000 0.62340  0.24030  0.69310  Biso   1.000  H
  H316     1.0000 0.12340  0.75970  0.80690  Biso   1.000  H
  H317     1.0000 0.37660  0.24030  0.80690  Biso   1.000  H
  H318     1.0000 0.12340  0.74030  0.69310  Biso   1.000  H
  H319     1.0000 0.62340  0.25970  0.80690  Biso   1.000  H
  H320     1.0000 0.87660  0.74030  0.80690  Biso   1.000  H
  H321     1.0000 0.07650  0.22940  0.27120  Biso   1.000  H
  H322     1.0000 0.57650  0.72940  0.27120  Biso   1.000  H
  H323     1.0000 0.42350  0.77060  0.27120  Biso   1.000  H
  H324     1.0000 0.92350  0.22940  0.22880  Biso   1.000  H
  H325     1.0000 0.57650  0.77060  0.22880  Biso   1.000  H
  H326     1.0000 0.92350  0.27060  0.27120  Biso   1.000  H
  H327     1.0000 0.42350  0.72940  0.22880  Biso   1.000  H
  H328     1.0000 0.07650  0.27060  0.22880  Biso   1.000  H
  H329     1.0000 0.92350  0.77060  0.72880  Biso   1.000  H
  H330     1.0000 0.42350  0.27060  0.72880  Biso   1.000  H
  H331     1.0000 0.57650  0.22940  0.72880  Biso   1.000  H
  H332     1.0000 0.07650  0.77060  0.77120  Biso   1.000  H
  H333     1.0000 0.42350  0.22940  0.77120  Biso   1.000  H
  H334     1.0000 0.07650  0.72940  0.72880  Biso   1.000  H
  H335     1.0000 0.57650  0.27060  0.77120  Biso   1.000  H
  H336     1.0000 0.92350  0.72940  0.77120  Biso   1.000  H
  C257     1.0000 0.18160  0.21617  0.26883  Biso   1.000  C
  C258     1.0000 0.68160  0.71617  0.26883  Biso   1.000  C
  C259     1.0000 0.31840  0.78383  0.26883  Biso   1.000  C
  C260     1.0000 0.81840  0.21617  0.23117  Biso   1.000  C
  C261     1.0000 0.68160  0.78383  0.23117  Biso   1.000  C
  C262     1.0000 0.81840  0.28383  0.26883  Biso   1.000  C
  C263     1.0000 0.31840  0.71617  0.23117  Biso   1.000  C
  C264     1.0000 0.18160  0.28383  0.23117  Biso   1.000  C
  C265     1.0000 0.81840  0.78383  0.73117  Biso   1.000  C
  C266     1.0000 0.31840  0.28383  0.73117  Biso   1.000  C
  C267     1.0000 0.68160  0.21617  0.73117  Biso   1.000  C
  C268     1.0000 0.18160  0.78383  0.76883  Biso   1.000  C
  C269     1.0000 0.31840  0.21617  0.76883  Biso   1.000  C
  C270     1.0000 0.18160  0.71617  0.73117  Biso   1.000  C
  C271     1.0000 0.68160  0.28383  0.76883  Biso   1.000  C
  C272     1.0000 0.81840  0.71617  0.76883  Biso   1.000  C
  C273     1.0000 0.23250  0.23415  0.25143  Biso   1.000  C
  C274     1.0000 0.73250  0.73415  0.25143  Biso   1.000  C
  C275     1.0000 0.26750  0.76585  0.25143  Biso   1.000  C
  C276     1.0000 0.76750  0.23415  0.24857  Biso   1.000  C
  C277     1.0000 0.73250  0.76585  0.24857  Biso   1.000  C
  C278     1.0000 0.76750  0.26585  0.25143  Biso   1.000  C
  C279     1.0000 0.26750  0.73415  0.24857  Biso   1.000  C
  C280     1.0000 0.23250  0.26585  0.24857  Biso   1.000  C
  C281     1.0000 0.76750  0.76585  0.74857  Biso   1.000  C
  C282     1.0000 0.26750  0.26585  0.74857  Biso   1.000  C
  C283     1.0000 0.73250  0.23415  0.74857  Biso   1.000  C
  C284     1.0000 0.23250  0.76585  0.75143  Biso   1.000  C
  C285     1.0000 0.26750  0.23415  0.75143  Biso   1.000  C
  C286     1.0000 0.23250  0.73415  0.74857  Biso   1.000  C
  C287     1.0000 0.73250  0.26585  0.75143  Biso   1.000  C
  C288     1.0000 0.76750  0.73415  0.75143  Biso   1.000  C
  C289     1.0000 0.28520  0.21506  0.23775  Biso   1.000  C
  C290     1.0000 0.78520  0.71506  0.23775  Biso   1.000  C
  C291     1.0000 0.21480  0.78494  0.23775  Biso   1.000  C
  C292     1.0000 0.71480  0.21506  0.26225  Biso   1.000  C
  C293     1.0000 0.78520  0.78494  0.26225  Biso   1.000  C
  C294     1.0000 0.71480  0.28494  0.23775  Biso   1.000  C
  C295     1.0000 0.21480  0.71506  0.26225  Biso   1.000  C
  C296     1.0000 0.28520  0.28494  0.26225  Biso   1.000  C
  C297     1.0000 0.71480  0.78494  0.76225  Biso   1.000  C
  C298     1.0000 0.21480  0.28494  0.76225  Biso   1.000  C
  C299     1.0000 0.78520  0.21506  0.76225  Biso   1.000  C
  C300     1.0000 0.28520  0.78494  0.73775  Biso   1.000  C
  C301     1.0000 0.21480  0.21506  0.73775  Biso   1.000  C
  C302     1.0000 0.28520  0.71506  0.76225  Biso   1.000  C
  C303     1.0000 0.78520  0.28494  0.73775  Biso   1.000  C
  C304     1.0000 0.71480  0.71506  0.73775  Biso   1.000  C
  C305     1.0000 0.35360  0.22183  0.21697  Biso   1.000  C
  C306     1.0000 0.85360  0.72183  0.21697  Biso   1.000  C
  C307     1.0000 0.14640  0.77817  0.21697  Biso   1.000  C
  C308     1.0000 0.64640  0.22183  0.28303  Biso   1.000  C
  C309     1.0000 0.85360  0.77817  0.28303  Biso   1.000  C
  C310     1.0000 0.64640  0.27817  0.21697  Biso   1.000  C
  C311     1.0000 0.14640  0.72183  0.28303  Biso   1.000  C
  C312     1.0000 0.35360  0.27817  0.28303  Biso   1.000  C
  C313     1.0000 0.64640  0.77817  0.78303  Biso   1.000  C
  C314     1.0000 0.14640  0.27817  0.78303  Biso   1.000  C
  C315     1.0000 0.85360  0.22183  0.78303  Biso   1.000  C
  C316     1.0000 0.35360  0.77817  0.71697  Biso   1.000  C
  C317     1.0000 0.14640  0.22183  0.71697  Biso   1.000  C
  C318     1.0000 0.35360  0.72183  0.78303  Biso   1.000  C
  C319     1.0000 0.85360  0.27817  0.71697  Biso   1.000  C
  C320     1.0000 0.64640  0.72183  0.71697  Biso   1.000  C
  H337     1.0000 0.35860  0.20880  0.19500  Biso   1.000  H
  H338     1.0000 0.85860  0.70880  0.19500  Biso   1.000  H
  H339     1.0000 0.14140  0.79120  0.19500  Biso   1.000  H
  H340     1.0000 0.64140  0.20880  0.30500  Biso   1.000  H
  H341     1.0000 0.85860  0.79120  0.30500  Biso   1.000  H
  H342     1.0000 0.64140  0.29120  0.19500  Biso   1.000  H
  H343     1.0000 0.14140  0.70880  0.30500  Biso   1.000  H
  H344     1.0000 0.35860  0.29120  0.30500  Biso   1.000  H
  H345     1.0000 0.64140  0.79120  0.80500  Biso   1.000  H
  H346     1.0000 0.14140  0.29120  0.80500  Biso   1.000  H
  H347     1.0000 0.85860  0.20880  0.80500  Biso   1.000  H
  H348     1.0000 0.35860  0.79120  0.69500  Biso   1.000  H
  H349     1.0000 0.14140  0.20880  0.69500  Biso   1.000  H
  H350     1.0000 0.35860  0.70880  0.80500  Biso   1.000  H
  H351     1.0000 0.85860  0.29120  0.69500  Biso   1.000  H
  H352     1.0000 0.64140  0.70880  0.69500  Biso   1.000  H
  H353     1.0000 0.35240  0.24190  0.20810  Biso   1.000  H
  H354     1.0000 0.85240  0.74190  0.20810  Biso   1.000  H
  H355     1.0000 0.14760  0.75810  0.20810  Biso   1.000  H
  H356     1.0000 0.64760  0.24190  0.29190  Biso   1.000  H
  H357     1.0000 0.85240  0.75810  0.29190  Biso   1.000  H
  H358     1.0000 0.64760  0.25810  0.20810  Biso   1.000  H
  H359     1.0000 0.14760  0.74190  0.29190  Biso   1.000  H
  H360     1.0000 0.35240  0.25810  0.29190  Biso   1.000  H
  H361     1.0000 0.64760  0.75810  0.79190  Biso   1.000  H
  H362     1.0000 0.14760  0.25810  0.79190  Biso   1.000  H
  H363     1.0000 0.85240  0.24190  0.79190  Biso   1.000  H
  H364     1.0000 0.35240  0.75810  0.70810  Biso   1.000  H
  H365     1.0000 0.14760  0.24190  0.70810  Biso   1.000  H
  H366     1.0000 0.35240  0.74190  0.79190  Biso   1.000  H
  H367     1.0000 0.85240  0.25810  0.70810  Biso   1.000  H
  H368     1.0000 0.64760  0.74190  0.70810  Biso   1.000  H
  H369     1.0000 0.39460  0.21920  0.23430  Biso   1.000  H
  H370     1.0000 0.89460  0.71920  0.23430  Biso   1.000  H
  H371     1.0000 0.10540  0.78080  0.23430  Biso   1.000  H
  H372     1.0000 0.60540  0.21920  0.26570  Biso   1.000  H
  H373     1.0000 0.89460  0.78080  0.26570  Biso   1.000  H
  H374     1.0000 0.60540  0.28080  0.23430  Biso   1.000  H
  H375     1.0000 0.10540  0.71920  0.26570  Biso   1.000  H
  H376     1.0000 0.39460  0.28080  0.26570  Biso   1.000  H
  H377     1.0000 0.60540  0.78080  0.76570  Biso   1.000  H
  H378     1.0000 0.10540  0.28080  0.76570  Biso   1.000  H
  H379     1.0000 0.89460  0.21920  0.76570  Biso   1.000  H
  H380     1.0000 0.39460  0.78080  0.73430  Biso   1.000  H
  H381     1.0000 0.10540  0.21920  0.73430  Biso   1.000  H
  H382     1.0000 0.39460  0.71920  0.76570  Biso   1.000  H
  H383     1.0000 0.89460  0.28080  0.73430  Biso   1.000  H
  H384     1.0000 0.60540  0.71920  0.73430  Biso   1.000  H
  C321     1.0000 0.41720  0.14283  0.15578  Biso   1.000  C
  C322     1.0000 0.91720  0.64283  0.15578  Biso   1.000  C
  C323     1.0000 0.08280  0.85717  0.15578  Biso   1.000  C
  C324     1.0000 0.58280  0.14283  0.34422  Biso   1.000  C
  C325     1.0000 0.91720  0.85717  0.34422  Biso   1.000  C
  C326     1.0000 0.58280  0.35717  0.15578  Biso   1.000  C
  C327     1.0000 0.08280  0.64283  0.34422  Biso   1.000  C
  C328     1.0000 0.41720  0.35717  0.34422  Biso   1.000  C
  C329     1.0000 0.58280  0.85717  0.84422  Biso   1.000  C
  C330     1.0000 0.08280  0.35717  0.84422  Biso   1.000  C
  C331     1.0000 0.91720  0.14283  0.84422  Biso   1.000  C
  C332     1.0000 0.41720  0.85717  0.65578  Biso   1.000  C
  C333     1.0000 0.08280  0.14283  0.65578  Biso   1.000  C
  C334     1.0000 0.41720  0.64283  0.84422  Biso   1.000  C
  C335     1.0000 0.91720  0.35717  0.65578  Biso   1.000  C
  C336     1.0000 0.58280  0.64283  0.65578  Biso   1.000  C
  H385     1.0000 0.41250  0.15900  0.17380  Biso   1.000  H
  H386     1.0000 0.91250  0.65900  0.17380  Biso   1.000  H
  H387     1.0000 0.08750  0.84100  0.17380  Biso   1.000  H
  H388     1.0000 0.58750  0.15900  0.32620  Biso   1.000  H
  H389     1.0000 0.91250  0.84100  0.32620  Biso   1.000  H
  H390     1.0000 0.58750  0.34100  0.17380  Biso   1.000  H
  H391     1.0000 0.08750  0.65900  0.32620  Biso   1.000  H
  H392     1.0000 0.41250  0.34100  0.32620  Biso   1.000  H
  H393     1.0000 0.58750  0.84100  0.82620  Biso   1.000  H
  H394     1.0000 0.08750  0.34100  0.82620  Biso   1.000  H
  H395     1.0000 0.91250  0.15900  0.82620  Biso   1.000  H
  H396     1.0000 0.41250  0.84100  0.67380  Biso   1.000  H
  H397     1.0000 0.08750  0.15900  0.67380  Biso   1.000  H
  H398     1.0000 0.41250  0.65900  0.82620  Biso   1.000  H
  H399     1.0000 0.91250  0.34100  0.67380  Biso   1.000  H
  H400     1.0000 0.58750  0.65900  0.67380  Biso   1.000  H
  H401     1.0000 0.46700  0.13580  0.15590  Biso   1.000  H
  H402     1.0000 0.96700  0.63580  0.15590  Biso   1.000  H
  H403     1.0000 0.03300  0.86420  0.15590  Biso   1.000  H
  H404     1.0000 0.53300  0.13580  0.34410  Biso   1.000  H
  H405     1.0000 0.96700  0.86420  0.34410  Biso   1.000  H
  H406     1.0000 0.53300  0.36420  0.15590  Biso   1.000  H
  H407     1.0000 0.03300  0.63580  0.34410  Biso   1.000  H
  H408     1.0000 0.46700  0.36420  0.34410  Biso   1.000  H
  H409     1.0000 0.53300  0.86420  0.84410  Biso   1.000  H
  H410     1.0000 0.03300  0.36420  0.84410  Biso   1.000  H
  H411     1.0000 0.96700  0.13580  0.84410  Biso   1.000  H
  H412     1.0000 0.46700  0.86420  0.65590  Biso   1.000  H
  H413     1.0000 0.03300  0.13580  0.65590  Biso   1.000  H
  H414     1.0000 0.46700  0.63580  0.84410  Biso   1.000  H
  H415     1.0000 0.96700  0.36420  0.65590  Biso   1.000  H
  H416     1.0000 0.53300  0.63580  0.65590  Biso   1.000  H
  H417     1.0000 0.40440  0.14940  0.13000  Biso   1.000  H
  H418     1.0000 0.90440  0.64940  0.13000  Biso   1.000  H
  H419     1.0000 0.09560  0.85060  0.13000  Biso   1.000  H
  H420     1.0000 0.59560  0.14940  0.37000  Biso   1.000  H
  H421     1.0000 0.90440  0.85060  0.37000  Biso   1.000  H
  H422     1.0000 0.59560  0.35060  0.13000  Biso   1.000  H
  H423     1.0000 0.09560  0.64940  0.37000  Biso   1.000  H
  H424     1.0000 0.40440  0.35060  0.37000  Biso   1.000  H
  H425     1.0000 0.59560  0.85060  0.87000  Biso   1.000  H
  H426     1.0000 0.09560  0.35060  0.87000  Biso   1.000  H
  H427     1.0000 0.90440  0.14940  0.87000  Biso   1.000  H
  H428     1.0000 0.40440  0.85060  0.63000  Biso   1.000  H
  H429     1.0000 0.09560  0.14940  0.63000  Biso   1.000  H
  H430     1.0000 0.40440  0.64940  0.87000  Biso   1.000  H
  H431     1.0000 0.90440  0.35060  0.63000  Biso   1.000  H
  H432     1.0000 0.59560  0.64940  0.63000  Biso   1.000  H
  C337     1.0000 0.36790  0.11900  0.16745  Biso   1.000  C
  C338     1.0000 0.86790  0.61900  0.16745  Biso   1.000  C
  C339     1.0000 0.13210  0.88100  0.16745  Biso   1.000  C
  C340     1.0000 0.63210  0.11900  0.33255  Biso   1.000  C
  C341     1.0000 0.86790  0.88100  0.33255  Biso   1.000  C
  C342     1.0000 0.63210  0.38100  0.16745  Biso   1.000  C
  C343     1.0000 0.13210  0.61900  0.33255  Biso   1.000  C
  C344     1.0000 0.36790  0.38100  0.33255  Biso   1.000  C
  C345     1.0000 0.63210  0.88100  0.83255  Biso   1.000  C
  C346     1.0000 0.13210  0.38100  0.83255  Biso   1.000  C
  C347     1.0000 0.86790  0.11900  0.83255  Biso   1.000  C
  C348     1.0000 0.36790  0.88100  0.66745  Biso   1.000  C
  C349     1.0000 0.13210  0.11900  0.66745  Biso   1.000  C
  C350     1.0000 0.36790  0.61900  0.83255  Biso   1.000  C
  C351     1.0000 0.86790  0.38100  0.66745  Biso   1.000  C
  C352     1.0000 0.63210  0.61900  0.66745  Biso   1.000  C
  C353     1.0000 0.35670  0.09242  0.14951  Biso   1.000  C
  C354     1.0000 0.85670  0.59242  0.14951  Biso   1.000  C
  C355     1.0000 0.14330  0.90758  0.14951  Biso   1.000  C
  C356     1.0000 0.64330  0.09242  0.35049  Biso   1.000  C
  C357     1.0000 0.85670  0.90758  0.35049  Biso   1.000  C
  C358     1.0000 0.64330  0.40758  0.14951  Biso   1.000  C
  C359     1.0000 0.14330  0.59242  0.35049  Biso   1.000  C
  C360     1.0000 0.35670  0.40758  0.35049  Biso   1.000  C
  C361     1.0000 0.64330  0.90758  0.85049  Biso   1.000  C
  C362     1.0000 0.14330  0.40758  0.85049  Biso   1.000  C
  C363     1.0000 0.85670  0.09242  0.85049  Biso   1.000  C
  C364     1.0000 0.35670  0.90758  0.64951  Biso   1.000  C
  C365     1.0000 0.14330  0.09242  0.64951  Biso   1.000  C
  C366     1.0000 0.35670  0.59242  0.85049  Biso   1.000  C
  C367     1.0000 0.85670  0.40758  0.64951  Biso   1.000  C
  C368     1.0000 0.64330  0.59242  0.64951  Biso   1.000  C
  C369     1.0000 0.30660  0.07783  0.17246  Biso   1.000  C
  C370     1.0000 0.80660  0.57783  0.17246  Biso   1.000  C
  C371     1.0000 0.19340  0.92217  0.17246  Biso   1.000  C
  C372     1.0000 0.69340  0.07783  0.32754  Biso   1.000  C
  C373     1.0000 0.80660  0.92217  0.32754  Biso   1.000  C
  C374     1.0000 0.69340  0.42217  0.17246  Biso   1.000  C
  C375     1.0000 0.19340  0.57783  0.32754  Biso   1.000  C
  C376     1.0000 0.30660  0.42217  0.32754  Biso   1.000  C
  C377     1.0000 0.69340  0.92217  0.82754  Biso   1.000  C
  C378     1.0000 0.19340  0.42217  0.82754  Biso   1.000  C
  C379     1.0000 0.80660  0.07783  0.82754  Biso   1.000  C
  C380     1.0000 0.30660  0.92217  0.67246  Biso   1.000  C
  C381     1.0000 0.19340  0.07783  0.67246  Biso   1.000  C
  C382     1.0000 0.30660  0.57783  0.82754  Biso   1.000  C
  C383     1.0000 0.80660  0.42217  0.67246  Biso   1.000  C
  C384     1.0000 0.69340  0.57783  0.67246  Biso   1.000  C
  C385     1.0000 0.27570  0.04841  0.16719  Biso   1.000  C
  C386     1.0000 0.77570  0.54841  0.16719  Biso   1.000  C
  C387     1.0000 0.22430  0.95159  0.16719  Biso   1.000  C
  C388     1.0000 0.72430  0.04841  0.33281  Biso   1.000  C
  C389     1.0000 0.77570  0.95159  0.33281  Biso   1.000  C
  C390     1.0000 0.72430  0.45159  0.16719  Biso   1.000  C
  C391     1.0000 0.22430  0.54841  0.33281  Biso   1.000  C
  C392     1.0000 0.27570  0.45159  0.33281  Biso   1.000  C
  C393     1.0000 0.72430  0.95159  0.83281  Biso   1.000  C
  C394     1.0000 0.22430  0.45159  0.83281  Biso   1.000  C
  C395     1.0000 0.77570  0.04841  0.83281  Biso   1.000  C
  C396     1.0000 0.27570  0.95159  0.66719  Biso   1.000  C
  C397     1.0000 0.22430  0.04841  0.66719  Biso   1.000  C
  C398     1.0000 0.27570  0.54841  0.83281  Biso   1.000  C
  C399     1.0000 0.77570  0.45159  0.66719  Biso   1.000  C
  C400     1.0000 0.72430  0.54841  0.66719  Biso   1.000  C
  H433     1.0000 0.25420  0.04180  0.19130  Biso   1.000  H
  H434     1.0000 0.75420  0.54180  0.19130  Biso   1.000  H
  H435     1.0000 0.24580  0.95820  0.19130  Biso   1.000  H
  H436     1.0000 0.74580  0.04180  0.30870  Biso   1.000  H
  H437     1.0000 0.75420  0.95820  0.30870  Biso   1.000  H
  H438     1.0000 0.74580  0.45820  0.19130  Biso   1.000  H
  H439     1.0000 0.24580  0.54180  0.30870  Biso   1.000  H
  H440     1.0000 0.25420  0.45820  0.30870  Biso   1.000  H
  H441     1.0000 0.74580  0.95820  0.80870  Biso   1.000  H
  H442     1.0000 0.24580  0.45820  0.80870  Biso   1.000  H
  H443     1.0000 0.75420  0.04180  0.80870  Biso   1.000  H
  H444     1.0000 0.25420  0.95820  0.69130  Biso   1.000  H
  H445     1.0000 0.24580  0.04180  0.69130  Biso   1.000  H
  H446     1.0000 0.25420  0.54180  0.80870  Biso   1.000  H
  H447     1.0000 0.75420  0.45820  0.69130  Biso   1.000  H
  H448     1.0000 0.74580  0.54180  0.69130  Biso   1.000  H
  H449     1.0000 0.23860  0.04900  0.14720  Biso   1.000  H
  H450     1.0000 0.73860  0.54900  0.14720  Biso   1.000  H
  H451     1.0000 0.26140  0.95100  0.14720  Biso   1.000  H
  H452     1.0000 0.76140  0.04900  0.35280  Biso   1.000  H
  H453     1.0000 0.73860  0.95100  0.35280  Biso   1.000  H
  H454     1.0000 0.76140  0.45100  0.14720  Biso   1.000  H
  H455     1.0000 0.26140  0.54900  0.35280  Biso   1.000  H
  H456     1.0000 0.23860  0.45100  0.35280  Biso   1.000  H
  H457     1.0000 0.76140  0.95100  0.85280  Biso   1.000  H
  H458     1.0000 0.26140  0.45100  0.85280  Biso   1.000  H
  H459     1.0000 0.73860  0.04900  0.85280  Biso   1.000  H
  H460     1.0000 0.23860  0.95100  0.64720  Biso   1.000  H
  H461     1.0000 0.26140  0.04900  0.64720  Biso   1.000  H
  H462     1.0000 0.23860  0.54900  0.85280  Biso   1.000  H
  H463     1.0000 0.73860  0.45100  0.64720  Biso   1.000  H
  H464     1.0000 0.76140  0.54900  0.64720  Biso   1.000  H
  H465     1.0000 0.31410  0.03500  0.15950  Biso   1.000  H
  H466     1.0000 0.81410  0.53500  0.15950  Biso   1.000  H
  H467     1.0000 0.18590  0.96500  0.15950  Biso   1.000  H
  H468     1.0000 0.68590  0.03500  0.34050  Biso   1.000  H
  H469     1.0000 0.81410  0.96500  0.34050  Biso   1.000  H
  H470     1.0000 0.68590  0.46500  0.15950  Biso   1.000  H
  H471     1.0000 0.18590  0.53500  0.34050  Biso   1.000  H
  H472     1.0000 0.31410  0.46500  0.34050  Biso   1.000  H
  H473     1.0000 0.68590  0.96500  0.84050  Biso   1.000  H
  H474     1.0000 0.18590  0.46500  0.84050  Biso   1.000  H
  H475     1.0000 0.81410  0.03500  0.84050  Biso   1.000  H
  H476     1.0000 0.31410  0.96500  0.65950  Biso   1.000  H
  H477     1.0000 0.18590  0.03500  0.65950  Biso   1.000  H
  H478     1.0000 0.31410  0.53500  0.84050  Biso   1.000  H
  H479     1.0000 0.81410  0.46500  0.65950  Biso   1.000  H
  H480     1.0000 0.68590  0.53500  0.65950  Biso   1.000  H
  C401     1.0000 0.50820  0.05903  0.13894  Biso   1.000  C
  C402     1.0000 0.00820  0.55903  0.13894  Biso   1.000  C
  C403     1.0000 0.99180  0.94097  0.13894  Biso   1.000  C
  C404     1.0000 0.49180  0.05903  0.36106  Biso   1.000  C
  C405     1.0000 0.00820  0.94097  0.36106  Biso   1.000  C
  C406     1.0000 0.49180  0.44097  0.13894  Biso   1.000  C
  C407     1.0000 0.99180  0.55903  0.36106  Biso   1.000  C
  C408     1.0000 0.50820  0.44097  0.36106  Biso   1.000  C
  C409     1.0000 0.49180  0.94097  0.86106  Biso   1.000  C
  C410     1.0000 0.99180  0.44097  0.86106  Biso   1.000  C
  C411     1.0000 0.00820  0.05903  0.86106  Biso   1.000  C
  C412     1.0000 0.50820  0.94097  0.63894  Biso   1.000  C
  C413     1.0000 0.99180  0.05903  0.63894  Biso   1.000  C
  C414     1.0000 0.50820  0.55903  0.86106  Biso   1.000  C
  C415     1.0000 0.00820  0.44097  0.63894  Biso   1.000  C
  C416     1.0000 0.49180  0.55903  0.63894  Biso   1.000  C
  H481     1.0000 0.54530  0.04670  0.12740  Biso   1.000  H
  H482     1.0000 0.04530  0.54670  0.12740  Biso   1.000  H
  H483     1.0000 0.95470  0.95330  0.12740  Biso   1.000  H
  H484     1.0000 0.45470  0.04670  0.37260  Biso   1.000  H
  H485     1.0000 0.04530  0.95330  0.37260  Biso   1.000  H
  H486     1.0000 0.45470  0.45330  0.12740  Biso   1.000  H
  H487     1.0000 0.95470  0.54670  0.37260  Biso   1.000  H
  H488     1.0000 0.54530  0.45330  0.37260  Biso   1.000  H
  H489     1.0000 0.45470  0.95330  0.87260  Biso   1.000  H
  H490     1.0000 0.95470  0.45330  0.87260  Biso   1.000  H
  H491     1.0000 0.04530  0.04670  0.87260  Biso   1.000  H
  H492     1.0000 0.54530  0.95330  0.62740  Biso   1.000  H
  H493     1.0000 0.95470  0.04670  0.62740  Biso   1.000  H
  H494     1.0000 0.54530  0.54670  0.87260  Biso   1.000  H
  H495     1.0000 0.04530  0.45330  0.62740  Biso   1.000  H
  H496     1.0000 0.45470  0.54670  0.62740  Biso   1.000  H
  H497     1.0000 0.53080  0.07630  0.14990  Biso   1.000  H
  H498     1.0000 0.03080  0.57630  0.14990  Biso   1.000  H
  H499     1.0000 0.96920  0.92370  0.14990  Biso   1.000  H
  H500     1.0000 0.46920  0.07630  0.35010  Biso   1.000  H
  H501     1.0000 0.03080  0.92370  0.35010  Biso   1.000  H
  H502     1.0000 0.46920  0.42370  0.14990  Biso   1.000  H
  H503     1.0000 0.96920  0.57630  0.35010  Biso   1.000  H
  H504     1.0000 0.53080  0.42370  0.35010  Biso   1.000  H
  H505     1.0000 0.46920  0.92370  0.85010  Biso   1.000  H
  H506     1.0000 0.96920  0.42370  0.85010  Biso   1.000  H
  H507     1.0000 0.03080  0.07630  0.85010  Biso   1.000  H
  H508     1.0000 0.53080  0.92370  0.64990  Biso   1.000  H
  H509     1.0000 0.96920  0.07630  0.64990  Biso   1.000  H
  H510     1.0000 0.53080  0.57630  0.85010  Biso   1.000  H
  H511     1.0000 0.03080  0.42370  0.64990  Biso   1.000  H
  H512     1.0000 0.46920  0.57630  0.64990  Biso   1.000  H
  H513     1.0000 0.48340  0.04830  0.15920  Biso   1.000  H
  H514     1.0000 0.98340  0.54830  0.15920  Biso   1.000  H
  H515     1.0000 0.01660  0.95170  0.15920  Biso   1.000  H
  H516     1.0000 0.51660  0.04830  0.34080  Biso   1.000  H
  H517     1.0000 0.98340  0.95170  0.34080  Biso   1.000  H
  H518     1.0000 0.51660  0.45170  0.15920  Biso   1.000  H
  H519     1.0000 0.01660  0.54830  0.34080  Biso   1.000  H
  H520     1.0000 0.48340  0.45170  0.34080  Biso   1.000  H
  H521     1.0000 0.51660  0.95170  0.84080  Biso   1.000  H
  H522     1.0000 0.01660  0.45170  0.84080  Biso   1.000  H
  H523     1.0000 0.98340  0.04830  0.84080  Biso   1.000  H
  H524     1.0000 0.48340  0.95170  0.65920  Biso   1.000  H
  H525     1.0000 0.01660  0.04830  0.65920  Biso   1.000  H
  H526     1.0000 0.48340  0.54830  0.84080  Biso   1.000  H
  H527     1.0000 0.98340  0.45170  0.65920  Biso   1.000  H
  H528     1.0000 0.51660  0.54830  0.65920  Biso   1.000  H
  C417     1.0000 0.45530  0.06777  0.10918  Biso   1.000  C
  C418     1.0000 0.95530  0.56777  0.10918  Biso   1.000  C
  C419     1.0000 0.04470  0.93223  0.10918  Biso   1.000  C
  C420     1.0000 0.54470  0.06777  0.39082  Biso   1.000  C
  C421     1.0000 0.95530  0.93223  0.39082  Biso   1.000  C
  C422     1.0000 0.54470  0.43223  0.10918  Biso   1.000  C
  C423     1.0000 0.04470  0.56777  0.39082  Biso   1.000  C
  C424     1.0000 0.45530  0.43223  0.39082  Biso   1.000  C
  C425     1.0000 0.54470  0.93223  0.89082  Biso   1.000  C
  C426     1.0000 0.04470  0.43223  0.89082  Biso   1.000  C
  C427     1.0000 0.95530  0.06777  0.89082  Biso   1.000  C
  C428     1.0000 0.45530  0.93223  0.60918  Biso   1.000  C
  C429     1.0000 0.04470  0.06777  0.60918  Biso   1.000  C
  C430     1.0000 0.45530  0.56777  0.89082  Biso   1.000  C
  C431     1.0000 0.95530  0.43223  0.60918  Biso   1.000  C
  C432     1.0000 0.54470  0.56777  0.60918  Biso   1.000  C
  C433     1.0000 0.38990  0.08225  0.11375  Biso   1.000  C
  C434     1.0000 0.88990  0.58225  0.11375  Biso   1.000  C
  C435     1.0000 0.11010  0.91775  0.11375  Biso   1.000  C
  C436     1.0000 0.61010  0.08225  0.38625  Biso   1.000  C
  C437     1.0000 0.88990  0.91775  0.38625  Biso   1.000  C
  C438     1.0000 0.61010  0.41775  0.11375  Biso   1.000  C
  C439     1.0000 0.11010  0.58225  0.38625  Biso   1.000  C
  C440     1.0000 0.38990  0.41775  0.38625  Biso   1.000  C
  C441     1.0000 0.61010  0.91775  0.88625  Biso   1.000  C
  C442     1.0000 0.11010  0.41775  0.88625  Biso   1.000  C
  C443     1.0000 0.88990  0.08225  0.88625  Biso   1.000  C
  C444     1.0000 0.38990  0.91775  0.61375  Biso   1.000  C
  C445     1.0000 0.11010  0.08225  0.61375  Biso   1.000  C
  C446     1.0000 0.38990  0.58225  0.88625  Biso   1.000  C
  C447     1.0000 0.88990  0.41775  0.61375  Biso   1.000  C
  C448     1.0000 0.61010  0.58225  0.61375  Biso   1.000  C
  C449     1.0000 0.36260  0.08568  0.07668  Biso   1.000  C
  C450     1.0000 0.86260  0.58568  0.07668  Biso   1.000  C
  C451     1.0000 0.13740  0.91432  0.07668  Biso   1.000  C
  C452     1.0000 0.63740  0.08568  0.42332  Biso   1.000  C
  C453     1.0000 0.86260  0.91432  0.42332  Biso   1.000  C
  C454     1.0000 0.63740  0.41432  0.07668  Biso   1.000  C
  C455     1.0000 0.13740  0.58568  0.42332  Biso   1.000  C
  C456     1.0000 0.36260  0.41432  0.42332  Biso   1.000  C
  C457     1.0000 0.63740  0.91432  0.92332  Biso   1.000  C
  C458     1.0000 0.13740  0.41432  0.92332  Biso   1.000  C
  C459     1.0000 0.86260  0.08568  0.92332  Biso   1.000  C
  C460     1.0000 0.36260  0.91432  0.57668  Biso   1.000  C
  C461     1.0000 0.13740  0.08568  0.57668  Biso   1.000  C
  C462     1.0000 0.36260  0.58568  0.92332  Biso   1.000  C
  C463     1.0000 0.86260  0.41432  0.57668  Biso   1.000  C
  C464     1.0000 0.63740  0.58568  0.57668  Biso   1.000  C
  C465     1.0000 0.29400  0.09943  0.06379  Biso   1.000  C
  C466     1.0000 0.79400  0.59943  0.06379  Biso   1.000  C
  C467     1.0000 0.20600  0.90057  0.06379  Biso   1.000  C
  C468     1.0000 0.70600  0.09943  0.43621  Biso   1.000  C
  C469     1.0000 0.79400  0.90057  0.43621  Biso   1.000  C
  C470     1.0000 0.70600  0.40057  0.06379  Biso   1.000  C
  C471     1.0000 0.20600  0.59943  0.43621  Biso   1.000  C
  C472     1.0000 0.29400  0.40057  0.43621  Biso   1.000  C
  C473     1.0000 0.70600  0.90057  0.93621  Biso   1.000  C
  C474     1.0000 0.20600  0.40057  0.93621  Biso   1.000  C
  C475     1.0000 0.79400  0.09943  0.93621  Biso   1.000  C
  C476     1.0000 0.29400  0.90057  0.56379  Biso   1.000  C
  C477     1.0000 0.20600  0.09943  0.56379  Biso   1.000  C
  C478     1.0000 0.29400  0.59943  0.93621  Biso   1.000  C
  C479     1.0000 0.79400  0.40057  0.56379  Biso   1.000  C
  C480     1.0000 0.70600  0.59943  0.56379  Biso   1.000  C
  H529     1.0000 0.30090  0.10810  0.03840  Biso   1.000  H
  H530     1.0000 0.80090  0.60810  0.03840  Biso   1.000  H
  H531     1.0000 0.19910  0.89190  0.03840  Biso   1.000  H
  H532     1.0000 0.69910  0.10810  0.46160  Biso   1.000  H
  H533     1.0000 0.80090  0.89190  0.46160  Biso   1.000  H
  H534     1.0000 0.69910  0.39190  0.03840  Biso   1.000  H
  H535     1.0000 0.19910  0.60810  0.46160  Biso   1.000  H
  H536     1.0000 0.30090  0.39190  0.46160  Biso   1.000  H
  H537     1.0000 0.69910  0.89190  0.96160  Biso   1.000  H
  H538     1.0000 0.19910  0.39190  0.96160  Biso   1.000  H
  H539     1.0000 0.80090  0.10810  0.96160  Biso   1.000  H
  H540     1.0000 0.30090  0.89190  0.53840  Biso   1.000  H
  H541     1.0000 0.19910  0.10810  0.53840  Biso   1.000  H
  H542     1.0000 0.30090  0.60810  0.96160  Biso   1.000  H
  H543     1.0000 0.80090  0.39190  0.53840  Biso   1.000  H
  H544     1.0000 0.69910  0.60810  0.53840  Biso   1.000  H
  H545     1.0000 0.25590  0.08470  0.06240  Biso   1.000  H
  H546     1.0000 0.75590  0.58470  0.06240  Biso   1.000  H
  H547     1.0000 0.24410  0.91530  0.06240  Biso   1.000  H
  H548     1.0000 0.74410  0.08470  0.43760  Biso   1.000  H
  H549     1.0000 0.75590  0.91530  0.43760  Biso   1.000  H
  H550     1.0000 0.74410  0.41530  0.06240  Biso   1.000  H
  H551     1.0000 0.24410  0.58470  0.43760  Biso   1.000  H
  H552     1.0000 0.25590  0.41530  0.43760  Biso   1.000  H
  H553     1.0000 0.74410  0.91530  0.93760  Biso   1.000  H
  H554     1.0000 0.24410  0.41530  0.93760  Biso   1.000  H
  H555     1.0000 0.75590  0.08470  0.93760  Biso   1.000  H
  H556     1.0000 0.25590  0.91530  0.56240  Biso   1.000  H
  H557     1.0000 0.24410  0.08470  0.56240  Biso   1.000  H
  H558     1.0000 0.25590  0.58470  0.93760  Biso   1.000  H
  H559     1.0000 0.75590  0.41530  0.56240  Biso   1.000  H
  H560     1.0000 0.74410  0.58470  0.56240  Biso   1.000  H
  H561     1.0000 0.27990  0.11450  0.08200  Biso   1.000  H
  H562     1.0000 0.77990  0.61450  0.08200  Biso   1.000  H
  H563     1.0000 0.22010  0.88550  0.08200  Biso   1.000  H
  H564     1.0000 0.72010  0.11450  0.41800  Biso   1.000  H
  H565     1.0000 0.77990  0.88550  0.41800  Biso   1.000  H
  H566     1.0000 0.72010  0.38550  0.08200  Biso   1.000  H
  H567     1.0000 0.22010  0.61450  0.41800  Biso   1.000  H
  H568     1.0000 0.27990  0.38550  0.41800  Biso   1.000  H
  H569     1.0000 0.72010  0.88550  0.91800  Biso   1.000  H
  H570     1.0000 0.22010  0.38550  0.91800  Biso   1.000  H
  H571     1.0000 0.77990  0.11450  0.91800  Biso   1.000  H
  H572     1.0000 0.27990  0.88550  0.58200  Biso   1.000  H
  H573     1.0000 0.22010  0.11450  0.58200  Biso   1.000  H
  H574     1.0000 0.27990  0.61450  0.91800  Biso   1.000  H
  H575     1.0000 0.77990  0.38550  0.58200  Biso   1.000  H
  H576     1.0000 0.72010  0.61450  0.58200  Biso   1.000  H
  C481     1.0000 0.68030  0.12195  0.15421  Biso   1.000  C
  C482     1.0000 0.18030  0.62195  0.15421  Biso   1.000  C
  C483     1.0000 0.81970  0.87805  0.15421  Biso   1.000  C
  C484     1.0000 0.31970  0.12195  0.34579  Biso   1.000  C
  C485     1.0000 0.18030  0.87805  0.34579  Biso   1.000  C
  C486     1.0000 0.31970  0.37805  0.15421  Biso   1.000  C
  C487     1.0000 0.81970  0.62195  0.34579  Biso   1.000  C
  C488     1.0000 0.68030  0.37805  0.34579  Biso   1.000  C
  C489     1.0000 0.31970  0.87805  0.84579  Biso   1.000  C
  C490     1.0000 0.81970  0.37805  0.84579  Biso   1.000  C
  C491     1.0000 0.18030  0.12195  0.84579  Biso   1.000  C
  C492     1.0000 0.68030  0.87805  0.65421  Biso   1.000  C
  C493     1.0000 0.81970  0.12195  0.65421  Biso   1.000  C
  C494     1.0000 0.68030  0.62195  0.84579  Biso   1.000  C
  C495     1.0000 0.18030  0.37805  0.65421  Biso   1.000  C
  C496     1.0000 0.31970  0.62195  0.65421  Biso   1.000  C
  H577     1.0000 0.69770  0.11020  0.17560  Biso   1.000  H
  H578     1.0000 0.19770  0.61020  0.17560  Biso   1.000  H
  H579     1.0000 0.80230  0.88980  0.17560  Biso   1.000  H
  H580     1.0000 0.30230  0.11020  0.32440  Biso   1.000  H
  H581     1.0000 0.19770  0.88980  0.32440  Biso   1.000  H
  H582     1.0000 0.30230  0.38980  0.17560  Biso   1.000  H
  H583     1.0000 0.80230  0.61020  0.32440  Biso   1.000  H
  H584     1.0000 0.69770  0.38980  0.32440  Biso   1.000  H
  H585     1.0000 0.30230  0.88980  0.82440  Biso   1.000  H
  H586     1.0000 0.80230  0.38980  0.82440  Biso   1.000  H
  H587     1.0000 0.19770  0.11020  0.82440  Biso   1.000  H
  H588     1.0000 0.69770  0.88980  0.67560  Biso   1.000  H
  H589     1.0000 0.80230  0.11020  0.67560  Biso   1.000  H
  H590     1.0000 0.69770  0.61020  0.82440  Biso   1.000  H
  H591     1.0000 0.19770  0.38980  0.67560  Biso   1.000  H
  H592     1.0000 0.30230  0.61020  0.67560  Biso   1.000  H
  H593     1.0000 0.72160  0.13010  0.14030  Biso   1.000  H
  H594     1.0000 0.22160  0.63010  0.14030  Biso   1.000  H
  H595     1.0000 0.77840  0.86990  0.14030  Biso   1.000  H
  H596     1.0000 0.27840  0.13010  0.35970  Biso   1.000  H
  H597     1.0000 0.22160  0.86990  0.35970  Biso   1.000  H
  H598     1.0000 0.27840  0.36990  0.14030  Biso   1.000  H
  H599     1.0000 0.77840  0.63010  0.35970  Biso   1.000  H
  H600     1.0000 0.72160  0.36990  0.35970  Biso   1.000  H
  H601     1.0000 0.27840  0.86990  0.85970  Biso   1.000  H
  H602     1.0000 0.77840  0.36990  0.85970  Biso   1.000  H
  H603     1.0000 0.22160  0.13010  0.85970  Biso   1.000  H
  H604     1.0000 0.72160  0.86990  0.64030  Biso   1.000  H
  H605     1.0000 0.77840  0.13010  0.64030  Biso   1.000  H
  H606     1.0000 0.72160  0.63010  0.85970  Biso   1.000  H
  H607     1.0000 0.22160  0.36990  0.64030  Biso   1.000  H
  H608     1.0000 0.27840  0.63010  0.64030  Biso   1.000  H
  H609     1.0000 0.65180  0.10990  0.13690  Biso   1.000  H
  H610     1.0000 0.15180  0.60990  0.13690  Biso   1.000  H
  H611     1.0000 0.84820  0.89010  0.13690  Biso   1.000  H
  H612     1.0000 0.34820  0.10990  0.36310  Biso   1.000  H
  H613     1.0000 0.15180  0.89010  0.36310  Biso   1.000  H
  H614     1.0000 0.34820  0.39010  0.13690  Biso   1.000  H
  H615     1.0000 0.84820  0.60990  0.36310  Biso   1.000  H
  H616     1.0000 0.65180  0.39010  0.36310  Biso   1.000  H
  H617     1.0000 0.34820  0.89010  0.86310  Biso   1.000  H
  H618     1.0000 0.84820  0.39010  0.86310  Biso   1.000  H
  H619     1.0000 0.15180  0.10990  0.86310  Biso   1.000  H
  H620     1.0000 0.65180  0.89010  0.63690  Biso   1.000  H
  H621     1.0000 0.84820  0.10990  0.63690  Biso   1.000  H
  H622     1.0000 0.65180  0.60990  0.86310  Biso   1.000  H
  H623     1.0000 0.15180  0.39010  0.63690  Biso   1.000  H
  H624     1.0000 0.34820  0.60990  0.63690  Biso   1.000  H
  C497     1.0000 0.63450  0.14595  0.16914  Biso   1.000  C
  C498     1.0000 0.13450  0.64595  0.16914  Biso   1.000  C
  C499     1.0000 0.86550  0.85405  0.16914  Biso   1.000  C
  C500     1.0000 0.36550  0.14595  0.33086  Biso   1.000  C
  C501     1.0000 0.13450  0.85405  0.33086  Biso   1.000  C
  C502     1.0000 0.36550  0.35405  0.16914  Biso   1.000  C
  C503     1.0000 0.86550  0.64595  0.33086  Biso   1.000  C
  C504     1.0000 0.63450  0.35405  0.33086  Biso   1.000  C
  C505     1.0000 0.36550  0.85405  0.83086  Biso   1.000  C
  C506     1.0000 0.86550  0.35405  0.83086  Biso   1.000  C
  C507     1.0000 0.13450  0.14595  0.83086  Biso   1.000  C
  C508     1.0000 0.63450  0.85405  0.66914  Biso   1.000  C
  C509     1.0000 0.86550  0.14595  0.66914  Biso   1.000  C
  C510     1.0000 0.63450  0.64595  0.83086  Biso   1.000  C
  C511     1.0000 0.13450  0.35405  0.66914  Biso   1.000  C
  C512     1.0000 0.36550  0.64595  0.66914  Biso   1.000  C
  C513     1.0000 0.61870  0.17258  0.15300  Biso   1.000  C
  C514     1.0000 0.11870  0.67258  0.15300  Biso   1.000  C
  C515     1.0000 0.88130  0.82742  0.15300  Biso   1.000  C
  C516     1.0000 0.38130  0.17258  0.34700  Biso   1.000  C
  C517     1.0000 0.11870  0.82742  0.34700  Biso   1.000  C
  C518     1.0000 0.38130  0.32742  0.15300  Biso   1.000  C
  C519     1.0000 0.88130  0.67258  0.34700  Biso   1.000  C
  C520     1.0000 0.61870  0.32742  0.34700  Biso   1.000  C
  C521     1.0000 0.38130  0.82742  0.84700  Biso   1.000  C
  C522     1.0000 0.88130  0.32742  0.84700  Biso   1.000  C
  C523     1.0000 0.11870  0.17258  0.84700  Biso   1.000  C
  C524     1.0000 0.61870  0.82742  0.65300  Biso   1.000  C
  C525     1.0000 0.88130  0.17258  0.65300  Biso   1.000  C
  C526     1.0000 0.61870  0.67258  0.84700  Biso   1.000  C
  C527     1.0000 0.11870  0.32742  0.65300  Biso   1.000  C
  C528     1.0000 0.38130  0.67258  0.65300  Biso   1.000  C
  C529     1.0000 0.57400  0.18645  0.17918  Biso   1.000  C
  C530     1.0000 0.07400  0.68645  0.17918  Biso   1.000  C
  C531     1.0000 0.92600  0.81355  0.17918  Biso   1.000  C
  C532     1.0000 0.42600  0.18645  0.32082  Biso   1.000  C
  C533     1.0000 0.07400  0.81355  0.32082  Biso   1.000  C
  C534     1.0000 0.42600  0.31355  0.17918  Biso   1.000  C
  C535     1.0000 0.92600  0.68645  0.32082  Biso   1.000  C
  C536     1.0000 0.57400  0.31355  0.32082  Biso   1.000  C
  C537     1.0000 0.42600  0.81355  0.82082  Biso   1.000  C
  C538     1.0000 0.92600  0.31355  0.82082  Biso   1.000  C
  C539     1.0000 0.07400  0.18645  0.82082  Biso   1.000  C
  C540     1.0000 0.57400  0.81355  0.67918  Biso   1.000  C
  C541     1.0000 0.92600  0.18645  0.67918  Biso   1.000  C
  C542     1.0000 0.57400  0.68645  0.82082  Biso   1.000  C
  C543     1.0000 0.07400  0.31355  0.67918  Biso   1.000  C
  C544     1.0000 0.42600  0.68645  0.67918  Biso   1.000  C
  C545     1.0000 0.53780  0.21503  0.17603  Biso   1.000  C
  C546     1.0000 0.03780  0.71503  0.17603  Biso   1.000  C
  C547     1.0000 0.96220  0.78497  0.17603  Biso   1.000  C
  C548     1.0000 0.46220  0.21503  0.32397  Biso   1.000  C
  C549     1.0000 0.03780  0.78497  0.32397  Biso   1.000  C
  C550     1.0000 0.46220  0.28497  0.17603  Biso   1.000  C
  C551     1.0000 0.96220  0.71503  0.32397  Biso   1.000  C
  C552     1.0000 0.53780  0.28497  0.32397  Biso   1.000  C
  C553     1.0000 0.46220  0.78497  0.82397  Biso   1.000  C
  C554     1.0000 0.96220  0.28497  0.82397  Biso   1.000  C
  C555     1.0000 0.03780  0.21503  0.82397  Biso   1.000  C
  C556     1.0000 0.53780  0.78497  0.67603  Biso   1.000  C
  C557     1.0000 0.96220  0.21503  0.67603  Biso   1.000  C
  C558     1.0000 0.53780  0.71503  0.82397  Biso   1.000  C
  C559     1.0000 0.03780  0.28497  0.67603  Biso   1.000  C
  C560     1.0000 0.46220  0.71503  0.67603  Biso   1.000  C
  H625     1.0000 0.53030  0.22300  0.20170  Biso   1.000  H
  H626     1.0000 0.03030  0.72300  0.20170  Biso   1.000  H
  H627     1.0000 0.96970  0.77700  0.20170  Biso   1.000  H
  H628     1.0000 0.46970  0.22300  0.29830  Biso   1.000  H
  H629     1.0000 0.03030  0.77700  0.29830  Biso   1.000  H
  H630     1.0000 0.46970  0.27700  0.20170  Biso   1.000  H
  H631     1.0000 0.96970  0.72300  0.29830  Biso   1.000  H
  H632     1.0000 0.53030  0.27700  0.29830  Biso   1.000  H
  H633     1.0000 0.46970  0.77700  0.79830  Biso   1.000  H
  H634     1.0000 0.96970  0.27700  0.79830  Biso   1.000  H
  H635     1.0000 0.03030  0.22300  0.79830  Biso   1.000  H
  H636     1.0000 0.53030  0.77700  0.70170  Biso   1.000  H
  H637     1.0000 0.96970  0.22300  0.70170  Biso   1.000  H
  H638     1.0000 0.53030  0.72300  0.79830  Biso   1.000  H
  H639     1.0000 0.03030  0.27700  0.70170  Biso   1.000  H
  H640     1.0000 0.46970  0.72300  0.70170  Biso   1.000  H
  H641     1.0000 0.49120  0.21270  0.16320  Biso   1.000  H
  H642     1.0000 0.99120  0.71270  0.16320  Biso   1.000  H
  H643     1.0000 0.00880  0.78730  0.16320  Biso   1.000  H
  H644     1.0000 0.50880  0.21270  0.33680  Biso   1.000  H
  H645     1.0000 0.99120  0.78730  0.33680  Biso   1.000  H
  H646     1.0000 0.50880  0.28730  0.16320  Biso   1.000  H
  H647     1.0000 0.00880  0.71270  0.33680  Biso   1.000  H
  H648     1.0000 0.49120  0.28730  0.33680  Biso   1.000  H
  H649     1.0000 0.50880  0.78730  0.83680  Biso   1.000  H
  H650     1.0000 0.00880  0.28730  0.83680  Biso   1.000  H
  H651     1.0000 0.99120  0.21270  0.83680  Biso   1.000  H
  H652     1.0000 0.49120  0.78730  0.66320  Biso   1.000  H
  H653     1.0000 0.00880  0.21270  0.66320  Biso   1.000  H
  H654     1.0000 0.49120  0.71270  0.83680  Biso   1.000  H
  H655     1.0000 0.99120  0.28730  0.66320  Biso   1.000  H
  H656     1.0000 0.50880  0.71270  0.66320  Biso   1.000  H
  H657     1.0000 0.56820  0.22820  0.16110  Biso   1.000  H
  H658     1.0000 0.06820  0.72820  0.16110  Biso   1.000  H
  H659     1.0000 0.93180  0.77180  0.16110  Biso   1.000  H
  H660     1.0000 0.43180  0.22820  0.33890  Biso   1.000  H
  H661     1.0000 0.06820  0.77180  0.33890  Biso   1.000  H
  H662     1.0000 0.43180  0.27180  0.16110  Biso   1.000  H
  H663     1.0000 0.93180  0.72820  0.33890  Biso   1.000  H
  H664     1.0000 0.56820  0.27180  0.33890  Biso   1.000  H
  H665     1.0000 0.43180  0.77180  0.83890  Biso   1.000  H
  H666     1.0000 0.93180  0.27180  0.83890  Biso   1.000  H
  H667     1.0000 0.06820  0.22820  0.83890  Biso   1.000  H
  H668     1.0000 0.56820  0.77180  0.66110  Biso   1.000  H
  H669     1.0000 0.93180  0.22820  0.66110  Biso   1.000  H
  H670     1.0000 0.56820  0.72820  0.83890  Biso   1.000  H
  H671     1.0000 0.06820  0.27180  0.66110  Biso   1.000  H
  H672     1.0000 0.43180  0.72820  0.66110  Biso   1.000  H
  C561     1.0000 0.57400  0.14675  0.07113  Biso   1.000  C
  C562     1.0000 0.07400  0.64675  0.07113  Biso   1.000  C
  C563     1.0000 0.92600  0.85325  0.07113  Biso   1.000  C
  C564     1.0000 0.42600  0.14675  0.42887  Biso   1.000  C
  C565     1.0000 0.07400  0.85325  0.42887  Biso   1.000  C
  C566     1.0000 0.42600  0.35325  0.07113  Biso   1.000  C
  C567     1.0000 0.92600  0.64675  0.42887  Biso   1.000  C
  C568     1.0000 0.57400  0.35325  0.42887  Biso   1.000  C
  C569     1.0000 0.42600  0.85325  0.92887  Biso   1.000  C
  C570     1.0000 0.92600  0.35325  0.92887  Biso   1.000  C
  C571     1.0000 0.07400  0.14675  0.92887  Biso   1.000  C
  C572     1.0000 0.57400  0.85325  0.57113  Biso   1.000  C
  C573     1.0000 0.92600  0.14675  0.57113  Biso   1.000  C
  C574     1.0000 0.57400  0.64675  0.92887  Biso   1.000  C
  C575     1.0000 0.07400  0.35325  0.57113  Biso   1.000  C
  C576     1.0000 0.42600  0.64675  0.57113  Biso   1.000  C
  H673     1.0000 0.60300  0.12940  0.06660  Biso   1.000  H
  H674     1.0000 0.10300  0.62940  0.06660  Biso   1.000  H
  H675     1.0000 0.89700  0.87060  0.06660  Biso   1.000  H
  H676     1.0000 0.39700  0.12940  0.43340  Biso   1.000  H
  H677     1.0000 0.10300  0.87060  0.43340  Biso   1.000  H
  H678     1.0000 0.39700  0.37060  0.06660  Biso   1.000  H
  H679     1.0000 0.89700  0.62940  0.43340  Biso   1.000  H
  H680     1.0000 0.60300  0.37060  0.43340  Biso   1.000  H
  H681     1.0000 0.39700  0.87060  0.93340  Biso   1.000  H
  H682     1.0000 0.89700  0.37060  0.93340  Biso   1.000  H
  H683     1.0000 0.10300  0.12940  0.93340  Biso   1.000  H
  H684     1.0000 0.60300  0.87060  0.56660  Biso   1.000  H
  H685     1.0000 0.89700  0.12940  0.56660  Biso   1.000  H
  H686     1.0000 0.60300  0.62940  0.93340  Biso   1.000  H
  H687     1.0000 0.10300  0.37060  0.56660  Biso   1.000  H
  H688     1.0000 0.39700  0.62940  0.56660  Biso   1.000  H
  H689     1.0000 0.54570  0.15120  0.04820  Biso   1.000  H
  H690     1.0000 0.04570  0.65120  0.04820  Biso   1.000  H
  H691     1.0000 0.95430  0.84880  0.04820  Biso   1.000  H
  H692     1.0000 0.45430  0.15120  0.45180  Biso   1.000  H
  H693     1.0000 0.04570  0.84880  0.45180  Biso   1.000  H
  H694     1.0000 0.45430  0.34880  0.04820  Biso   1.000  H
  H695     1.0000 0.95430  0.65120  0.45180  Biso   1.000  H
  H696     1.0000 0.54570  0.34880  0.45180  Biso   1.000  H
  H697     1.0000 0.45430  0.84880  0.95180  Biso   1.000  H
  H698     1.0000 0.95430  0.34880  0.95180  Biso   1.000  H
  H699     1.0000 0.04570  0.15120  0.95180  Biso   1.000  H
  H700     1.0000 0.54570  0.84880  0.54820  Biso   1.000  H
  H701     1.0000 0.95430  0.15120  0.54820  Biso   1.000  H
  H702     1.0000 0.54570  0.65120  0.95180  Biso   1.000  H
  H703     1.0000 0.04570  0.34880  0.54820  Biso   1.000  H
  H704     1.0000 0.45430  0.65120  0.54820  Biso   1.000  H
  H705     1.0000 0.54140  0.14340  0.09280  Biso   1.000  H
  H706     1.0000 0.04140  0.64340  0.09280  Biso   1.000  H
  H707     1.0000 0.95860  0.85660  0.09280  Biso   1.000  H
  H708     1.0000 0.45860  0.14340  0.40720  Biso   1.000  H
  H709     1.0000 0.04140  0.85660  0.40720  Biso   1.000  H
  H710     1.0000 0.45860  0.35660  0.09280  Biso   1.000  H
  H711     1.0000 0.95860  0.64340  0.40720  Biso   1.000  H
  H712     1.0000 0.54140  0.35660  0.40720  Biso   1.000  H
  H713     1.0000 0.45860  0.85660  0.90720  Biso   1.000  H
  H714     1.0000 0.95860  0.35660  0.90720  Biso   1.000  H
  H715     1.0000 0.04140  0.14340  0.90720  Biso   1.000  H
  H716     1.0000 0.54140  0.85660  0.59280  Biso   1.000  H
  H717     1.0000 0.95860  0.14340  0.59280  Biso   1.000  H
  H718     1.0000 0.54140  0.64340  0.90720  Biso   1.000  H
  H719     1.0000 0.04140  0.35660  0.59280  Biso   1.000  H
  H720     1.0000 0.45860  0.64340  0.59280  Biso   1.000  H
  C577     1.0000 0.62270  0.17166  0.08002  Biso   1.000  C
  C578     1.0000 0.12270  0.67166  0.08002  Biso   1.000  C
  C579     1.0000 0.87730  0.82834  0.08002  Biso   1.000  C
  C580     1.0000 0.37730  0.17166  0.41998  Biso   1.000  C
  C581     1.0000 0.12270  0.82834  0.41998  Biso   1.000  C
  C582     1.0000 0.37730  0.32834  0.08002  Biso   1.000  C
  C583     1.0000 0.87730  0.67166  0.41998  Biso   1.000  C
  C584     1.0000 0.62270  0.32834  0.41998  Biso   1.000  C
  C585     1.0000 0.37730  0.82834  0.91998  Biso   1.000  C
  C586     1.0000 0.87730  0.32834  0.91998  Biso   1.000  C
  C587     1.0000 0.12270  0.17166  0.91998  Biso   1.000  C
  C588     1.0000 0.62270  0.82834  0.58002  Biso   1.000  C
  C589     1.0000 0.87730  0.17166  0.58002  Biso   1.000  C
  C590     1.0000 0.62270  0.67166  0.91998  Biso   1.000  C
  C591     1.0000 0.12270  0.32834  0.58002  Biso   1.000  C
  C592     1.0000 0.37730  0.67166  0.58002  Biso   1.000  C
  C593     1.0000 0.64220  0.18343  0.11533  Biso   1.000  C
  C594     1.0000 0.14220  0.68343  0.11533  Biso   1.000  C
  C595     1.0000 0.85780  0.81657  0.11533  Biso   1.000  C
  C596     1.0000 0.35780  0.18343  0.38467  Biso   1.000  C
  C597     1.0000 0.14220  0.81657  0.38467  Biso   1.000  C
  C598     1.0000 0.35780  0.31657  0.11533  Biso   1.000  C
  C599     1.0000 0.85780  0.68343  0.38467  Biso   1.000  C
  C600     1.0000 0.64220  0.31657  0.38467  Biso   1.000  C
  C601     1.0000 0.35780  0.81657  0.88467  Biso   1.000  C
  C602     1.0000 0.85780  0.31657  0.88467  Biso   1.000  C
  C603     1.0000 0.14220  0.18343  0.88467  Biso   1.000  C
  C604     1.0000 0.64220  0.81657  0.61533  Biso   1.000  C
  C605     1.0000 0.85780  0.18343  0.61533  Biso   1.000  C
  C606     1.0000 0.64220  0.68343  0.88467  Biso   1.000  C
  C607     1.0000 0.14220  0.31657  0.61533  Biso   1.000  C
  C608     1.0000 0.35780  0.68343  0.61533  Biso   1.000  C
  C609     1.0000 0.68950  0.20576  0.10711  Biso   1.000  C
  C610     1.0000 0.18950  0.70576  0.10711  Biso   1.000  C
  C611     1.0000 0.81050  0.79424  0.10711  Biso   1.000  C
  C612     1.0000 0.31050  0.20576  0.39289  Biso   1.000  C
  C613     1.0000 0.18950  0.79424  0.39289  Biso   1.000  C
  C614     1.0000 0.31050  0.29424  0.10711  Biso   1.000  C
  C615     1.0000 0.81050  0.70576  0.39289  Biso   1.000  C
  C616     1.0000 0.68950  0.29424  0.39289  Biso   1.000  C
  C617     1.0000 0.31050  0.79424  0.89289  Biso   1.000  C
  C618     1.0000 0.81050  0.29424  0.89289  Biso   1.000  C
  C619     1.0000 0.18950  0.20576  0.89289  Biso   1.000  C
  C620     1.0000 0.68950  0.79424  0.60711  Biso   1.000  C
  C621     1.0000 0.81050  0.20576  0.60711  Biso   1.000  C
  C622     1.0000 0.68950  0.70576  0.89289  Biso   1.000  C
  C623     1.0000 0.18950  0.29424  0.60711  Biso   1.000  C
  C624     1.0000 0.31050  0.70576  0.60711  Biso   1.000  C
  C625     1.0000 0.72800  0.22562  0.13375  Biso   1.000  C
  C626     1.0000 0.22800  0.72562  0.13375  Biso   1.000  C
  C627     1.0000 0.77200  0.77438  0.13375  Biso   1.000  C
  C628     1.0000 0.27200  0.22562  0.36625  Biso   1.000  C
  C629     1.0000 0.22800  0.77438  0.36625  Biso   1.000  C
  C630     1.0000 0.27200  0.27438  0.13375  Biso   1.000  C
  C631     1.0000 0.77200  0.72562  0.36625  Biso   1.000  C
  C632     1.0000 0.72800  0.27438  0.36625  Biso   1.000  C
  C633     1.0000 0.27200  0.77438  0.86625  Biso   1.000  C
  C634     1.0000 0.77200  0.27438  0.86625  Biso   1.000  C
  C635     1.0000 0.22800  0.22562  0.86625  Biso   1.000  C
  C636     1.0000 0.72800  0.77438  0.63375  Biso   1.000  C
  C637     1.0000 0.77200  0.22562  0.63375  Biso   1.000  C
  C638     1.0000 0.72800  0.72562  0.86625  Biso   1.000  C
  C639     1.0000 0.22800  0.27438  0.63375  Biso   1.000  C
  C640     1.0000 0.27200  0.72562  0.63375  Biso   1.000  C
  H721     1.0000 0.77650  0.22950  0.12390  Biso   1.000  H
  H722     1.0000 0.27650  0.72950  0.12390  Biso   1.000  H
  H723     1.0000 0.72350  0.77050  0.12390  Biso   1.000  H
  H724     1.0000 0.22350  0.22950  0.37610  Biso   1.000  H
  H725     1.0000 0.27650  0.77050  0.37610  Biso   1.000  H
  H726     1.0000 0.22350  0.27050  0.12390  Biso   1.000  H
  H727     1.0000 0.72350  0.72950  0.37610  Biso   1.000  H
  H728     1.0000 0.77650  0.27050  0.37610  Biso   1.000  H
  H729     1.0000 0.22350  0.77050  0.87610  Biso   1.000  H
  H730     1.0000 0.72350  0.27050  0.87610  Biso   1.000  H
  H731     1.0000 0.27650  0.22950  0.87610  Biso   1.000  H
  H732     1.0000 0.77650  0.77050  0.62390  Biso   1.000  H
  H733     1.0000 0.72350  0.22950  0.62390  Biso   1.000  H
  H734     1.0000 0.77650  0.72950  0.87610  Biso   1.000  H
  H735     1.0000 0.27650  0.27050  0.62390  Biso   1.000  H
  H736     1.0000 0.22350  0.72950  0.62390  Biso   1.000  H
  H737     1.0000 0.73160  0.21660  0.15910  Biso   1.000  H
  H738     1.0000 0.23160  0.71660  0.15910  Biso   1.000  H
  H739     1.0000 0.76840  0.78340  0.15910  Biso   1.000  H
  H740     1.0000 0.26840  0.21660  0.34090  Biso   1.000  H
  H741     1.0000 0.23160  0.78340  0.34090  Biso   1.000  H
  H742     1.0000 0.26840  0.28340  0.15910  Biso   1.000  H
  H743     1.0000 0.76840  0.71660  0.34090  Biso   1.000  H
  H744     1.0000 0.73160  0.28340  0.34090  Biso   1.000  H
  H745     1.0000 0.26840  0.78340  0.84090  Biso   1.000  H
  H746     1.0000 0.76840  0.28340  0.84090  Biso   1.000  H
  H747     1.0000 0.23160  0.21660  0.84090  Biso   1.000  H
  H748     1.0000 0.73160  0.78340  0.65910  Biso   1.000  H
  H749     1.0000 0.76840  0.21660  0.65910  Biso   1.000  H
  H750     1.0000 0.73160  0.71660  0.84090  Biso   1.000  H
  H751     1.0000 0.23160  0.28340  0.65910  Biso   1.000  H
  H752     1.0000 0.26840  0.71660  0.65910  Biso   1.000  H
  H753     1.0000 0.70130  0.24380  0.13580  Biso   1.000  H
  H754     1.0000 0.20130  0.74380  0.13580  Biso   1.000  H
  H755     1.0000 0.79870  0.75620  0.13580  Biso   1.000  H
  H756     1.0000 0.29870  0.24380  0.36420  Biso   1.000  H
  H757     1.0000 0.20130  0.75620  0.36420  Biso   1.000  H
  H758     1.0000 0.29870  0.25620  0.13580  Biso   1.000  H
  H759     1.0000 0.79870  0.74380  0.36420  Biso   1.000  H
  H760     1.0000 0.70130  0.25620  0.36420  Biso   1.000  H
  H761     1.0000 0.29870  0.75620  0.86420  Biso   1.000  H
  H762     1.0000 0.79870  0.25620  0.86420  Biso   1.000  H
  H763     1.0000 0.20130  0.24380  0.86420  Biso   1.000  H
  H764     1.0000 0.70130  0.75620  0.63580  Biso   1.000  H
  H765     1.0000 0.79870  0.24380  0.63580  Biso   1.000  H
  H766     1.0000 0.70130  0.74380  0.86420  Biso   1.000  H
  H767     1.0000 0.20130  0.25620  0.63580  Biso   1.000  H
  H768     1.0000 0.29870  0.74380  0.63580  Biso   1.000  H
  C641     1.0000 0.95380  0.21940  0.92923  Biso   1.000  C
  C642     1.0000 0.45380  0.71940  0.92923  Biso   1.000  C
  C643     1.0000 0.54620  0.78060  0.92923  Biso   1.000  C
  C644     1.0000 0.04620  0.21940  0.57077  Biso   1.000  C
  C645     1.0000 0.45380  0.78060  0.57077  Biso   1.000  C
  C646     1.0000 0.04620  0.28060  0.92923  Biso   1.000  C
  C647     1.0000 0.54620  0.71940  0.57077  Biso   1.000  C
  C648     1.0000 0.95380  0.28060  0.57077  Biso   1.000  C
  C649     1.0000 0.04620  0.78060  0.07077  Biso   1.000  C
  C650     1.0000 0.54620  0.28060  0.07077  Biso   1.000  C
  C651     1.0000 0.45380  0.21940  0.07077  Biso   1.000  C
  C652     1.0000 0.95380  0.78060  0.42923  Biso   1.000  C
  C653     1.0000 0.54620  0.21940  0.42923  Biso   1.000  C
  C654     1.0000 0.95380  0.71940  0.07077  Biso   1.000  C
  C655     1.0000 0.45380  0.28060  0.42923  Biso   1.000  C
  C656     1.0000 0.04620  0.71940  0.42923  Biso   1.000  C
  H769     1.0000 0.93020  0.20090  0.92330  Biso   1.000  H
  H770     1.0000 0.43020  0.70090  0.92330  Biso   1.000  H
  H771     1.0000 0.56980  0.79910  0.92330  Biso   1.000  H
  H772     1.0000 0.06980  0.20090  0.57670  Biso   1.000  H
  H773     1.0000 0.43020  0.79910  0.57670  Biso   1.000  H
  H774     1.0000 0.06980  0.29910  0.92330  Biso   1.000  H
  H775     1.0000 0.56980  0.70090  0.57670  Biso   1.000  H
  H776     1.0000 0.93020  0.29910  0.57670  Biso   1.000  H
  H777     1.0000 0.06980  0.79910  0.07670  Biso   1.000  H
  H778     1.0000 0.56980  0.29910  0.07670  Biso   1.000  H
  H779     1.0000 0.43020  0.20090  0.07670  Biso   1.000  H
  H780     1.0000 0.93020  0.79910  0.42330  Biso   1.000  H
  H781     1.0000 0.56980  0.20090  0.42330  Biso   1.000  H
  H782     1.0000 0.93020  0.70090  0.07670  Biso   1.000  H
  H783     1.0000 0.43020  0.29910  0.42330  Biso   1.000  H
  H784     1.0000 0.06980  0.70090  0.42330  Biso   1.000  H
  H785     1.0000 0.00600  0.21650  0.93100  Biso   1.000  H
  H786     1.0000 0.50600  0.71650  0.93100  Biso   1.000  H
  H787     1.0000 0.49400  0.78350  0.93100  Biso   1.000  H
  H788     1.0000 0.99400  0.21650  0.56900  Biso   1.000  H
  H789     1.0000 0.50600  0.78350  0.56900  Biso   1.000  H
  H790     1.0000 0.99400  0.28350  0.93100  Biso   1.000  H
  H791     1.0000 0.49400  0.71650  0.56900  Biso   1.000  H
  H792     1.0000 0.00600  0.28350  0.56900  Biso   1.000  H
  H793     1.0000 0.99400  0.78350  0.06900  Biso   1.000  H
  H794     1.0000 0.49400  0.28350  0.06900  Biso   1.000  H
  H795     1.0000 0.50600  0.21650  0.06900  Biso   1.000  H
  H796     1.0000 0.00600  0.78350  0.43100  Biso   1.000  H
  H797     1.0000 0.49400  0.21650  0.43100  Biso   1.000  H
  H798     1.0000 0.00600  0.71650  0.06900  Biso   1.000  H
  H799     1.0000 0.50600  0.28350  0.43100  Biso   1.000  H
  H800     1.0000 0.99400  0.71650  0.43100  Biso   1.000  H
  H801     1.0000 0.94320  0.23340  0.90890  Biso   1.000  H
  H802     1.0000 0.44320  0.73340  0.90890  Biso   1.000  H
  H803     1.0000 0.55680  0.76660  0.90890  Biso   1.000  H
  H804     1.0000 0.05680  0.23340  0.59110  Biso   1.000  H
  H805     1.0000 0.44320  0.76660  0.59110  Biso   1.000  H
  H806     1.0000 0.05680  0.26660  0.90890  Biso   1.000  H
  H807     1.0000 0.55680  0.73340  0.59110  Biso   1.000  H
  H808     1.0000 0.94320  0.26660  0.59110  Biso   1.000  H
  H809     1.0000 0.05680  0.76660  0.09110  Biso   1.000  H
  H810     1.0000 0.55680  0.26660  0.09110  Biso   1.000  H
  H811     1.0000 0.44320  0.23340  0.09110  Biso   1.000  H
  H812     1.0000 0.94320  0.76660  0.40890  Biso   1.000  H
  H813     1.0000 0.55680  0.23340  0.40890  Biso   1.000  H
  H814     1.0000 0.94320  0.73340  0.09110  Biso   1.000  H
  H815     1.0000 0.44320  0.26660  0.40890  Biso   1.000  H
  H816     1.0000 0.05680  0.73340  0.40890  Biso   1.000  H
  C657     1.0000 0.92620  0.23059  0.96636  Biso   1.000  C
  C658     1.0000 0.42620  0.73059  0.96636  Biso   1.000  C
  C659     1.0000 0.57380  0.76941  0.96636  Biso   1.000  C
  C660     1.0000 0.07380  0.23059  0.53364  Biso   1.000  C
  C661     1.0000 0.42620  0.76941  0.53364  Biso   1.000  C
  C662     1.0000 0.07380  0.26941  0.96636  Biso   1.000  C
  C663     1.0000 0.57380  0.73059  0.53364  Biso   1.000  C
  C664     1.0000 0.92620  0.26941  0.53364  Biso   1.000  C
  C665     1.0000 0.07380  0.76941  0.03364  Biso   1.000  C
  C666     1.0000 0.57380  0.26941  0.03364  Biso   1.000  C
  C667     1.0000 0.42620  0.23059  0.03364  Biso   1.000  C
  C668     1.0000 0.92620  0.76941  0.46636  Biso   1.000  C
  C669     1.0000 0.57380  0.23059  0.46636  Biso   1.000  C
  C670     1.0000 0.92620  0.73059  0.03364  Biso   1.000  C
  C671     1.0000 0.42620  0.26941  0.46636  Biso   1.000  C
  C672     1.0000 0.07380  0.73059  0.46636  Biso   1.000  C
  C673     1.0000 0.96170  0.24536  0.99563  Biso   1.000  C
  C674     1.0000 0.46170  0.74536  0.99563  Biso   1.000  C
  C675     1.0000 0.53830  0.75464  0.99563  Biso   1.000  C
  C676     1.0000 0.03830  0.24536  0.50437  Biso   1.000  C
  C677     1.0000 0.46170  0.75464  0.50437  Biso   1.000  C
  C678     1.0000 0.03830  0.25464  0.99563  Biso   1.000  C
  C679     1.0000 0.53830  0.74536  0.50437  Biso   1.000  C
  C680     1.0000 0.96170  0.25464  0.50437  Biso   1.000  C
  C681     1.0000 0.03830  0.75464  0.00437  Biso   1.000  C
  C682     1.0000 0.53830  0.25464  0.00437  Biso   1.000  C
  C683     1.0000 0.46170  0.24536  0.00437  Biso   1.000  C
  C684     1.0000 0.96170  0.75464  0.49563  Biso   1.000  C
  C685     1.0000 0.53830  0.24536  0.49563  Biso   1.000  C
  C686     1.0000 0.96170  0.74536  0.00437  Biso   1.000  C
  C687     1.0000 0.46170  0.25464  0.49563  Biso   1.000  C
  C688     1.0000 0.03830  0.74536  0.49563  Biso   1.000  C
  C689     1.0000 0.91050  0.24911  0.02424  Biso   1.000  C
  C690     1.0000 0.41050  0.74911  0.02424  Biso   1.000  C
  C691     1.0000 0.58950  0.75089  0.02424  Biso   1.000  C
  C692     1.0000 0.08950  0.24911  0.47576  Biso   1.000  C
  C693     1.0000 0.41050  0.75089  0.47576  Biso   1.000  C
  C694     1.0000 0.08950  0.25089  0.02424  Biso   1.000  C
  C695     1.0000 0.58950  0.74911  0.47576  Biso   1.000  C
  C696     1.0000 0.91050  0.25089  0.47576  Biso   1.000  C
  C697     1.0000 0.08950  0.75089  0.97576  Biso   1.000  C
  C698     1.0000 0.58950  0.25089  0.97576  Biso   1.000  C
  C699     1.0000 0.41050  0.24911  0.97576  Biso   1.000  C
  C700     1.0000 0.91050  0.75089  0.52424  Biso   1.000  C
  C701     1.0000 0.58950  0.24911  0.52424  Biso   1.000  C
  C702     1.0000 0.91050  0.74911  0.97576  Biso   1.000  C
  C703     1.0000 0.41050  0.25089  0.52424  Biso   1.000  C
  C704     1.0000 0.08950  0.74911  0.52424  Biso   1.000  C
  C705     1.0000 0.91670  0.26249  0.06305  Biso   1.000  C
  C706     1.0000 0.41670  0.76249  0.06305  Biso   1.000  C
  C707     1.0000 0.58330  0.73751  0.06305  Biso   1.000  C
  C708     1.0000 0.08330  0.26249  0.43695  Biso   1.000  C
  C709     1.0000 0.41670  0.73751  0.43695  Biso   1.000  C
  C710     1.0000 0.08330  0.23751  0.06305  Biso   1.000  C
  C711     1.0000 0.58330  0.76249  0.43695  Biso   1.000  C
  C712     1.0000 0.91670  0.23751  0.43695  Biso   1.000  C
  C713     1.0000 0.08330  0.73751  0.93695  Biso   1.000  C
  C714     1.0000 0.58330  0.23751  0.93695  Biso   1.000  C
  C715     1.0000 0.41670  0.26249  0.93695  Biso   1.000  C
  C716     1.0000 0.91670  0.73751  0.56305  Biso   1.000  C
  C717     1.0000 0.58330  0.26249  0.56305  Biso   1.000  C
  C718     1.0000 0.91670  0.76249  0.93695  Biso   1.000  C
  C719     1.0000 0.41670  0.23751  0.56305  Biso   1.000  C
  C720     1.0000 0.08330  0.76249  0.56305  Biso   1.000  C
  H817     1.0000 0.86930  0.26960  0.07120  Biso   1.000  H
  H818     1.0000 0.36930  0.76960  0.07120  Biso   1.000  H
  H819     1.0000 0.63070  0.73040  0.07120  Biso   1.000  H
  H820     1.0000 0.13070  0.26960  0.42880  Biso   1.000  H
  H821     1.0000 0.36930  0.73040  0.42880  Biso   1.000  H
  H822     1.0000 0.13070  0.23040  0.07120  Biso   1.000  H
  H823     1.0000 0.63070  0.76960  0.42880  Biso   1.000  H
  H824     1.0000 0.86930  0.23040  0.42880  Biso   1.000  H
  H825     1.0000 0.13070  0.73040  0.92880  Biso   1.000  H
  H826     1.0000 0.63070  0.23040  0.92880  Biso   1.000  H
  H827     1.0000 0.36930  0.26960  0.92880  Biso   1.000  H
  H828     1.0000 0.86930  0.73040  0.57120  Biso   1.000  H
  H829     1.0000 0.63070  0.26960  0.57120  Biso   1.000  H
  H830     1.0000 0.86930  0.76960  0.92880  Biso   1.000  H
  H831     1.0000 0.36930  0.23040  0.57120  Biso   1.000  H
  H832     1.0000 0.13070  0.76960  0.57120  Biso   1.000  H
  H833     1.0000 0.95080  0.27870  0.06210  Biso   1.000  H
  H834     1.0000 0.45080  0.77870  0.06210  Biso   1.000  H
  H835     1.0000 0.54920  0.72130  0.06210  Biso   1.000  H
  H836     1.0000 0.04920  0.27870  0.43790  Biso   1.000  H
  H837     1.0000 0.45080  0.72130  0.43790  Biso   1.000  H
  H838     1.0000 0.04920  0.22130  0.06210  Biso   1.000  H
  H839     1.0000 0.54920  0.77870  0.43790  Biso   1.000  H
  H840     1.0000 0.95080  0.22130  0.43790  Biso   1.000  H
  H841     1.0000 0.04920  0.72130  0.93790  Biso   1.000  H
  H842     1.0000 0.54920  0.22130  0.93790  Biso   1.000  H
  H843     1.0000 0.45080  0.27870  0.93790  Biso   1.000  H
  H844     1.0000 0.95080  0.72130  0.56210  Biso   1.000  H
  H845     1.0000 0.54920  0.27870  0.56210  Biso   1.000  H
  H846     1.0000 0.95080  0.77870  0.93790  Biso   1.000  H
  H847     1.0000 0.45080  0.22130  0.56210  Biso   1.000  H
  H848     1.0000 0.04920  0.77870  0.56210  Biso   1.000  H
  H849     1.0000 0.93390  0.24800  0.08130  Biso   1.000  H
  H850     1.0000 0.43390  0.74800  0.08130  Biso   1.000  H
  H851     1.0000 0.56610  0.75200  0.08130  Biso   1.000  H
  H852     1.0000 0.06610  0.24800  0.41870  Biso   1.000  H
  H853     1.0000 0.43390  0.75200  0.41870  Biso   1.000  H
  H854     1.0000 0.06610  0.25200  0.08130  Biso   1.000  H
  H855     1.0000 0.56610  0.74800  0.41870  Biso   1.000  H
  H856     1.0000 0.93390  0.25200  0.41870  Biso   1.000  H
  H857     1.0000 0.06610  0.75200  0.91870  Biso   1.000  H
  H858     1.0000 0.56610  0.25200  0.91870  Biso   1.000  H
  H859     1.0000 0.43390  0.24800  0.91870  Biso   1.000  H
  H860     1.0000 0.93390  0.75200  0.58130  Biso   1.000  H
  H861     1.0000 0.56610  0.24800  0.58130  Biso   1.000  H
  H862     1.0000 0.93390  0.74800  0.91870  Biso   1.000  H
  H863     1.0000 0.43390  0.25200  0.58130  Biso   1.000  H
  H864     1.0000 0.06610  0.74800  0.58130  Biso   1.000  H
  C721     1.0000 0.55220  0.14326  0.94024  Biso   1.000  C
  C722     1.0000 0.05220  0.64326  0.94024  Biso   1.000  C
  C723     1.0000 0.94780  0.85674  0.94024  Biso   1.000  C
  C724     1.0000 0.44780  0.14326  0.55976  Biso   1.000  C
  C725     1.0000 0.05220  0.85674  0.55976  Biso   1.000  C
  C726     1.0000 0.44780  0.35674  0.94024  Biso   1.000  C
  C727     1.0000 0.94780  0.64326  0.55976  Biso   1.000  C
  C728     1.0000 0.55220  0.35674  0.55976  Biso   1.000  C
  C729     1.0000 0.44780  0.85674  0.05976  Biso   1.000  C
  C730     1.0000 0.94780  0.35674  0.05976  Biso   1.000  C
  C731     1.0000 0.05220  0.14326  0.05976  Biso   1.000  C
  C732     1.0000 0.55220  0.85674  0.44024  Biso   1.000  C
  C733     1.0000 0.94780  0.14326  0.44024  Biso   1.000  C
  C734     1.0000 0.55220  0.64326  0.05976  Biso   1.000  C
  C735     1.0000 0.05220  0.35674  0.44024  Biso   1.000  C
  C736     1.0000 0.44780  0.64326  0.44024  Biso   1.000  C
  H865     1.0000 0.56250  0.13700  0.96650  Biso   1.000  H
  H866     1.0000 0.06250  0.63700  0.96650  Biso   1.000  H
  H867     1.0000 0.93750  0.86300  0.96650  Biso   1.000  H
  H868     1.0000 0.43750  0.13700  0.53350  Biso   1.000  H
  H869     1.0000 0.06250  0.86300  0.53350  Biso   1.000  H
  H870     1.0000 0.43750  0.36300  0.96650  Biso   1.000  H
  H871     1.0000 0.93750  0.63700  0.53350  Biso   1.000  H
  H872     1.0000 0.56250  0.36300  0.53350  Biso   1.000  H
  H873     1.0000 0.43750  0.86300  0.03350  Biso   1.000  H
  H874     1.0000 0.93750  0.36300  0.03350  Biso   1.000  H
  H875     1.0000 0.06250  0.13700  0.03350  Biso   1.000  H
  H876     1.0000 0.56250  0.86300  0.46650  Biso   1.000  H
  H877     1.0000 0.93750  0.13700  0.46650  Biso   1.000  H
  H878     1.0000 0.56250  0.63700  0.03350  Biso   1.000  H
  H879     1.0000 0.06250  0.36300  0.46650  Biso   1.000  H
  H880     1.0000 0.43750  0.63700  0.46650  Biso   1.000  H
  H881     1.0000 0.54210  0.12630  0.92420  Biso   1.000  H
  H882     1.0000 0.04210  0.62630  0.92420  Biso   1.000  H
  H883     1.0000 0.95790  0.87370  0.92420  Biso   1.000  H
  H884     1.0000 0.45790  0.12630  0.57580  Biso   1.000  H
  H885     1.0000 0.04210  0.87370  0.57580  Biso   1.000  H
  H886     1.0000 0.45790  0.37370  0.92420  Biso   1.000  H
  H887     1.0000 0.95790  0.62630  0.57580  Biso   1.000  H
  H888     1.0000 0.54210  0.37370  0.57580  Biso   1.000  H
  H889     1.0000 0.45790  0.87370  0.07580  Biso   1.000  H
  H890     1.0000 0.95790  0.37370  0.07580  Biso   1.000  H
  H891     1.0000 0.04210  0.12630  0.07580  Biso   1.000  H
  H892     1.0000 0.54210  0.87370  0.42420  Biso   1.000  H
  H893     1.0000 0.95790  0.12630  0.42420  Biso   1.000  H
  H894     1.0000 0.54210  0.62630  0.07580  Biso   1.000  H
  H895     1.0000 0.04210  0.37370  0.42420  Biso   1.000  H
  H896     1.0000 0.45790  0.62630  0.42420  Biso   1.000  H
  H897     1.0000 0.51020  0.15610  0.94030  Biso   1.000  H
  H898     1.0000 0.01020  0.65610  0.94030  Biso   1.000  H
  H899     1.0000 0.98980  0.84390  0.94030  Biso   1.000  H
  H900     1.0000 0.48980  0.15610  0.55970  Biso   1.000  H
  H901     1.0000 0.01020  0.84390  0.55970  Biso   1.000  H
  H902     1.0000 0.48980  0.34390  0.94030  Biso   1.000  H
  H903     1.0000 0.98980  0.65610  0.55970  Biso   1.000  H
  H904     1.0000 0.51020  0.34390  0.55970  Biso   1.000  H
  H905     1.0000 0.48980  0.84390  0.05970  Biso   1.000  H
  H906     1.0000 0.98980  0.34390  0.05970  Biso   1.000  H
  H907     1.0000 0.01020  0.15610  0.05970  Biso   1.000  H
  H908     1.0000 0.51020  0.84390  0.44030  Biso   1.000  H
  H909     1.0000 0.98980  0.15610  0.44030  Biso   1.000  H
  H910     1.0000 0.51020  0.65610  0.05970  Biso   1.000  H
  H911     1.0000 0.01020  0.34390  0.44030  Biso   1.000  H
  H912     1.0000 0.48980  0.65610  0.44030  Biso   1.000  H
  C737     1.0000 0.61630  0.15913  0.92453  Biso   1.000  C
  C738     1.0000 0.11630  0.65913  0.92453  Biso   1.000  C
  C739     1.0000 0.88370  0.84087  0.92453  Biso   1.000  C
  C740     1.0000 0.38370  0.15913  0.57547  Biso   1.000  C
  C741     1.0000 0.11630  0.84087  0.57547  Biso   1.000  C
  C742     1.0000 0.38370  0.34087  0.92453  Biso   1.000  C
  C743     1.0000 0.88370  0.65913  0.57547  Biso   1.000  C
  C744     1.0000 0.61630  0.34087  0.57547  Biso   1.000  C
  C745     1.0000 0.38370  0.84087  0.07547  Biso   1.000  C
  C746     1.0000 0.88370  0.34087  0.07547  Biso   1.000  C
  C747     1.0000 0.11630  0.15913  0.07547  Biso   1.000  C
  C748     1.0000 0.61630  0.84087  0.42453  Biso   1.000  C
  C749     1.0000 0.88370  0.15913  0.42453  Biso   1.000  C
  C750     1.0000 0.61630  0.65913  0.07547  Biso   1.000  C
  C751     1.0000 0.11630  0.34087  0.42453  Biso   1.000  C
  C752     1.0000 0.38370  0.65913  0.42453  Biso   1.000  C
  C753     1.0000 0.63950  0.16245  0.88698  Biso   1.000  C
  C754     1.0000 0.13950  0.66245  0.88698  Biso   1.000  C
  C755     1.0000 0.86050  0.83755  0.88698  Biso   1.000  C
  C756     1.0000 0.36050  0.16245  0.61302  Biso   1.000  C
  C757     1.0000 0.13950  0.83755  0.61302  Biso   1.000  C
  C758     1.0000 0.36050  0.33755  0.88698  Biso   1.000  C
  C759     1.0000 0.86050  0.66245  0.61302  Biso   1.000  C
  C760     1.0000 0.63950  0.33755  0.61302  Biso   1.000  C
  C761     1.0000 0.36050  0.83755  0.11302  Biso   1.000  C
  C762     1.0000 0.86050  0.33755  0.11302  Biso   1.000  C
  C763     1.0000 0.13950  0.16245  0.11302  Biso   1.000  C
  C764     1.0000 0.63950  0.83755  0.38698  Biso   1.000  C
  C765     1.0000 0.86050  0.16245  0.38698  Biso   1.000  C
  C766     1.0000 0.63950  0.66245  0.11302  Biso   1.000  C
  C767     1.0000 0.13950  0.33755  0.38698  Biso   1.000  C
  C768     1.0000 0.36050  0.66245  0.38698  Biso   1.000  C
  C769     1.0000 0.70140  0.17930  0.88990  Biso   1.000  C
  C770     1.0000 0.20140  0.67930  0.88990  Biso   1.000  C
  C771     1.0000 0.79860  0.82070  0.88990  Biso   1.000  C
  C772     1.0000 0.29860  0.17930  0.61010  Biso   1.000  C
  C773     1.0000 0.20140  0.82070  0.61010  Biso   1.000  C
  C774     1.0000 0.29860  0.32070  0.88990  Biso   1.000  C
  C775     1.0000 0.79860  0.67930  0.61010  Biso   1.000  C
  C776     1.0000 0.70140  0.32070  0.61010  Biso   1.000  C
  C777     1.0000 0.29860  0.82070  0.11010  Biso   1.000  C
  C778     1.0000 0.79860  0.32070  0.11010  Biso   1.000  C
  C779     1.0000 0.20140  0.17930  0.11010  Biso   1.000  C
  C780     1.0000 0.70140  0.82070  0.38990  Biso   1.000  C
  C781     1.0000 0.79860  0.17930  0.38990  Biso   1.000  C
  C782     1.0000 0.70140  0.67930  0.11010  Biso   1.000  C
  C783     1.0000 0.20140  0.32070  0.38990  Biso   1.000  C
  C784     1.0000 0.29860  0.67930  0.38990  Biso   1.000  C
  C785     1.0000 0.75010  0.18978  0.85910  Biso   1.000  C
  C786     1.0000 0.25010  0.68978  0.85910  Biso   1.000  C
  C787     1.0000 0.74990  0.81022  0.85910  Biso   1.000  C
  C788     1.0000 0.24990  0.18978  0.64090  Biso   1.000  C
  C789     1.0000 0.25010  0.81022  0.64090  Biso   1.000  C
  C790     1.0000 0.24990  0.31022  0.85910  Biso   1.000  C
  C791     1.0000 0.74990  0.68978  0.64090  Biso   1.000  C
  C792     1.0000 0.75010  0.31022  0.64090  Biso   1.000  C
  C793     1.0000 0.24990  0.81022  0.14090  Biso   1.000  C
  C794     1.0000 0.74990  0.31022  0.14090  Biso   1.000  C
  C795     1.0000 0.25010  0.18978  0.14090  Biso   1.000  C
  C796     1.0000 0.75010  0.81022  0.35910  Biso   1.000  C
  C797     1.0000 0.74990  0.18978  0.35910  Biso   1.000  C
  C798     1.0000 0.75010  0.68978  0.14090  Biso   1.000  C
  C799     1.0000 0.25010  0.31022  0.35910  Biso   1.000  C
  C800     1.0000 0.24990  0.68978  0.35910  Biso   1.000  C
  H913     1.0000 0.79640  0.19550  0.87030  Biso   1.000  H
  H914     1.0000 0.29640  0.69550  0.87030  Biso   1.000  H
  H915     1.0000 0.70360  0.80450  0.87030  Biso   1.000  H
  H916     1.0000 0.20360  0.19550  0.62970  Biso   1.000  H
  H917     1.0000 0.29640  0.80450  0.62970  Biso   1.000  H
  H918     1.0000 0.20360  0.30450  0.87030  Biso   1.000  H
  H919     1.0000 0.70360  0.69550  0.62970  Biso   1.000  H
  H920     1.0000 0.79640  0.30450  0.62970  Biso   1.000  H
  H921     1.0000 0.20360  0.80450  0.12970  Biso   1.000  H
  H922     1.0000 0.70360  0.30450  0.12970  Biso   1.000  H
  H923     1.0000 0.29640  0.19550  0.12970  Biso   1.000  H
  H924     1.0000 0.79640  0.80450  0.37030  Biso   1.000  H
  H925     1.0000 0.70360  0.19550  0.37030  Biso   1.000  H
  H926     1.0000 0.79640  0.69550  0.12970  Biso   1.000  H
  H927     1.0000 0.29640  0.30450  0.37030  Biso   1.000  H
  H928     1.0000 0.20360  0.69550  0.37030  Biso   1.000  H
  H929     1.0000 0.72810  0.20640  0.84630  Biso   1.000  H
  H930     1.0000 0.22810  0.70640  0.84630  Biso   1.000  H
  H931     1.0000 0.77190  0.79360  0.84630  Biso   1.000  H
  H932     1.0000 0.27190  0.20640  0.65370  Biso   1.000  H
  H933     1.0000 0.22810  0.79360  0.65370  Biso   1.000  H
  H934     1.0000 0.27190  0.29360  0.84630  Biso   1.000  H
  H935     1.0000 0.77190  0.70640  0.65370  Biso   1.000  H
  H936     1.0000 0.72810  0.29360  0.65370  Biso   1.000  H
  H937     1.0000 0.27190  0.79360  0.15370  Biso   1.000  H
  H938     1.0000 0.77190  0.29360  0.15370  Biso   1.000  H
  H939     1.0000 0.22810  0.20640  0.15370  Biso   1.000  H
  H940     1.0000 0.72810  0.79360  0.34630  Biso   1.000  H
  H941     1.0000 0.77190  0.20640  0.34630  Biso   1.000  H
  H942     1.0000 0.72810  0.70640  0.15370  Biso   1.000  H
  H943     1.0000 0.22810  0.29360  0.34630  Biso   1.000  H
  H944     1.0000 0.27190  0.70640  0.34630  Biso   1.000  H
  H945     1.0000 0.75800  0.17430  0.84040  Biso   1.000  H
  H946     1.0000 0.25800  0.67430  0.84040  Biso   1.000  H
  H947     1.0000 0.74200  0.82570  0.84040  Biso   1.000  H
  H948     1.0000 0.24200  0.17430  0.65960  Biso   1.000  H
  H949     1.0000 0.25800  0.82570  0.65960  Biso   1.000  H
  H950     1.0000 0.24200  0.32570  0.84040  Biso   1.000  H
  H951     1.0000 0.74200  0.67430  0.65960  Biso   1.000  H
  H952     1.0000 0.75800  0.32570  0.65960  Biso   1.000  H
  H953     1.0000 0.24200  0.82570  0.15960  Biso   1.000  H
  H954     1.0000 0.74200  0.32570  0.15960  Biso   1.000  H
  H955     1.0000 0.25800  0.17430  0.15960  Biso   1.000  H
  H956     1.0000 0.75800  0.82570  0.34040  Biso   1.000  H
  H957     1.0000 0.74200  0.17430  0.34040  Biso   1.000  H
  H958     1.0000 0.75800  0.67430  0.15960  Biso   1.000  H
  H959     1.0000 0.25800  0.32570  0.34040  Biso   1.000  H
  H960     1.0000 0.24200  0.67430  0.34040  Biso   1.000  H
  C801     1.0000 0.62110  0.09502  0.86663  Biso   1.000  C
  C802     1.0000 0.12110  0.59502  0.86663  Biso   1.000  C
  C803     1.0000 0.87890  0.90498  0.86663  Biso   1.000  C
  C804     1.0000 0.37890  0.09502  0.63337  Biso   1.000  C
  C805     1.0000 0.12110  0.90498  0.63337  Biso   1.000  C
  C806     1.0000 0.37890  0.40498  0.86663  Biso   1.000  C
  C807     1.0000 0.87890  0.59502  0.63337  Biso   1.000  C
  C808     1.0000 0.62110  0.40498  0.63337  Biso   1.000  C
  C809     1.0000 0.37890  0.90498  0.13337  Biso   1.000  C
  C810     1.0000 0.87890  0.40498  0.13337  Biso   1.000  C
  C811     1.0000 0.12110  0.09502  0.13337  Biso   1.000  C
  C812     1.0000 0.62110  0.90498  0.36663  Biso   1.000  C
  C813     1.0000 0.87890  0.09502  0.36663  Biso   1.000  C
  C814     1.0000 0.62110  0.59502  0.13337  Biso   1.000  C
  C815     1.0000 0.12110  0.40498  0.36663  Biso   1.000  C
  C816     1.0000 0.37890  0.59502  0.36663  Biso   1.000  C
  H961     1.0000 0.63340  0.07900  0.84940  Biso   1.000  H
  H962     1.0000 0.13340  0.57900  0.84940  Biso   1.000  H
  H963     1.0000 0.86660  0.92100  0.84940  Biso   1.000  H
  H964     1.0000 0.36660  0.07900  0.65060  Biso   1.000  H
  H965     1.0000 0.13340  0.92100  0.65060  Biso   1.000  H
  H966     1.0000 0.36660  0.42100  0.84940  Biso   1.000  H
  H967     1.0000 0.86660  0.57900  0.65060  Biso   1.000  H
  H968     1.0000 0.63340  0.42100  0.65060  Biso   1.000  H
  H969     1.0000 0.36660  0.92100  0.15060  Biso   1.000  H
  H970     1.0000 0.86660  0.42100  0.15060  Biso   1.000  H
  H971     1.0000 0.13340  0.07900  0.15060  Biso   1.000  H
  H972     1.0000 0.63340  0.92100  0.34940  Biso   1.000  H
  H973     1.0000 0.86660  0.07900  0.34940  Biso   1.000  H
  H974     1.0000 0.63340  0.57900  0.15060  Biso   1.000  H
  H975     1.0000 0.13340  0.42100  0.34940  Biso   1.000  H
  H976     1.0000 0.36660  0.57900  0.34940  Biso   1.000  H
  H977     1.0000 0.58030  0.08940  0.88280  Biso   1.000  H
  H978     1.0000 0.08030  0.58940  0.88280  Biso   1.000  H
  H979     1.0000 0.91970  0.91060  0.88280  Biso   1.000  H
  H980     1.0000 0.41970  0.08940  0.61720  Biso   1.000  H
  H981     1.0000 0.08030  0.91060  0.61720  Biso   1.000  H
  H982     1.0000 0.41970  0.41060  0.88280  Biso   1.000  H
  H983     1.0000 0.91970  0.58940  0.61720  Biso   1.000  H
  H984     1.0000 0.58030  0.41060  0.61720  Biso   1.000  H
  H985     1.0000 0.41970  0.91060  0.11720  Biso   1.000  H
  H986     1.0000 0.91970  0.41060  0.11720  Biso   1.000  H
  H987     1.0000 0.08030  0.08940  0.11720  Biso   1.000  H
  H988     1.0000 0.58030  0.91060  0.38280  Biso   1.000  H
  H989     1.0000 0.91970  0.08940  0.38280  Biso   1.000  H
  H990     1.0000 0.58030  0.58940  0.11720  Biso   1.000  H
  H991     1.0000 0.08030  0.41060  0.38280  Biso   1.000  H
  H992     1.0000 0.41970  0.58940  0.38280  Biso   1.000  H
  H993     1.0000 0.66280  0.09960  0.88280  Biso   1.000  H
  H994     1.0000 0.16280  0.59960  0.88280  Biso   1.000  H
  H995     1.0000 0.83720  0.90040  0.88280  Biso   1.000  H
  H996     1.0000 0.33720  0.09960  0.61720  Biso   1.000  H
  H997     1.0000 0.16280  0.90040  0.61720  Biso   1.000  H
  H998     1.0000 0.33720  0.40040  0.88280  Biso   1.000  H
  H999     1.0000 0.83720  0.59960  0.61720  Biso   1.000  H
  H1000    1.0000 0.66280  0.40040  0.61720  Biso   1.000  H
  H1001    1.0000 0.33720  0.90040  0.11720  Biso   1.000  H
  H1002    1.0000 0.83720  0.40040  0.11720  Biso   1.000  H
  H1003    1.0000 0.16280  0.09960  0.11720  Biso   1.000  H
  H1004    1.0000 0.66280  0.90040  0.38280  Biso   1.000  H
  H1005    1.0000 0.83720  0.09960  0.38280  Biso   1.000  H
  H1006    1.0000 0.66280  0.59960  0.11720  Biso   1.000  H
  H1007    1.0000 0.16280  0.40040  0.38280  Biso   1.000  H
  H1008    1.0000 0.33720  0.59960  0.38280  Biso   1.000  H
  C817     1.0000 0.60120  0.12100  0.84361  Biso   1.000  C
  C818     1.0000 0.10120  0.62100  0.84361  Biso   1.000  C
  C819     1.0000 0.89880  0.87900  0.84361  Biso   1.000  C
  C820     1.0000 0.39880  0.12100  0.65639  Biso   1.000  C
  C821     1.0000 0.10120  0.87900  0.65639  Biso   1.000  C
  C822     1.0000 0.39880  0.37900  0.84361  Biso   1.000  C
  C823     1.0000 0.89880  0.62100  0.65639  Biso   1.000  C
  C824     1.0000 0.60120  0.37900  0.65639  Biso   1.000  C
  C825     1.0000 0.39880  0.87900  0.15639  Biso   1.000  C
  C826     1.0000 0.89880  0.37900  0.15639  Biso   1.000  C
  C827     1.0000 0.10120  0.12100  0.15639  Biso   1.000  C
  C828     1.0000 0.60120  0.87900  0.34361  Biso   1.000  C
  C829     1.0000 0.89880  0.12100  0.34361  Biso   1.000  C
  C830     1.0000 0.60120  0.62100  0.15639  Biso   1.000  C
  C831     1.0000 0.10120  0.37900  0.34361  Biso   1.000  C
  C832     1.0000 0.39880  0.62100  0.34361  Biso   1.000  C
  C833     1.0000 0.60790  0.15031  0.85201  Biso   1.000  C
  C834     1.0000 0.10790  0.65031  0.85201  Biso   1.000  C
  C835     1.0000 0.89210  0.84969  0.85201  Biso   1.000  C
  C836     1.0000 0.39210  0.15031  0.64799  Biso   1.000  C
  C837     1.0000 0.10790  0.84969  0.64799  Biso   1.000  C
  C838     1.0000 0.39210  0.34969  0.85201  Biso   1.000  C
  C839     1.0000 0.89210  0.65031  0.64799  Biso   1.000  C
  C840     1.0000 0.60790  0.34969  0.64799  Biso   1.000  C
  C841     1.0000 0.39210  0.84969  0.14799  Biso   1.000  C
  C842     1.0000 0.89210  0.34969  0.14799  Biso   1.000  C
  C843     1.0000 0.10790  0.15031  0.14799  Biso   1.000  C
  C844     1.0000 0.60790  0.84969  0.35201  Biso   1.000  C
  C845     1.0000 0.89210  0.15031  0.35201  Biso   1.000  C
  C846     1.0000 0.60790  0.65031  0.14799  Biso   1.000  C
  C847     1.0000 0.10790  0.34969  0.35201  Biso   1.000  C
  C848     1.0000 0.39210  0.65031  0.35201  Biso   1.000  C
  C849     1.0000 0.57980  0.16435  0.82020  Biso   1.000  C
  C850     1.0000 0.07980  0.66435  0.82020  Biso   1.000  C
  C851     1.0000 0.92020  0.83565  0.82020  Biso   1.000  C
  C852     1.0000 0.42020  0.16435  0.67980  Biso   1.000  C
  C853     1.0000 0.07980  0.83565  0.67980  Biso   1.000  C
  C854     1.0000 0.42020  0.33565  0.82020  Biso   1.000  C
  C855     1.0000 0.92020  0.66435  0.67980  Biso   1.000  C
  C856     1.0000 0.57980  0.33565  0.67980  Biso   1.000  C
  C857     1.0000 0.42020  0.83565  0.17980  Biso   1.000  C
  C858     1.0000 0.92020  0.33565  0.17980  Biso   1.000  C
  C859     1.0000 0.07980  0.16435  0.17980  Biso   1.000  C
  C860     1.0000 0.57980  0.83565  0.32020  Biso   1.000  C
  C861     1.0000 0.92020  0.16435  0.32020  Biso   1.000  C
  C862     1.0000 0.57980  0.66435  0.17980  Biso   1.000  C
  C863     1.0000 0.07980  0.33565  0.32020  Biso   1.000  C
  C864     1.0000 0.42020  0.66435  0.32020  Biso   1.000  C
  C865     1.0000 0.57460  0.19632  0.81327  Biso   1.000  C
  C866     1.0000 0.07460  0.69632  0.81327  Biso   1.000  C
  C867     1.0000 0.92540  0.80368  0.81327  Biso   1.000  C
  C868     1.0000 0.42540  0.19632  0.68673  Biso   1.000  C
  C869     1.0000 0.07460  0.80368  0.68673  Biso   1.000  C
  C870     1.0000 0.42540  0.30368  0.81327  Biso   1.000  C
  C871     1.0000 0.92540  0.69632  0.68673  Biso   1.000  C
  C872     1.0000 0.57460  0.30368  0.68673  Biso   1.000  C
  C873     1.0000 0.42540  0.80368  0.18673  Biso   1.000  C
  C874     1.0000 0.92540  0.30368  0.18673  Biso   1.000  C
  C875     1.0000 0.07460  0.19632  0.18673  Biso   1.000  C
  C876     1.0000 0.57460  0.80368  0.31327  Biso   1.000  C
  C877     1.0000 0.92540  0.19632  0.31327  Biso   1.000  C
  C878     1.0000 0.57460  0.69632  0.18673  Biso   1.000  C
  C879     1.0000 0.07460  0.30368  0.31327  Biso   1.000  C
  C880     1.0000 0.42540  0.69632  0.31327  Biso   1.000  C
  H1009    1.0000 0.53600  0.20020  0.79480  Biso   1.000  H
  H1010    1.0000 0.03600  0.70020  0.79480  Biso   1.000  H
  H1011    1.0000 0.96400  0.79980  0.79480  Biso   1.000  H
  H1012    1.0000 0.46400  0.20020  0.70520  Biso   1.000  H
  H1013    1.0000 0.03600  0.79980  0.70520  Biso   1.000  H
  H1014    1.0000 0.46400  0.29980  0.79480  Biso   1.000  H
  H1015    1.0000 0.96400  0.70020  0.70520  Biso   1.000  H
  H1016    1.0000 0.53600  0.29980  0.70520  Biso   1.000  H
  H1017    1.0000 0.46400  0.79980  0.20520  Biso   1.000  H
  H1018    1.0000 0.96400  0.29980  0.20520  Biso   1.000  H
  H1019    1.0000 0.03600  0.20020  0.20520  Biso   1.000  H
  H1020    1.0000 0.53600  0.79980  0.29480  Biso   1.000  H
  H1021    1.0000 0.96400  0.20020  0.29480  Biso   1.000  H
  H1022    1.0000 0.53600  0.70020  0.20520  Biso   1.000  H
  H1023    1.0000 0.03600  0.29980  0.29480  Biso   1.000  H
  H1024    1.0000 0.46400  0.70020  0.29480  Biso   1.000  H
  H1025    1.0000 0.62050  0.20340  0.80300  Biso   1.000  H
  H1026    1.0000 0.12050  0.70340  0.80300  Biso   1.000  H
  H1027    1.0000 0.87950  0.79660  0.80300  Biso   1.000  H
  H1028    1.0000 0.37950  0.20340  0.69700  Biso   1.000  H
  H1029    1.0000 0.12050  0.79660  0.69700  Biso   1.000  H
  H1030    1.0000 0.37950  0.29660  0.80300  Biso   1.000  H
  H1031    1.0000 0.87950  0.70340  0.69700  Biso   1.000  H
  H1032    1.0000 0.62050  0.29660  0.69700  Biso   1.000  H
  H1033    1.0000 0.37950  0.79660  0.19700  Biso   1.000  H
  H1034    1.0000 0.87950  0.29660  0.19700  Biso   1.000  H
  H1035    1.0000 0.12050  0.20340  0.19700  Biso   1.000  H
  H1036    1.0000 0.62050  0.79660  0.30300  Biso   1.000  H
  H1037    1.0000 0.87950  0.20340  0.30300  Biso   1.000  H
  H1038    1.0000 0.62050  0.70340  0.19700  Biso   1.000  H
  H1039    1.0000 0.12050  0.29660  0.30300  Biso   1.000  H
  H1040    1.0000 0.37950  0.70340  0.30300  Biso   1.000  H
  H1041    1.0000 0.56400  0.20620  0.83740  Biso   1.000  H
  H1042    1.0000 0.06400  0.70620  0.83740  Biso   1.000  H
  H1043    1.0000 0.93600  0.79380  0.83740  Biso   1.000  H
  H1044    1.0000 0.43600  0.20620  0.66260  Biso   1.000  H
  H1045    1.0000 0.06400  0.79380  0.66260  Biso   1.000  H
  H1046    1.0000 0.43600  0.29380  0.83740  Biso   1.000  H
  H1047    1.0000 0.93600  0.70620  0.66260  Biso   1.000  H
  H1048    1.0000 0.56400  0.29380  0.66260  Biso   1.000  H
  H1049    1.0000 0.43600  0.79380  0.16260  Biso   1.000  H
  H1050    1.0000 0.93600  0.29380  0.16260  Biso   1.000  H
  H1051    1.0000 0.06400  0.20620  0.16260  Biso   1.000  H
  H1052    1.0000 0.56400  0.79380  0.33740  Biso   1.000  H
  H1053    1.0000 0.93600  0.20620  0.33740  Biso   1.000  H
  H1054    1.0000 0.56400  0.70620  0.16260  Biso   1.000  H
  H1055    1.0000 0.06400  0.29380  0.33740  Biso   1.000  H
  H1056    1.0000 0.43600  0.70620  0.33740  Biso   1.000  H
  C881     1.0000 0.60840  0.01306  0.79503  Biso   1.000  C
  C882     1.0000 0.10840  0.51306  0.79503  Biso   1.000  C
  C883     1.0000 0.89160  0.98694  0.79503  Biso   1.000  C
  C884     1.0000 0.39160  0.01306  0.70497  Biso   1.000  C
  C885     1.0000 0.10840  0.98694  0.70497  Biso   1.000  C
  C886     1.0000 0.39160  0.48694  0.79503  Biso   1.000  C
  C887     1.0000 0.89160  0.51306  0.70497  Biso   1.000  C
  C888     1.0000 0.60840  0.48694  0.70497  Biso   1.000  C
  C889     1.0000 0.39160  0.98694  0.20497  Biso   1.000  C
  C890     1.0000 0.89160  0.48694  0.20497  Biso   1.000  C
  C891     1.0000 0.10840  0.01306  0.20497  Biso   1.000  C
  C892     1.0000 0.60840  0.98694  0.29503  Biso   1.000  C
  C893     1.0000 0.89160  0.01306  0.29503  Biso   1.000  C
  C894     1.0000 0.60840  0.51306  0.20497  Biso   1.000  C
  C895     1.0000 0.10840  0.48694  0.29503  Biso   1.000  C
  C896     1.0000 0.39160  0.51306  0.29503  Biso   1.000  C
  H1057    1.0000 0.61330  0.02790  0.81490  Biso   1.000  H
  H1058    1.0000 0.11330  0.52790  0.81490  Biso   1.000  H
  H1059    1.0000 0.88670  0.97210  0.81490  Biso   1.000  H
  H1060    1.0000 0.38670  0.02790  0.68510  Biso   1.000  H
  H1061    1.0000 0.11330  0.97210  0.68510  Biso   1.000  H
  H1062    1.0000 0.38670  0.47210  0.81490  Biso   1.000  H
  H1063    1.0000 0.88670  0.52790  0.68510  Biso   1.000  H
  H1064    1.0000 0.61330  0.47210  0.68510  Biso   1.000  H
  H1065    1.0000 0.38670  0.97210  0.18510  Biso   1.000  H
  H1066    1.0000 0.88670  0.47210  0.18510  Biso   1.000  H
  H1067    1.0000 0.11330  0.02790  0.18510  Biso   1.000  H
  H1068    1.0000 0.61330  0.97210  0.31490  Biso   1.000  H
  H1069    1.0000 0.88670  0.02790  0.31490  Biso   1.000  H
  H1070    1.0000 0.61330  0.52790  0.18510  Biso   1.000  H
  H1071    1.0000 0.11330  0.47210  0.31490  Biso   1.000  H
  H1072    1.0000 0.38670  0.52790  0.31490  Biso   1.000  H
  H1073    1.0000 0.65290  0.01210  0.78000  Biso   1.000  H
  H1074    1.0000 0.15290  0.51210  0.78000  Biso   1.000  H
  H1075    1.0000 0.84710  0.98790  0.78000  Biso   1.000  H
  H1076    1.0000 0.34710  0.01210  0.72000  Biso   1.000  H
  H1077    1.0000 0.15290  0.98790  0.72000  Biso   1.000  H
  H1078    1.0000 0.34710  0.48790  0.78000  Biso   1.000  H
  H1079    1.0000 0.84710  0.51210  0.72000  Biso   1.000  H
  H1080    1.0000 0.65290  0.48790  0.72000  Biso   1.000  H
  H1081    1.0000 0.34710  0.98790  0.22000  Biso   1.000  H
  H1082    1.0000 0.84710  0.48790  0.22000  Biso   1.000  H
  H1083    1.0000 0.15290  0.01210  0.22000  Biso   1.000  H
  H1084    1.0000 0.65290  0.98790  0.28000  Biso   1.000  H
  H1085    1.0000 0.84710  0.01210  0.28000  Biso   1.000  H
  H1086    1.0000 0.65290  0.51210  0.22000  Biso   1.000  H
  H1087    1.0000 0.15290  0.48790  0.28000  Biso   1.000  H
  H1088    1.0000 0.34710  0.51210  0.28000  Biso   1.000  H
  H1089    1.0000 0.59940  0.99420  0.80700  Biso   1.000  H
  H1090    1.0000 0.09940  0.49420  0.80700  Biso   1.000  H
  H1091    1.0000 0.90060  0.00580  0.80700  Biso   1.000  H
  H1092    1.0000 0.40060  0.99420  0.69300  Biso   1.000  H
  H1093    1.0000 0.09940  0.00580  0.69300  Biso   1.000  H
  H1094    1.0000 0.40060  0.50580  0.80700  Biso   1.000  H
  H1095    1.0000 0.90060  0.49420  0.69300  Biso   1.000  H
  H1096    1.0000 0.59940  0.50580  0.69300  Biso   1.000  H
  H1097    1.0000 0.40060  0.00580  0.19300  Biso   1.000  H
  H1098    1.0000 0.90060  0.50580  0.19300  Biso   1.000  H
  H1099    1.0000 0.09940  0.99420  0.19300  Biso   1.000  H
  H1100    1.0000 0.59940  0.00580  0.30700  Biso   1.000  H
  H1101    1.0000 0.90060  0.99420  0.30700  Biso   1.000  H
  H1102    1.0000 0.59940  0.49420  0.19300  Biso   1.000  H
  H1103    1.0000 0.09940  0.50580  0.30700  Biso   1.000  H
  H1104    1.0000 0.40060  0.49420  0.30700  Biso   1.000  H
  C897     1.0000 0.54710  0.02059  0.76952  Biso   1.000  C
  C898     1.0000 0.04710  0.52059  0.76952  Biso   1.000  C
  C899     1.0000 0.95290  0.97941  0.76952  Biso   1.000  C
  C900     1.0000 0.45290  0.02059  0.73048  Biso   1.000  C
  C901     1.0000 0.04710  0.97941  0.73048  Biso   1.000  C
  C902     1.0000 0.45290  0.47941  0.76952  Biso   1.000  C
  C903     1.0000 0.95290  0.52059  0.73048  Biso   1.000  C
  C904     1.0000 0.54710  0.47941  0.73048  Biso   1.000  C
  C905     1.0000 0.45290  0.97941  0.23048  Biso   1.000  C
  C906     1.0000 0.95290  0.47941  0.23048  Biso   1.000  C
  C907     1.0000 0.04710  0.02059  0.23048  Biso   1.000  C
  C908     1.0000 0.54710  0.97941  0.26952  Biso   1.000  C
  C909     1.0000 0.95290  0.02059  0.26952  Biso   1.000  C
  C910     1.0000 0.54710  0.52059  0.23048  Biso   1.000  C
  C911     1.0000 0.04710  0.47941  0.26952  Biso   1.000  C
  C912     1.0000 0.45290  0.52059  0.26952  Biso   1.000  C
  C913     1.0000 0.50000  0.00214  0.75000  Biso   1.000  C
  C914     1.0000 0.00000  0.50214  0.75000  Biso   1.000  C
  C915     1.0000 0.00000  0.99786  0.75000  Biso   1.000  C
  C916     1.0000 0.50000  0.49786  0.75000  Biso   1.000  C
  C917     1.0000 0.50000  0.99786  0.25000  Biso   1.000  C
  C918     1.0000 0.00000  0.49786  0.25000  Biso   1.000  C
  C919     1.0000 0.00000  0.00214  0.25000  Biso   1.000  C
  C920     1.0000 0.50000  0.50214  0.25000  Biso   1.000  C
  C921     1.0000 0.50000  0.97032  0.75000  Biso   1.000  C
  C922     1.0000 0.00000  0.47032  0.75000  Biso   1.000  C
  C923     1.0000 0.00000  0.02968  0.75000  Biso   1.000  C
  C924     1.0000 0.50000  0.52968  0.75000  Biso   1.000  C
  C925     1.0000 0.50000  0.02968  0.25000  Biso   1.000  C
  C926     1.0000 0.00000  0.52968  0.25000  Biso   1.000  C
  C927     1.0000 0.00000  0.97032  0.25000  Biso   1.000  C
  C928     1.0000 0.50000  0.47032  0.25000  Biso   1.000  C
  C929     1.0000 0.44390  0.95202  0.76079  Biso   1.000  C
  C930     1.0000 0.94390  0.45202  0.76079  Biso   1.000  C
  C931     1.0000 0.05610  0.04798  0.76079  Biso   1.000  C
  C932     1.0000 0.55610  0.95202  0.73921  Biso   1.000  C
  C933     1.0000 0.94390  0.04798  0.73921  Biso   1.000  C
  C934     1.0000 0.55610  0.54798  0.76079  Biso   1.000  C
  C935     1.0000 0.05610  0.45202  0.73921  Biso   1.000  C
  C936     1.0000 0.44390  0.54798  0.73921  Biso   1.000  C
  C937     1.0000 0.55610  0.04798  0.23921  Biso   1.000  C
  C938     1.0000 0.05610  0.54798  0.23921  Biso   1.000  C
  C939     1.0000 0.94390  0.95202  0.23921  Biso   1.000  C
  C940     1.0000 0.44390  0.04798  0.26079  Biso   1.000  C
  C941     1.0000 0.05610  0.95202  0.26079  Biso   1.000  C
  C942     1.0000 0.44390  0.45202  0.23921  Biso   1.000  C
  C943     1.0000 0.94390  0.54798  0.26079  Biso   1.000  C
  C944     1.0000 0.55610  0.45202  0.26079  Biso   1.000  C
  C945     1.0000 0.37080  0.95907  0.77612  Biso   1.000  C
  C946     1.0000 0.87080  0.45907  0.77612  Biso   1.000  C
  C947     1.0000 0.12920  0.04093  0.77612  Biso   1.000  C
  C948     1.0000 0.62920  0.95907  0.72388  Biso   1.000  C
  C949     1.0000 0.87080  0.04093  0.72388  Biso   1.000  C
  C950     1.0000 0.62920  0.54093  0.77612  Biso   1.000  C
  C951     1.0000 0.12920  0.45907  0.72388  Biso   1.000  C
  C952     1.0000 0.37080  0.54093  0.72388  Biso   1.000  C
  C953     1.0000 0.62920  0.04093  0.22388  Biso   1.000  C
  C954     1.0000 0.12920  0.54093  0.22388  Biso   1.000  C
  C955     1.0000 0.87080  0.95907  0.22388  Biso   1.000  C
  C956     1.0000 0.37080  0.04093  0.27612  Biso   1.000  C
  C957     1.0000 0.12920  0.95907  0.27612  Biso   1.000  C
  C958     1.0000 0.37080  0.45907  0.22388  Biso   1.000  C
  C959     1.0000 0.87080  0.54093  0.27612  Biso   1.000  C
  C960     1.0000 0.62920  0.45907  0.27612  Biso   1.000  C
  H1105    1.0000 0.36000  0.94640  0.79790  Biso   1.000  H
  H1106    1.0000 0.86000  0.44640  0.79790  Biso   1.000  H
  H1107    1.0000 0.14000  0.05360  0.79790  Biso   1.000  H
  H1108    1.0000 0.64000  0.94640  0.70210  Biso   1.000  H
  H1109    1.0000 0.86000  0.05360  0.70210  Biso   1.000  H
  H1110    1.0000 0.64000  0.55360  0.79790  Biso   1.000  H
  H1111    1.0000 0.14000  0.44640  0.70210  Biso   1.000  H
  H1112    1.0000 0.36000  0.55360  0.70210  Biso   1.000  H
  H1113    1.0000 0.64000  0.05360  0.20210  Biso   1.000  H
  H1114    1.0000 0.14000  0.55360  0.20210  Biso   1.000  H
  H1115    1.0000 0.86000  0.94640  0.20210  Biso   1.000  H
  H1116    1.0000 0.36000  0.05360  0.29790  Biso   1.000  H
  H1117    1.0000 0.14000  0.94640  0.29790  Biso   1.000  H
  H1118    1.0000 0.36000  0.44640  0.20210  Biso   1.000  H
  H1119    1.0000 0.86000  0.55360  0.29790  Biso   1.000  H
  H1120    1.0000 0.64000  0.44640  0.29790  Biso   1.000  H
  H1121    1.0000 0.33470  0.95620  0.75600  Biso   1.000  H
  H1122    1.0000 0.83470  0.45620  0.75600  Biso   1.000  H
  H1123    1.0000 0.16530  0.04380  0.75600  Biso   1.000  H
  H1124    1.0000 0.66530  0.95620  0.74400  Biso   1.000  H
  H1125    1.0000 0.83470  0.04380  0.74400  Biso   1.000  H
  H1126    1.0000 0.66530  0.54380  0.75600  Biso   1.000  H
  H1127    1.0000 0.16530  0.45620  0.74400  Biso   1.000  H
  H1128    1.0000 0.33470  0.54380  0.74400  Biso   1.000  H
  H1129    1.0000 0.66530  0.04380  0.24400  Biso   1.000  H
  H1130    1.0000 0.16530  0.54380  0.24400  Biso   1.000  H
  H1131    1.0000 0.83470  0.95620  0.24400  Biso   1.000  H
  H1132    1.0000 0.33470  0.04380  0.25600  Biso   1.000  H
  H1133    1.0000 0.16530  0.95620  0.25600  Biso   1.000  H
  H1134    1.0000 0.33470  0.45620  0.24400  Biso   1.000  H
  H1135    1.0000 0.83470  0.54380  0.25600  Biso   1.000  H
  H1136    1.0000 0.66530  0.45620  0.25600  Biso   1.000  H
  H1137    1.0000 0.36980  0.97930  0.78460  Biso   1.000  H
  H1138    1.0000 0.86980  0.47930  0.78460  Biso   1.000  H
  H1139    1.0000 0.13020  0.02070  0.78460  Biso   1.000  H
  H1140    1.0000 0.63020  0.97930  0.71540  Biso   1.000  H
  H1141    1.0000 0.86980  0.02070  0.71540  Biso   1.000  H
  H1142    1.0000 0.63020  0.52070  0.78460  Biso   1.000  H
  H1143    1.0000 0.13020  0.47930  0.71540  Biso   1.000  H
  H1144    1.0000 0.36980  0.52070  0.71540  Biso   1.000  H
  H1145    1.0000 0.63020  0.02070  0.21540  Biso   1.000  H
  H1146    1.0000 0.13020  0.52070  0.21540  Biso   1.000  H
  H1147    1.0000 0.86980  0.97930  0.21540  Biso   1.000  H
  H1148    1.0000 0.36980  0.02070  0.28460  Biso   1.000  H
  H1149    1.0000 0.13020  0.97930  0.28460  Biso   1.000  H
  H1150    1.0000 0.36980  0.47930  0.21540  Biso   1.000  H
  H1151    1.0000 0.86980  0.52070  0.28460  Biso   1.000  H
  H1152    1.0000 0.63020  0.47930  0.28460  Biso   1.000  H
