data_image0
_cell_length_a       18.6363
_cell_length_b       46.435
_cell_length_c       34.874
_cell_angle_alpha    90
_cell_angle_beta     90
_cell_angle_gamma    90

_symmetry_space_group_name_H-M    "P 1"
_symmetry_int_tables_number       1

loop_
  _symmetry_equiv_pos_as_xyz
  'x, y, z'

loop_
  _atom_site_label
  _atom_site_occupancy
  _atom_site_fract_x
  _atom_site_fract_y
  _atom_site_fract_z
  _atom_site_thermal_displace_type
  _atom_site_B_iso_or_equiv
  _atom_site_type_symbol
  Cu1      1.0000 0.30411  0.84686  0.27256  Biso   1.000  Cu
  Cu2      1.0000 0.80411  0.34686  0.27256  Biso   1.000  Cu
  Cu3      1.0000 0.19589  0.15314  0.27256  Biso   1.000  Cu
  Cu4      1.0000 0.69589  0.84686  0.22744  Biso   1.000  Cu
  Cu5      1.0000 0.80411  0.15314  0.22744  Biso   1.000  Cu
  Cu6      1.0000 0.69589  0.65314  0.27256  Biso   1.000  Cu
  Cu7      1.0000 0.19589  0.34686  0.22744  Biso   1.000  Cu
  Cu8      1.0000 0.30411  0.65314  0.22744  Biso   1.000  Cu
  Cu9      1.0000 0.69589  0.15314  0.72744  Biso   1.000  Cu
  Cu10     1.0000 0.19589  0.65314  0.72744  Biso   1.000  Cu
  Cu11     1.0000 0.80411  0.84686  0.72744  Biso   1.000  Cu
  Cu12     1.0000 0.30411  0.15314  0.77256  Biso   1.000  Cu
  Cu13     1.0000 0.19589  0.84686  0.77256  Biso   1.000  Cu
  Cu14     1.0000 0.30411  0.34686  0.72744  Biso   1.000  Cu
  Cu15     1.0000 0.80411  0.65314  0.77256  Biso   1.000  Cu
  Cu16     1.0000 0.69589  0.34686  0.77256  Biso   1.000  Cu
  Cu17     1.0000 0.17003  0.84696  0.22053  Biso   1.000  Cu
  Cu18     1.0000 0.67003  0.34696  0.22053  Biso   1.000  Cu
  Cu19     1.0000 0.32997  0.15304  0.22053  Biso   1.000  Cu
  Cu20     1.0000 0.82997  0.84696  0.27947  Biso   1.000  Cu
  Cu21     1.0000 0.67003  0.15304  0.27947  Biso   1.000  Cu
  Cu22     1.0000 0.82997  0.65304  0.22053  Biso   1.000  Cu
  Cu23     1.0000 0.32997  0.34696  0.27947  Biso   1.000  Cu
  Cu24     1.0000 0.17003  0.65304  0.27947  Biso   1.000  Cu
  Cu25     1.0000 0.82997  0.15304  0.77947  Biso   1.000  Cu
  Cu26     1.0000 0.32997  0.65304  0.77947  Biso   1.000  Cu
  Cu27     1.0000 0.67003  0.84696  0.77947  Biso   1.000  Cu
  Cu28     1.0000 0.17003  0.15304  0.72053  Biso   1.000  Cu
  Cu29     1.0000 0.32997  0.84696  0.72053  Biso   1.000  Cu
  Cu30     1.0000 0.17003  0.34696  0.77947  Biso   1.000  Cu
  Cu31     1.0000 0.67003  0.65304  0.72053  Biso   1.000  Cu
  Cu32     1.0000 0.82997  0.34696  0.72053  Biso   1.000  Cu
  Cu33     1.0000 0.23011  0.90743  0.25550  Biso   1.000  Cu
  Cu34     1.0000 0.73011  0.40743  0.25550  Biso   1.000  Cu
  Cu35     1.0000 0.26989  0.09257  0.25550  Biso   1.000  Cu
  Cu36     1.0000 0.76989  0.90743  0.24450  Biso   1.000  Cu
  Cu37     1.0000 0.73011  0.09257  0.24450  Biso   1.000  Cu
  Cu38     1.0000 0.76989  0.59257  0.25550  Biso   1.000  Cu
  Cu39     1.0000 0.26989  0.40743  0.24450  Biso   1.000  Cu
  Cu40     1.0000 0.23011  0.59257  0.24450  Biso   1.000  Cu
  Cu41     1.0000 0.76989  0.09257  0.74450  Biso   1.000  Cu
  Cu42     1.0000 0.26989  0.59257  0.74450  Biso   1.000  Cu
  Cu43     1.0000 0.73011  0.90743  0.74450  Biso   1.000  Cu
  Cu44     1.0000 0.23011  0.09257  0.75550  Biso   1.000  Cu
  Cu45     1.0000 0.26989  0.90743  0.75550  Biso   1.000  Cu
  Cu46     1.0000 0.23011  0.40743  0.74450  Biso   1.000  Cu
  Cu47     1.0000 0.73011  0.59257  0.75550  Biso   1.000  Cu
  Cu48     1.0000 0.76989  0.40743  0.75550  Biso   1.000  Cu
  Cu49     1.0000 0.53721  0.95709  0.45488  Biso   1.000  Cu
  Cu50     1.0000 0.03721  0.45709  0.45488  Biso   1.000  Cu
  Cu51     1.0000 0.96279  0.04291  0.45488  Biso   1.000  Cu
  Cu52     1.0000 0.46279  0.95709  0.04512  Biso   1.000  Cu
  Cu53     1.0000 0.03721  0.04291  0.04512  Biso   1.000  Cu
  Cu54     1.0000 0.46279  0.54291  0.45488  Biso   1.000  Cu
  Cu55     1.0000 0.96279  0.45709  0.04512  Biso   1.000  Cu
  Cu56     1.0000 0.53721  0.54291  0.04512  Biso   1.000  Cu
  Cu57     1.0000 0.46279  0.04291  0.54512  Biso   1.000  Cu
  Cu58     1.0000 0.96279  0.54291  0.54512  Biso   1.000  Cu
  Cu59     1.0000 0.03721  0.95709  0.54512  Biso   1.000  Cu
  Cu60     1.0000 0.53721  0.04291  0.95488  Biso   1.000  Cu
  Cu61     1.0000 0.96279  0.95709  0.95488  Biso   1.000  Cu
  Cu62     1.0000 0.53721  0.45709  0.54512  Biso   1.000  Cu
  Cu63     1.0000 0.03721  0.54291  0.95488  Biso   1.000  Cu
  Cu64     1.0000 0.46279  0.45709  0.95488  Biso   1.000  Cu
  Cu65     1.0000 0.40742  0.93126  0.50011  Biso   1.000  Cu
  Cu66     1.0000 0.90742  0.43126  0.50011  Biso   1.000  Cu
  Cu67     1.0000 0.09258  0.06874  0.50011  Biso   1.000  Cu
  Cu68     1.0000 0.59258  0.93126  0.99989  Biso   1.000  Cu
  Cu69     1.0000 0.90742  0.06874  0.99989  Biso   1.000  Cu
  Cu70     1.0000 0.59258  0.56874  0.50011  Biso   1.000  Cu
  Cu71     1.0000 0.09258  0.43126  0.99989  Biso   1.000  Cu
  Cu72     1.0000 0.40742  0.56874  0.99989  Biso   1.000  Cu
  Cu73     1.0000 0.59258  0.06874  0.49989  Biso   1.000  Cu
  Cu74     1.0000 0.09258  0.56874  0.49989  Biso   1.000  Cu
  Cu75     1.0000 0.90742  0.93126  0.49989  Biso   1.000  Cu
  Cu76     1.0000 0.40742  0.06874  0.00011  Biso   1.000  Cu
  Cu77     1.0000 0.09258  0.93126  0.00011  Biso   1.000  Cu
  Cu78     1.0000 0.40742  0.43126  0.49989  Biso   1.000  Cu
  Cu79     1.0000 0.90742  0.56874  0.00011  Biso   1.000  Cu
  Cu80     1.0000 0.59258  0.43126  0.00011  Biso   1.000  Cu
  Cu81     1.0000 0.51712  0.97394  0.54373  Biso   1.000  Cu
  Cu82     1.0000 0.01712  0.47394  0.54373  Biso   1.000  Cu
  Cu83     1.0000 0.98288  0.02606  0.54373  Biso   1.000  Cu
  Cu84     1.0000 0.48288  0.97394  0.95627  Biso   1.000  Cu
  Cu85     1.0000 0.01712  0.02606  0.95627  Biso   1.000  Cu
  Cu86     1.0000 0.48288  0.52606  0.54373  Biso   1.000  Cu
  Cu87     1.0000 0.98288  0.47394  0.95627  Biso   1.000  Cu
  Cu88     1.0000 0.51712  0.52606  0.95627  Biso   1.000  Cu
  Cu89     1.0000 0.48288  0.02606  0.45627  Biso   1.000  Cu
  Cu90     1.0000 0.98288  0.52606  0.45627  Biso   1.000  Cu
  Cu91     1.0000 0.01712  0.97394  0.45627  Biso   1.000  Cu
  Cu92     1.0000 0.51712  0.02606  0.04373  Biso   1.000  Cu
  Cu93     1.0000 0.98288  0.97394  0.04373  Biso   1.000  Cu
  Cu94     1.0000 0.51712  0.47394  0.45627  Biso   1.000  Cu
  Cu95     1.0000 0.01712  0.52606  0.04373  Biso   1.000  Cu
  Cu96     1.0000 0.48288  0.47394  0.04373  Biso   1.000  Cu
  Cu97     1.0000 0.05653  0.08578  0.78103  Biso   1.000  Cu
  Cu98     1.0000 0.55653  0.58578  0.78103  Biso   1.000  Cu
  Cu99     1.0000 0.44347  0.91422  0.78103  Biso   1.000  Cu
  Cu100    1.0000 0.94347  0.08578  0.71897  Biso   1.000  Cu
  Cu101    1.0000 0.55653  0.91422  0.71897  Biso   1.000  Cu
  Cu102    1.0000 0.94347  0.41422  0.78103  Biso   1.000  Cu
  Cu103    1.0000 0.44347  0.58578  0.71897  Biso   1.000  Cu
  Cu104    1.0000 0.05653  0.41422  0.71897  Biso   1.000  Cu
  Cu105    1.0000 0.94347  0.91422  0.21897  Biso   1.000  Cu
  Cu106    1.0000 0.44347  0.41422  0.21897  Biso   1.000  Cu
  Cu107    1.0000 0.55653  0.08578  0.21897  Biso   1.000  Cu
  Cu108    1.0000 0.05653  0.91422  0.28103  Biso   1.000  Cu
  Cu109    1.0000 0.44347  0.08578  0.28103  Biso   1.000  Cu
  Cu110    1.0000 0.05653  0.58578  0.21897  Biso   1.000  Cu
  Cu111    1.0000 0.55653  0.41422  0.28103  Biso   1.000  Cu
  Cu112    1.0000 0.94347  0.58578  0.28103  Biso   1.000  Cu
  Cu113    1.0000 0.00000  0.14814  0.75000  Biso   1.000  Cu
  Cu114    1.0000 0.50000  0.64814  0.75000  Biso   1.000  Cu
  Cu115    1.0000 0.50000  0.85186  0.75000  Biso   1.000  Cu
  Cu116    1.0000 0.00000  0.35186  0.75000  Biso   1.000  Cu
  Cu117    1.0000 0.00000  0.85186  0.25000  Biso   1.000  Cu
  Cu118    1.0000 0.50000  0.35186  0.25000  Biso   1.000  Cu
  Cu119    1.0000 0.50000  0.14814  0.25000  Biso   1.000  Cu
  Cu120    1.0000 0.00000  0.64814  0.25000  Biso   1.000  Cu
  Cu121    1.0000 0.16168  0.17960  0.00008  Biso   1.000  Cu
  Cu122    1.0000 0.66168  0.67960  0.00008  Biso   1.000  Cu
  Cu123    1.0000 0.33832  0.82040  0.00008  Biso   1.000  Cu
  Cu124    1.0000 0.83832  0.17960  0.49992  Biso   1.000  Cu
  Cu125    1.0000 0.66168  0.82040  0.49992  Biso   1.000  Cu
  Cu126    1.0000 0.83832  0.32040  0.00008  Biso   1.000  Cu
  Cu127    1.0000 0.33832  0.67960  0.49992  Biso   1.000  Cu
  Cu128    1.0000 0.16168  0.32040  0.49992  Biso   1.000  Cu
  Cu129    1.0000 0.83832  0.82040  0.99992  Biso   1.000  Cu
  Cu130    1.0000 0.33832  0.32040  0.99992  Biso   1.000  Cu
  Cu131    1.0000 0.66168  0.17960  0.99992  Biso   1.000  Cu
  Cu132    1.0000 0.16168  0.82040  0.50008  Biso   1.000  Cu
  Cu133    1.0000 0.33832  0.17960  0.50008  Biso   1.000  Cu
  Cu134    1.0000 0.16168  0.67960  0.99992  Biso   1.000  Cu
  Cu135    1.0000 0.66168  0.32040  0.50008  Biso   1.000  Cu
  Cu136    1.0000 0.83832  0.67960  0.50008  Biso   1.000  Cu
  Cu137    1.0000 0.28580  0.20680  0.95232  Biso   1.000  Cu
  Cu138    1.0000 0.78580  0.70680  0.95232  Biso   1.000  Cu
  Cu139    1.0000 0.21420  0.79320  0.95232  Biso   1.000  Cu
  Cu140    1.0000 0.71420  0.20680  0.54768  Biso   1.000  Cu
  Cu141    1.0000 0.78580  0.79320  0.54768  Biso   1.000  Cu
  Cu142    1.0000 0.71420  0.29320  0.95232  Biso   1.000  Cu
  Cu143    1.0000 0.21420  0.70680  0.54768  Biso   1.000  Cu
  Cu144    1.0000 0.28580  0.29320  0.54768  Biso   1.000  Cu
  Cu145    1.0000 0.71420  0.79320  0.04768  Biso   1.000  Cu
  Cu146    1.0000 0.21420  0.29320  0.04768  Biso   1.000  Cu
  Cu147    1.0000 0.78580  0.20680  0.04768  Biso   1.000  Cu
  Cu148    1.0000 0.28580  0.79320  0.45232  Biso   1.000  Cu
  Cu149    1.0000 0.21420  0.20680  0.45232  Biso   1.000  Cu
  Cu150    1.0000 0.28580  0.70680  0.04768  Biso   1.000  Cu
  Cu151    1.0000 0.78580  0.29320  0.45232  Biso   1.000  Cu
  Cu152    1.0000 0.71420  0.70680  0.45232  Biso   1.000  Cu
  Cu153    1.0000 0.73153  0.27490  0.04072  Biso   1.000  Cu
  Cu154    1.0000 0.23153  0.77490  0.04072  Biso   1.000  Cu
  Cu155    1.0000 0.76847  0.72510  0.04072  Biso   1.000  Cu
  Cu156    1.0000 0.26847  0.27490  0.45928  Biso   1.000  Cu
  Cu157    1.0000 0.23153  0.72510  0.45928  Biso   1.000  Cu
  Cu158    1.0000 0.26847  0.22510  0.04072  Biso   1.000  Cu
  Cu159    1.0000 0.76847  0.77490  0.45928  Biso   1.000  Cu
  Cu160    1.0000 0.73153  0.22510  0.45928  Biso   1.000  Cu
  Cu161    1.0000 0.26847  0.72510  0.95928  Biso   1.000  Cu
  Cu162    1.0000 0.76847  0.22510  0.95928  Biso   1.000  Cu
  Cu163    1.0000 0.23153  0.27490  0.95928  Biso   1.000  Cu
  Cu164    1.0000 0.73153  0.72510  0.54072  Biso   1.000  Cu
  Cu165    1.0000 0.76847  0.27490  0.54072  Biso   1.000  Cu
  Cu166    1.0000 0.73153  0.77490  0.95928  Biso   1.000  Cu
  Cu167    1.0000 0.23153  0.22510  0.54072  Biso   1.000  Cu
  Cu168    1.0000 0.26847  0.77490  0.54072  Biso   1.000  Cu
  Cu169    1.0000 0.00000  0.83245  0.75000  Biso   1.000  Cu
  Cu170    1.0000 0.50000  0.33245  0.75000  Biso   1.000  Cu
  Cu171    1.0000 0.50000  0.16755  0.75000  Biso   1.000  Cu
  Cu172    1.0000 0.00000  0.66755  0.75000  Biso   1.000  Cu
  Cu173    1.0000 0.00000  0.16755  0.25000  Biso   1.000  Cu
  Cu174    1.0000 0.50000  0.66755  0.25000  Biso   1.000  Cu
  Cu175    1.0000 0.50000  0.83245  0.25000  Biso   1.000  Cu
  Cu176    1.0000 0.00000  0.33245  0.25000  Biso   1.000  Cu
  Cu177    1.0000 0.92724  0.89217  0.77248  Biso   1.000  Cu
  Cu178    1.0000 0.42724  0.39217  0.77248  Biso   1.000  Cu
  Cu179    1.0000 0.57276  0.10783  0.77248  Biso   1.000  Cu
  Cu180    1.0000 0.07276  0.89217  0.72752  Biso   1.000  Cu
  Cu181    1.0000 0.42724  0.10783  0.72752  Biso   1.000  Cu
  Cu182    1.0000 0.07276  0.60783  0.77248  Biso   1.000  Cu
  Cu183    1.0000 0.57276  0.39217  0.72752  Biso   1.000  Cu
  Cu184    1.0000 0.92724  0.60783  0.72752  Biso   1.000  Cu
  Cu185    1.0000 0.07276  0.10783  0.22752  Biso   1.000  Cu
  Cu186    1.0000 0.57276  0.60783  0.22752  Biso   1.000  Cu
  Cu187    1.0000 0.42724  0.89217  0.22752  Biso   1.000  Cu
  Cu188    1.0000 0.92724  0.10783  0.27248  Biso   1.000  Cu
  Cu189    1.0000 0.57276  0.89217  0.27248  Biso   1.000  Cu
  Cu190    1.0000 0.92724  0.39217  0.22752  Biso   1.000  Cu
  Cu191    1.0000 0.42724  0.60783  0.27248  Biso   1.000  Cu
  Cu192    1.0000 0.07276  0.39217  0.27248  Biso   1.000  Cu
  N1       1.0000 0.26894  0.81185  0.25463  Biso   1.000  N
  N2       1.0000 0.76894  0.31185  0.25463  Biso   1.000  N
  N3       1.0000 0.23106  0.18815  0.25463  Biso   1.000  N
  N4       1.0000 0.73106  0.81185  0.24537  Biso   1.000  N
  N5       1.0000 0.76894  0.18815  0.24537  Biso   1.000  N
  N6       1.0000 0.73106  0.68815  0.25463  Biso   1.000  N
  N7       1.0000 0.23106  0.31185  0.24537  Biso   1.000  N
  N8       1.0000 0.26894  0.68815  0.24537  Biso   1.000  N
  N9       1.0000 0.73106  0.18815  0.74537  Biso   1.000  N
  N10      1.0000 0.23106  0.68815  0.74537  Biso   1.000  N
  N11      1.0000 0.76894  0.81185  0.74537  Biso   1.000  N
  N12      1.0000 0.26894  0.18815  0.75463  Biso   1.000  N
  N13      1.0000 0.23106  0.81185  0.75463  Biso   1.000  N
  N14      1.0000 0.26894  0.31185  0.74537  Biso   1.000  N
  N15      1.0000 0.76894  0.68815  0.75463  Biso   1.000  N
  N16      1.0000 0.73106  0.31185  0.75463  Biso   1.000  N
  N17      1.0000 0.20482  0.81136  0.23584  Biso   1.000  N
  N18      1.0000 0.70482  0.31136  0.23584  Biso   1.000  N
  N19      1.0000 0.29518  0.18864  0.23584  Biso   1.000  N
  N20      1.0000 0.79518  0.81136  0.26416  Biso   1.000  N
  N21      1.0000 0.70482  0.18864  0.26416  Biso   1.000  N
  N22      1.0000 0.79518  0.68864  0.23584  Biso   1.000  N
  N23      1.0000 0.29518  0.31136  0.26416  Biso   1.000  N
  N24      1.0000 0.20482  0.68864  0.26416  Biso   1.000  N
  N25      1.0000 0.79518  0.18864  0.76416  Biso   1.000  N
  N26      1.0000 0.29518  0.68864  0.76416  Biso   1.000  N
  N27      1.0000 0.70482  0.81136  0.76416  Biso   1.000  N
  N28      1.0000 0.20482  0.18864  0.73584  Biso   1.000  N
  N29      1.0000 0.29518  0.81136  0.73584  Biso   1.000  N
  N30      1.0000 0.20482  0.31136  0.76416  Biso   1.000  N
  N31      1.0000 0.70482  0.68864  0.73584  Biso   1.000  N
  N32      1.0000 0.79518  0.31136  0.73584  Biso   1.000  N
  N33      1.0000 0.14820  0.88205  0.19804  Biso   1.000  N
  N34      1.0000 0.64820  0.38205  0.19804  Biso   1.000  N
  N35      1.0000 0.35180  0.11795  0.19804  Biso   1.000  N
  N36      1.0000 0.85180  0.88205  0.30196  Biso   1.000  N
  N37      1.0000 0.64820  0.11795  0.30196  Biso   1.000  N
  N38      1.0000 0.85180  0.61795  0.19804  Biso   1.000  N
  N39      1.0000 0.35180  0.38205  0.30196  Biso   1.000  N
  N40      1.0000 0.14820  0.61795  0.30196  Biso   1.000  N
  N41      1.0000 0.85180  0.11795  0.80196  Biso   1.000  N
  N42      1.0000 0.35180  0.61795  0.80196  Biso   1.000  N
  N43      1.0000 0.64820  0.88205  0.80196  Biso   1.000  N
  N44      1.0000 0.14820  0.11795  0.69804  Biso   1.000  N
  N45      1.0000 0.35180  0.88205  0.69804  Biso   1.000  N
  N46      1.0000 0.14820  0.38205  0.80196  Biso   1.000  N
  N47      1.0000 0.64820  0.61795  0.69804  Biso   1.000  N
  N48      1.0000 0.85180  0.38205  0.69804  Biso   1.000  N
  N49      1.0000 0.17395  0.90799  0.21147  Biso   1.000  N
  N50      1.0000 0.67395  0.40799  0.21147  Biso   1.000  N
  N51      1.0000 0.32605  0.09201  0.21147  Biso   1.000  N
  N52      1.0000 0.82605  0.90799  0.28853  Biso   1.000  N
  N53      1.0000 0.67395  0.09201  0.28853  Biso   1.000  N
  N54      1.0000 0.82605  0.59201  0.21147  Biso   1.000  N
  N55      1.0000 0.32605  0.40799  0.28853  Biso   1.000  N
  N56      1.0000 0.17395  0.59201  0.28853  Biso   1.000  N
  N57      1.0000 0.82605  0.09201  0.78853  Biso   1.000  N
  N58      1.0000 0.32605  0.59201  0.78853  Biso   1.000  N
  N59      1.0000 0.67395  0.90799  0.78853  Biso   1.000  N
  N60      1.0000 0.17395  0.09201  0.71147  Biso   1.000  N
  N61      1.0000 0.32605  0.90799  0.71147  Biso   1.000  N
  N62      1.0000 0.17395  0.40799  0.78853  Biso   1.000  N
  N63      1.0000 0.67395  0.59201  0.71147  Biso   1.000  N
  N64      1.0000 0.82605  0.40799  0.71147  Biso   1.000  N
  N65      1.0000 0.29321  0.90467  0.29665  Biso   1.000  N
  N66      1.0000 0.79321  0.40467  0.29665  Biso   1.000  N
  N67      1.0000 0.20679  0.09533  0.29665  Biso   1.000  N
  N68      1.0000 0.70679  0.90467  0.20335  Biso   1.000  N
  N69      1.0000 0.79321  0.09533  0.20335  Biso   1.000  N
  N70      1.0000 0.70679  0.59533  0.29665  Biso   1.000  N
  N71      1.0000 0.20679  0.40467  0.20335  Biso   1.000  N
  N72      1.0000 0.29321  0.59533  0.20335  Biso   1.000  N
  N73      1.0000 0.70679  0.09533  0.70335  Biso   1.000  N
  N74      1.0000 0.20679  0.59533  0.70335  Biso   1.000  N
  N75      1.0000 0.79321  0.90467  0.70335  Biso   1.000  N
  N76      1.0000 0.29321  0.09533  0.79665  Biso   1.000  N
  N77      1.0000 0.20679  0.90467  0.79665  Biso   1.000  N
  N78      1.0000 0.29321  0.40467  0.70335  Biso   1.000  N
  N79      1.0000 0.79321  0.59533  0.79665  Biso   1.000  N
  N80      1.0000 0.70679  0.40467  0.79665  Biso   1.000  N
  N81      1.0000 0.32950  0.87905  0.30091  Biso   1.000  N
  N82      1.0000 0.82950  0.37905  0.30091  Biso   1.000  N
  N83      1.0000 0.17050  0.12095  0.30091  Biso   1.000  N
  N84      1.0000 0.67050  0.87905  0.19909  Biso   1.000  N
  N85      1.0000 0.82950  0.12095  0.19909  Biso   1.000  N
  N86      1.0000 0.67050  0.62095  0.30091  Biso   1.000  N
  N87      1.0000 0.17050  0.37905  0.19909  Biso   1.000  N
  N88      1.0000 0.32950  0.62095  0.19909  Biso   1.000  N
  N89      1.0000 0.67050  0.12095  0.69909  Biso   1.000  N
  N90      1.0000 0.17050  0.62095  0.69909  Biso   1.000  N
  N91      1.0000 0.82950  0.87905  0.69909  Biso   1.000  N
  N92      1.0000 0.32950  0.12095  0.80091  Biso   1.000  N
  N93      1.0000 0.17050  0.87905  0.80091  Biso   1.000  N
  N94      1.0000 0.32950  0.37905  0.69909  Biso   1.000  N
  N95      1.0000 0.82950  0.62095  0.80091  Biso   1.000  N
  N96      1.0000 0.67050  0.37905  0.80091  Biso   1.000  N
  N97      1.0000 0.41260  0.92490  0.44797  Biso   1.000  N
  N98      1.0000 0.91260  0.42490  0.44797  Biso   1.000  N
  N99      1.0000 0.08740  0.07510  0.44797  Biso   1.000  N
  N100     1.0000 0.58740  0.92490  0.05203  Biso   1.000  N
  N101     1.0000 0.91260  0.07510  0.05203  Biso   1.000  N
  N102     1.0000 0.58740  0.57510  0.44797  Biso   1.000  N
  N103     1.0000 0.08740  0.42490  0.05203  Biso   1.000  N
  N104     1.0000 0.41260  0.57510  0.05203  Biso   1.000  N
  N105     1.0000 0.58740  0.07510  0.55203  Biso   1.000  N
  N106     1.0000 0.08740  0.57510  0.55203  Biso   1.000  N
  N107     1.0000 0.91260  0.92490  0.55203  Biso   1.000  N
  N108     1.0000 0.41260  0.07510  0.94797  Biso   1.000  N
  N109     1.0000 0.08740  0.92490  0.94797  Biso   1.000  N
  N110     1.0000 0.41260  0.42490  0.55203  Biso   1.000  N
  N111     1.0000 0.91260  0.57510  0.94797  Biso   1.000  N
  N112     1.0000 0.58740  0.42490  0.94797  Biso   1.000  N
  N113     1.0000 0.46776  0.93731  0.42761  Biso   1.000  N
  N114     1.0000 0.96776  0.43731  0.42761  Biso   1.000  N
  N115     1.0000 0.03224  0.06269  0.42761  Biso   1.000  N
  N116     1.0000 0.53224  0.93731  0.07239  Biso   1.000  N
  N117     1.0000 0.96776  0.06269  0.07239  Biso   1.000  N
  N118     1.0000 0.53224  0.56269  0.42761  Biso   1.000  N
  N119     1.0000 0.03224  0.43731  0.07239  Biso   1.000  N
  N120     1.0000 0.46776  0.56269  0.07239  Biso   1.000  N
  N121     1.0000 0.53224  0.06269  0.57239  Biso   1.000  N
  N122     1.0000 0.03224  0.56269  0.57239  Biso   1.000  N
  N123     1.0000 0.96776  0.93731  0.57239  Biso   1.000  N
  N124     1.0000 0.46776  0.06269  0.92761  Biso   1.000  N
  N125     1.0000 0.03224  0.93731  0.92761  Biso   1.000  N
  N126     1.0000 0.46776  0.43731  0.57239  Biso   1.000  N
  N127     1.0000 0.96776  0.56269  0.92761  Biso   1.000  N
  N128     1.0000 0.53224  0.43731  0.92761  Biso   1.000  N
  N129     1.0000 0.09760  0.93572  0.05246  Biso   1.000  N
  N130     1.0000 0.59760  0.43572  0.05246  Biso   1.000  N
  N131     1.0000 0.40240  0.06428  0.05246  Biso   1.000  N
  N132     1.0000 0.90240  0.93572  0.44754  Biso   1.000  N
  N133     1.0000 0.59760  0.06428  0.44754  Biso   1.000  N
  N134     1.0000 0.90240  0.56428  0.05246  Biso   1.000  N
  N135     1.0000 0.40240  0.43572  0.44754  Biso   1.000  N
  N136     1.0000 0.09760  0.56428  0.44754  Biso   1.000  N
  N137     1.0000 0.90240  0.06428  0.94754  Biso   1.000  N
  N138     1.0000 0.40240  0.56428  0.94754  Biso   1.000  N
  N139     1.0000 0.59760  0.93572  0.94754  Biso   1.000  N
  N140     1.0000 0.09760  0.06428  0.55246  Biso   1.000  N
  N141     1.0000 0.40240  0.93572  0.55246  Biso   1.000  N
  N142     1.0000 0.09760  0.43572  0.94754  Biso   1.000  N
  N143     1.0000 0.59760  0.56428  0.55246  Biso   1.000  N
  N144     1.0000 0.90240  0.43572  0.55246  Biso   1.000  N
  N145     1.0000 0.05364  0.95474  0.07119  Biso   1.000  N
  N146     1.0000 0.55364  0.45474  0.07119  Biso   1.000  N
  N147     1.0000 0.44636  0.04526  0.07119  Biso   1.000  N
  N148     1.0000 0.94636  0.95474  0.42881  Biso   1.000  N
  N149     1.0000 0.55364  0.04526  0.42881  Biso   1.000  N
  N150     1.0000 0.94636  0.54526  0.07119  Biso   1.000  N
  N151     1.0000 0.44636  0.45474  0.42881  Biso   1.000  N
  N152     1.0000 0.05364  0.54526  0.42881  Biso   1.000  N
  N153     1.0000 0.94636  0.04526  0.92881  Biso   1.000  N
  N154     1.0000 0.44636  0.54526  0.92881  Biso   1.000  N
  N155     1.0000 0.55364  0.95474  0.92881  Biso   1.000  N
  N156     1.0000 0.05364  0.04526  0.57119  Biso   1.000  N
  N157     1.0000 0.44636  0.95474  0.57119  Biso   1.000  N
  N158     1.0000 0.05364  0.45474  0.92881  Biso   1.000  N
  N159     1.0000 0.55364  0.54526  0.57119  Biso   1.000  N
  N160     1.0000 0.94636  0.45474  0.57119  Biso   1.000  N
  N161     1.0000 0.59864  0.98612  0.51770  Biso   1.000  N
  N162     1.0000 0.09864  0.48612  0.51770  Biso   1.000  N
  N163     1.0000 0.90136  0.01388  0.51770  Biso   1.000  N
  N164     1.0000 0.40136  0.98612  0.98230  Biso   1.000  N
  N165     1.0000 0.09864  0.01388  0.98230  Biso   1.000  N
  N166     1.0000 0.40136  0.51388  0.51770  Biso   1.000  N
  N167     1.0000 0.90136  0.48612  0.98230  Biso   1.000  N
  N168     1.0000 0.59864  0.51388  0.98230  Biso   1.000  N
  N169     1.0000 0.40136  0.01388  0.48230  Biso   1.000  N
  N170     1.0000 0.90136  0.51388  0.48230  Biso   1.000  N
  N171     1.0000 0.09864  0.98612  0.48230  Biso   1.000  N
  N172     1.0000 0.59864  0.01388  0.01770  Biso   1.000  N
  N173     1.0000 0.90136  0.98612  0.01770  Biso   1.000  N
  N174     1.0000 0.59864  0.48612  0.48230  Biso   1.000  N
  N175     1.0000 0.09864  0.51388  0.01770  Biso   1.000  N
  N176     1.0000 0.40136  0.48612  0.01770  Biso   1.000  N
  N177     1.0000 0.61020  0.97492  0.48160  Biso   1.000  N
  N178     1.0000 0.11020  0.47492  0.48160  Biso   1.000  N
  N179     1.0000 0.88980  0.02508  0.48160  Biso   1.000  N
  N180     1.0000 0.38980  0.97492  0.01840  Biso   1.000  N
  N181     1.0000 0.11020  0.02508  0.01840  Biso   1.000  N
  N182     1.0000 0.38980  0.52508  0.48160  Biso   1.000  N
  N183     1.0000 0.88980  0.47492  0.01840  Biso   1.000  N
  N184     1.0000 0.61020  0.52508  0.01840  Biso   1.000  N
  N185     1.0000 0.38980  0.02508  0.51840  Biso   1.000  N
  N186     1.0000 0.88980  0.52508  0.51840  Biso   1.000  N
  N187     1.0000 0.11020  0.97492  0.51840  Biso   1.000  N
  N188     1.0000 0.61020  0.02508  0.98160  Biso   1.000  N
  N189     1.0000 0.88980  0.97492  0.98160  Biso   1.000  N
  N190     1.0000 0.61020  0.47492  0.51840  Biso   1.000  N
  N191     1.0000 0.11020  0.52508  0.98160  Biso   1.000  N
  N192     1.0000 0.38980  0.47492  0.98160  Biso   1.000  N
  N193     1.0000 0.02977  0.05027  0.76138  Biso   1.000  N
  N194     1.0000 0.52977  0.55027  0.76138  Biso   1.000  N
  N195     1.0000 0.47023  0.94973  0.76138  Biso   1.000  N
  N196     1.0000 0.97023  0.05027  0.73862  Biso   1.000  N
  N197     1.0000 0.52977  0.94973  0.73862  Biso   1.000  N
  N198     1.0000 0.97023  0.44973  0.76138  Biso   1.000  N
  N199     1.0000 0.47023  0.55027  0.73862  Biso   1.000  N
  N200     1.0000 0.02977  0.44973  0.73862  Biso   1.000  N
  N201     1.0000 0.97023  0.94973  0.23862  Biso   1.000  N
  N202     1.0000 0.47023  0.44973  0.23862  Biso   1.000  N
  N203     1.0000 0.52977  0.05027  0.23862  Biso   1.000  N
  N204     1.0000 0.02977  0.94973  0.26138  Biso   1.000  N
  N205     1.0000 0.47023  0.05027  0.26138  Biso   1.000  N
  N206     1.0000 0.02977  0.55027  0.23862  Biso   1.000  N
  N207     1.0000 0.52977  0.44973  0.26138  Biso   1.000  N
  N208     1.0000 0.97023  0.55027  0.26138  Biso   1.000  N
  N209     1.0000 0.07540  0.11957  0.80709  Biso   1.000  N
  N210     1.0000 0.57540  0.61957  0.80709  Biso   1.000  N
  N211     1.0000 0.42460  0.88043  0.80709  Biso   1.000  N
  N212     1.0000 0.92460  0.11957  0.69291  Biso   1.000  N
  N213     1.0000 0.57540  0.88043  0.69291  Biso   1.000  N
  N214     1.0000 0.92460  0.38043  0.80709  Biso   1.000  N
  N215     1.0000 0.42460  0.61957  0.69291  Biso   1.000  N
  N216     1.0000 0.07540  0.38043  0.69291  Biso   1.000  N
  N217     1.0000 0.92460  0.88043  0.19291  Biso   1.000  N
  N218     1.0000 0.42460  0.38043  0.19291  Biso   1.000  N
  N219     1.0000 0.57540  0.11957  0.19291  Biso   1.000  N
  N220     1.0000 0.07540  0.88043  0.30709  Biso   1.000  N
  N221     1.0000 0.42460  0.11957  0.30709  Biso   1.000  N
  N222     1.0000 0.07540  0.61957  0.19291  Biso   1.000  N
  N223     1.0000 0.57540  0.38043  0.30709  Biso   1.000  N
  N224     1.0000 0.92460  0.61957  0.30709  Biso   1.000  N
  N225     1.0000 0.05799  0.14657  0.79386  Biso   1.000  N
  N226     1.0000 0.55799  0.64657  0.79386  Biso   1.000  N
  N227     1.0000 0.44201  0.85343  0.79386  Biso   1.000  N
  N228     1.0000 0.94201  0.14657  0.70614  Biso   1.000  N
  N229     1.0000 0.55799  0.85343  0.70614  Biso   1.000  N
  N230     1.0000 0.94201  0.35343  0.79386  Biso   1.000  N
  N231     1.0000 0.44201  0.64657  0.70614  Biso   1.000  N
  N232     1.0000 0.05799  0.35343  0.70614  Biso   1.000  N
  N233     1.0000 0.94201  0.85343  0.20614  Biso   1.000  N
  N234     1.0000 0.44201  0.35343  0.20614  Biso   1.000  N
  N235     1.0000 0.55799  0.14657  0.20614  Biso   1.000  N
  N236     1.0000 0.05799  0.85343  0.29386  Biso   1.000  N
  N237     1.0000 0.44201  0.14657  0.29386  Biso   1.000  N
  N238     1.0000 0.05799  0.64657  0.20614  Biso   1.000  N
  N239     1.0000 0.55799  0.35343  0.29386  Biso   1.000  N
  N240     1.0000 0.94201  0.64657  0.29386  Biso   1.000  N
  N241     1.0000 0.16420  0.17255  0.94818  Biso   1.000  N
  N242     1.0000 0.66420  0.67255  0.94818  Biso   1.000  N
  N243     1.0000 0.33580  0.82745  0.94818  Biso   1.000  N
  N244     1.0000 0.83580  0.17255  0.55182  Biso   1.000  N
  N245     1.0000 0.66420  0.82745  0.55182  Biso   1.000  N
  N246     1.0000 0.83580  0.32745  0.94818  Biso   1.000  N
  N247     1.0000 0.33580  0.67255  0.55182  Biso   1.000  N
  N248     1.0000 0.16420  0.32745  0.55182  Biso   1.000  N
  N249     1.0000 0.83580  0.82745  0.05182  Biso   1.000  N
  N250     1.0000 0.33580  0.32745  0.05182  Biso   1.000  N
  N251     1.0000 0.66420  0.17255  0.05182  Biso   1.000  N
  N252     1.0000 0.16420  0.82745  0.44818  Biso   1.000  N
  N253     1.0000 0.33580  0.17255  0.44818  Biso   1.000  N
  N254     1.0000 0.16420  0.67255  0.05182  Biso   1.000  N
  N255     1.0000 0.66420  0.32745  0.44818  Biso   1.000  N
  N256     1.0000 0.83580  0.67255  0.44818  Biso   1.000  N
  N257     1.0000 0.21629  0.18577  0.92668  Biso   1.000  N
  N258     1.0000 0.71629  0.68577  0.92668  Biso   1.000  N
  N259     1.0000 0.28371  0.81423  0.92668  Biso   1.000  N
  N260     1.0000 0.78371  0.18577  0.57332  Biso   1.000  N
  N261     1.0000 0.71629  0.81423  0.57332  Biso   1.000  N
  N262     1.0000 0.78371  0.31423  0.92668  Biso   1.000  N
  N263     1.0000 0.28371  0.68577  0.57332  Biso   1.000  N
  N264     1.0000 0.21629  0.31423  0.57332  Biso   1.000  N
  N265     1.0000 0.78371  0.81423  0.07332  Biso   1.000  N
  N266     1.0000 0.28371  0.31423  0.07332  Biso   1.000  N
  N267     1.0000 0.71629  0.18577  0.07332  Biso   1.000  N
  N268     1.0000 0.21629  0.81423  0.42668  Biso   1.000  N
  N269     1.0000 0.28371  0.18577  0.42668  Biso   1.000  N
  N270     1.0000 0.21629  0.68577  0.07332  Biso   1.000  N
  N271     1.0000 0.71629  0.31423  0.42668  Biso   1.000  N
  N272     1.0000 0.78371  0.68577  0.42668  Biso   1.000  N
  N273     1.0000 0.35930  0.22551  0.97776  Biso   1.000  N
  N274     1.0000 0.85930  0.72551  0.97776  Biso   1.000  N
  N275     1.0000 0.14070  0.77449  0.97776  Biso   1.000  N
  N276     1.0000 0.64070  0.22551  0.52224  Biso   1.000  N
  N277     1.0000 0.85930  0.77449  0.52224  Biso   1.000  N
  N278     1.0000 0.64070  0.27449  0.97776  Biso   1.000  N
  N279     1.0000 0.14070  0.72551  0.52224  Biso   1.000  N
  N280     1.0000 0.35930  0.27449  0.52224  Biso   1.000  N
  N281     1.0000 0.64070  0.77449  0.02224  Biso   1.000  N
  N282     1.0000 0.14070  0.27449  0.02224  Biso   1.000  N
  N283     1.0000 0.85930  0.22551  0.02224  Biso   1.000  N
  N284     1.0000 0.35930  0.77449  0.47776  Biso   1.000  N
  N285     1.0000 0.14070  0.22551  0.47776  Biso   1.000  N
  N286     1.0000 0.35930  0.72551  0.02224  Biso   1.000  N
  N287     1.0000 0.85930  0.27449  0.47776  Biso   1.000  N
  N288     1.0000 0.64070  0.72551  0.47776  Biso   1.000  N
  N289     1.0000 0.34871  0.23709  0.01354  Biso   1.000  N
  N290     1.0000 0.84871  0.73709  0.01354  Biso   1.000  N
  N291     1.0000 0.15129  0.76291  0.01354  Biso   1.000  N
  N292     1.0000 0.65129  0.23709  0.48646  Biso   1.000  N
  N293     1.0000 0.84871  0.76291  0.48646  Biso   1.000  N
  N294     1.0000 0.65129  0.26291  0.01354  Biso   1.000  N
  N295     1.0000 0.15129  0.73709  0.48646  Biso   1.000  N
  N296     1.0000 0.34871  0.26291  0.48646  Biso   1.000  N
  N297     1.0000 0.65129  0.76291  0.98646  Biso   1.000  N
  N298     1.0000 0.15129  0.26291  0.98646  Biso   1.000  N
  N299     1.0000 0.84871  0.23709  0.98646  Biso   1.000  N
  N300     1.0000 0.34871  0.76291  0.51354  Biso   1.000  N
  N301     1.0000 0.15129  0.23709  0.51354  Biso   1.000  N
  N302     1.0000 0.34871  0.73709  0.98646  Biso   1.000  N
  N303     1.0000 0.84871  0.26291  0.51354  Biso   1.000  N
  N304     1.0000 0.65129  0.73709  0.51354  Biso   1.000  N
  N305     1.0000 0.80000  0.79420  0.93052  Biso   1.000  N
  N306     1.0000 0.30000  0.29420  0.93052  Biso   1.000  N
  N307     1.0000 0.70000  0.20580  0.93052  Biso   1.000  N
  N308     1.0000 0.20000  0.79420  0.56948  Biso   1.000  N
  N309     1.0000 0.30000  0.20580  0.56948  Biso   1.000  N
  N310     1.0000 0.20000  0.70580  0.93052  Biso   1.000  N
  N311     1.0000 0.70000  0.29420  0.56948  Biso   1.000  N
  N312     1.0000 0.80000  0.70580  0.56948  Biso   1.000  N
  N313     1.0000 0.20000  0.20580  0.06948  Biso   1.000  N
  N314     1.0000 0.70000  0.70580  0.06948  Biso   1.000  N
  N315     1.0000 0.30000  0.79420  0.06948  Biso   1.000  N
  N316     1.0000 0.80000  0.20580  0.43052  Biso   1.000  N
  N317     1.0000 0.70000  0.79420  0.43052  Biso   1.000  N
  N318     1.0000 0.80000  0.29420  0.06948  Biso   1.000  N
  N319     1.0000 0.30000  0.70580  0.43052  Biso   1.000  N
  N320     1.0000 0.20000  0.29420  0.43052  Biso   1.000  N
  N321     1.0000 0.84150  0.81456  0.94787  Biso   1.000  N
  N322     1.0000 0.34150  0.31456  0.94787  Biso   1.000  N
  N323     1.0000 0.65850  0.18544  0.94787  Biso   1.000  N
  N324     1.0000 0.15850  0.81456  0.55213  Biso   1.000  N
  N325     1.0000 0.34150  0.18544  0.55213  Biso   1.000  N
  N326     1.0000 0.15850  0.68544  0.94787  Biso   1.000  N
  N327     1.0000 0.65850  0.31456  0.55213  Biso   1.000  N
  N328     1.0000 0.84150  0.68544  0.55213  Biso   1.000  N
  N329     1.0000 0.15850  0.18544  0.05213  Biso   1.000  N
  N330     1.0000 0.65850  0.68544  0.05213  Biso   1.000  N
  N331     1.0000 0.34150  0.81456  0.05213  Biso   1.000  N
  N332     1.0000 0.84150  0.18544  0.44787  Biso   1.000  N
  N333     1.0000 0.65850  0.81456  0.44787  Biso   1.000  N
  N334     1.0000 0.84150  0.31456  0.05213  Biso   1.000  N
  N335     1.0000 0.34150  0.68544  0.44787  Biso   1.000  N
  N336     1.0000 0.15850  0.31456  0.44787  Biso   1.000  N
  N337     1.0000 0.93724  0.83336  0.79099  Biso   1.000  N
  N338     1.0000 0.43724  0.33336  0.79099  Biso   1.000  N
  N339     1.0000 0.56276  0.16664  0.79099  Biso   1.000  N
  N340     1.0000 0.06276  0.83336  0.70901  Biso   1.000  N
  N341     1.0000 0.43724  0.16664  0.70901  Biso   1.000  N
  N342     1.0000 0.06276  0.66664  0.79099  Biso   1.000  N
  N343     1.0000 0.56276  0.33336  0.70901  Biso   1.000  N
  N344     1.0000 0.93724  0.66664  0.70901  Biso   1.000  N
  N345     1.0000 0.06276  0.16664  0.20901  Biso   1.000  N
  N346     1.0000 0.56276  0.66664  0.20901  Biso   1.000  N
  N347     1.0000 0.43724  0.83336  0.20901  Biso   1.000  N
  N348     1.0000 0.93724  0.16664  0.29099  Biso   1.000  N
  N349     1.0000 0.56276  0.83336  0.29099  Biso   1.000  N
  N350     1.0000 0.93724  0.33336  0.20901  Biso   1.000  N
  N351     1.0000 0.43724  0.66664  0.29099  Biso   1.000  N
  N352     1.0000 0.06276  0.33336  0.29099  Biso   1.000  N
  N353     1.0000 0.90083  0.85870  0.79754  Biso   1.000  N
  N354     1.0000 0.40083  0.35870  0.79754  Biso   1.000  N
  N355     1.0000 0.59917  0.14130  0.79754  Biso   1.000  N
  N356     1.0000 0.09917  0.85870  0.70246  Biso   1.000  N
  N357     1.0000 0.40083  0.14130  0.70246  Biso   1.000  N
  N358     1.0000 0.09917  0.64130  0.79754  Biso   1.000  N
  N359     1.0000 0.59917  0.35870  0.70246  Biso   1.000  N
  N360     1.0000 0.90083  0.64130  0.70246  Biso   1.000  N
  N361     1.0000 0.09917  0.14130  0.20246  Biso   1.000  N
  N362     1.0000 0.59917  0.64130  0.20246  Biso   1.000  N
  N363     1.0000 0.40083  0.85870  0.20246  Biso   1.000  N
  N364     1.0000 0.90083  0.14130  0.29754  Biso   1.000  N
  N365     1.0000 0.59917  0.85870  0.29754  Biso   1.000  N
  N366     1.0000 0.90083  0.35870  0.20246  Biso   1.000  N
  N367     1.0000 0.40083  0.64130  0.29754  Biso   1.000  N
  N368     1.0000 0.09917  0.35870  0.29754  Biso   1.000  N
  N369     1.0000 0.96566  0.92697  0.75726  Biso   1.000  N
  N370     1.0000 0.46566  0.42697  0.75726  Biso   1.000  N
  N371     1.0000 0.53434  0.07303  0.75726  Biso   1.000  N
  N372     1.0000 0.03434  0.92697  0.74274  Biso   1.000  N
  N373     1.0000 0.46566  0.07303  0.74274  Biso   1.000  N
  N374     1.0000 0.03434  0.57303  0.75726  Biso   1.000  N
  N375     1.0000 0.53434  0.42697  0.74274  Biso   1.000  N
  N376     1.0000 0.96566  0.57303  0.74274  Biso   1.000  N
  N377     1.0000 0.03434  0.07303  0.24274  Biso   1.000  N
  N378     1.0000 0.53434  0.57303  0.24274  Biso   1.000  N
  N379     1.0000 0.46566  0.92697  0.24274  Biso   1.000  N
  N380     1.0000 0.96566  0.07303  0.25726  Biso   1.000  N
  N381     1.0000 0.53434  0.92697  0.25726  Biso   1.000  N
  N382     1.0000 0.96566  0.42697  0.24274  Biso   1.000  N
  N383     1.0000 0.46566  0.57303  0.25726  Biso   1.000  N
  N384     1.0000 0.03434  0.42697  0.25726  Biso   1.000  N
  C1       1.0000 0.35590  0.77811  0.28356  Biso   1.000  C
  C2       1.0000 0.85590  0.27811  0.28356  Biso   1.000  C
  C3       1.0000 0.14410  0.22189  0.28356  Biso   1.000  C
  C4       1.0000 0.64410  0.77811  0.21644  Biso   1.000  C
  C5       1.0000 0.85590  0.22189  0.21644  Biso   1.000  C
  C6       1.0000 0.64410  0.72189  0.28356  Biso   1.000  C
  C7       1.0000 0.14410  0.27811  0.21644  Biso   1.000  C
  C8       1.0000 0.35590  0.72189  0.21644  Biso   1.000  C
  C9       1.0000 0.64410  0.22189  0.71644  Biso   1.000  C
  C10      1.0000 0.14410  0.72189  0.71644  Biso   1.000  C
  C11      1.0000 0.85590  0.77811  0.71644  Biso   1.000  C
  C12      1.0000 0.35590  0.22189  0.78356  Biso   1.000  C
  C13      1.0000 0.14410  0.77811  0.78356  Biso   1.000  C
  C14      1.0000 0.35590  0.27811  0.71644  Biso   1.000  C
  C15      1.0000 0.85590  0.72189  0.78356  Biso   1.000  C
  C16      1.0000 0.64410  0.27811  0.78356  Biso   1.000  C
  H1       1.0000 0.36490  0.79300  0.30200  Biso   1.000  H
  H2       1.0000 0.86490  0.29300  0.30200  Biso   1.000  H
  H3       1.0000 0.13510  0.20700  0.30200  Biso   1.000  H
  H4       1.0000 0.63510  0.79300  0.19800  Biso   1.000  H
  H5       1.0000 0.86490  0.20700  0.19800  Biso   1.000  H
  H6       1.0000 0.63510  0.70700  0.30200  Biso   1.000  H
  H7       1.0000 0.13510  0.29300  0.19800  Biso   1.000  H
  H8       1.0000 0.36490  0.70700  0.19800  Biso   1.000  H
  H9       1.0000 0.63510  0.20700  0.69800  Biso   1.000  H
  H10      1.0000 0.13510  0.70700  0.69800  Biso   1.000  H
  H11      1.0000 0.86490  0.79300  0.69800  Biso   1.000  H
  H12      1.0000 0.36490  0.20700  0.80200  Biso   1.000  H
  H13      1.0000 0.13510  0.79300  0.80200  Biso   1.000  H
  H14      1.0000 0.36490  0.29300  0.69800  Biso   1.000  H
  H15      1.0000 0.86490  0.70700  0.80200  Biso   1.000  H
  H16      1.0000 0.63510  0.29300  0.80200  Biso   1.000  H
  H17      1.0000 0.39500  0.77720  0.26570  Biso   1.000  H
  H18      1.0000 0.89500  0.27720  0.26570  Biso   1.000  H
  H19      1.0000 0.10500  0.22280  0.26570  Biso   1.000  H
  H20      1.0000 0.60500  0.77720  0.23430  Biso   1.000  H
  H21      1.0000 0.89500  0.22280  0.23430  Biso   1.000  H
  H22      1.0000 0.60500  0.72280  0.26570  Biso   1.000  H
  H23      1.0000 0.10500  0.27720  0.23430  Biso   1.000  H
  H24      1.0000 0.39500  0.72280  0.23430  Biso   1.000  H
  H25      1.0000 0.60500  0.22280  0.73430  Biso   1.000  H
  H26      1.0000 0.10500  0.72280  0.73430  Biso   1.000  H
  H27      1.0000 0.89500  0.77720  0.73430  Biso   1.000  H
  H28      1.0000 0.39500  0.22280  0.76570  Biso   1.000  H
  H29      1.0000 0.10500  0.77720  0.76570  Biso   1.000  H
  H30      1.0000 0.39500  0.27720  0.73430  Biso   1.000  H
  H31      1.0000 0.89500  0.72280  0.76570  Biso   1.000  H
  H32      1.0000 0.60500  0.27720  0.76570  Biso   1.000  H
  H33      1.0000 0.35130  0.76000  0.29650  Biso   1.000  H
  H34      1.0000 0.85130  0.26000  0.29650  Biso   1.000  H
  H35      1.0000 0.14870  0.24000  0.29650  Biso   1.000  H
  H36      1.0000 0.64870  0.76000  0.20350  Biso   1.000  H
  H37      1.0000 0.85130  0.24000  0.20350  Biso   1.000  H
  H38      1.0000 0.64870  0.74000  0.29650  Biso   1.000  H
  H39      1.0000 0.14870  0.26000  0.20350  Biso   1.000  H
  H40      1.0000 0.35130  0.74000  0.20350  Biso   1.000  H
  H41      1.0000 0.64870  0.24000  0.70350  Biso   1.000  H
  H42      1.0000 0.14870  0.74000  0.70350  Biso   1.000  H
  H43      1.0000 0.85130  0.76000  0.70350  Biso   1.000  H
  H44      1.0000 0.35130  0.24000  0.79650  Biso   1.000  H
  H45      1.0000 0.14870  0.76000  0.79650  Biso   1.000  H
  H46      1.0000 0.35130  0.26000  0.70350  Biso   1.000  H
  H47      1.0000 0.85130  0.74000  0.79650  Biso   1.000  H
  H48      1.0000 0.64870  0.26000  0.79650  Biso   1.000  H
  C17      1.0000 0.28770  0.78465  0.26242  Biso   1.000  C
  C18      1.0000 0.78770  0.28465  0.26242  Biso   1.000  C
  C19      1.0000 0.21230  0.21535  0.26242  Biso   1.000  C
  C20      1.0000 0.71230  0.78465  0.23758  Biso   1.000  C
  C21      1.0000 0.78770  0.21535  0.23758  Biso   1.000  C
  C22      1.0000 0.71230  0.71535  0.26242  Biso   1.000  C
  C23      1.0000 0.21230  0.28465  0.23758  Biso   1.000  C
  C24      1.0000 0.28770  0.71535  0.23758  Biso   1.000  C
  C25      1.0000 0.71230  0.21535  0.73758  Biso   1.000  C
  C26      1.0000 0.21230  0.71535  0.73758  Biso   1.000  C
  C27      1.0000 0.78770  0.78465  0.73758  Biso   1.000  C
  C28      1.0000 0.28770  0.21535  0.76242  Biso   1.000  C
  C29      1.0000 0.21230  0.78465  0.76242  Biso   1.000  C
  C30      1.0000 0.28770  0.28465  0.73758  Biso   1.000  C
  C31      1.0000 0.78770  0.71535  0.76242  Biso   1.000  C
  C32      1.0000 0.71230  0.28465  0.76242  Biso   1.000  C
  C33      1.0000 0.23600  0.76595  0.24884  Biso   1.000  C
  C34      1.0000 0.73600  0.26595  0.24884  Biso   1.000  C
  C35      1.0000 0.26400  0.23405  0.24884  Biso   1.000  C
  C36      1.0000 0.76400  0.76595  0.25116  Biso   1.000  C
  C37      1.0000 0.73600  0.23405  0.25116  Biso   1.000  C
  C38      1.0000 0.76400  0.73405  0.24884  Biso   1.000  C
  C39      1.0000 0.26400  0.26595  0.25116  Biso   1.000  C
  C40      1.0000 0.23600  0.73405  0.25116  Biso   1.000  C
  C41      1.0000 0.76400  0.23405  0.75116  Biso   1.000  C
  C42      1.0000 0.26400  0.73405  0.75116  Biso   1.000  C
  C43      1.0000 0.73600  0.76595  0.75116  Biso   1.000  C
  C44      1.0000 0.23600  0.23405  0.74884  Biso   1.000  C
  C45      1.0000 0.26400  0.76595  0.74884  Biso   1.000  C
  C46      1.0000 0.23600  0.26595  0.75116  Biso   1.000  C
  C47      1.0000 0.73600  0.73405  0.74884  Biso   1.000  C
  C48      1.0000 0.76400  0.26595  0.74884  Biso   1.000  C
  C49      1.0000 0.18470  0.78366  0.23192  Biso   1.000  C
  C50      1.0000 0.68470  0.28366  0.23192  Biso   1.000  C
  C51      1.0000 0.31530  0.21634  0.23192  Biso   1.000  C
  C52      1.0000 0.81530  0.78366  0.26808  Biso   1.000  C
  C53      1.0000 0.68470  0.21634  0.26808  Biso   1.000  C
  C54      1.0000 0.81530  0.71634  0.23192  Biso   1.000  C
  C55      1.0000 0.31530  0.28366  0.26808  Biso   1.000  C
  C56      1.0000 0.18470  0.71634  0.26808  Biso   1.000  C
  C57      1.0000 0.81530  0.21634  0.76808  Biso   1.000  C
  C58      1.0000 0.31530  0.71634  0.76808  Biso   1.000  C
  C59      1.0000 0.68470  0.78366  0.76808  Biso   1.000  C
  C60      1.0000 0.18470  0.21634  0.73192  Biso   1.000  C
  C61      1.0000 0.31530  0.78366  0.73192  Biso   1.000  C
  C62      1.0000 0.18470  0.28366  0.76808  Biso   1.000  C
  C63      1.0000 0.68470  0.71634  0.73192  Biso   1.000  C
  C64      1.0000 0.81530  0.28366  0.73192  Biso   1.000  C
  C65      1.0000 0.11790  0.77612  0.21048  Biso   1.000  C
  C66      1.0000 0.61790  0.27612  0.21048  Biso   1.000  C
  C67      1.0000 0.38210  0.22388  0.21048  Biso   1.000  C
  C68      1.0000 0.88210  0.77612  0.28952  Biso   1.000  C
  C69      1.0000 0.61790  0.22388  0.28952  Biso   1.000  C
  C70      1.0000 0.88210  0.72388  0.21048  Biso   1.000  C
  C71      1.0000 0.38210  0.27612  0.28952  Biso   1.000  C
  C72      1.0000 0.11790  0.72388  0.28952  Biso   1.000  C
  C73      1.0000 0.88210  0.22388  0.78952  Biso   1.000  C
  C74      1.0000 0.38210  0.72388  0.78952  Biso   1.000  C
  C75      1.0000 0.61790  0.77612  0.78952  Biso   1.000  C
  C76      1.0000 0.11790  0.22388  0.71048  Biso   1.000  C
  C77      1.0000 0.38210  0.77612  0.71048  Biso   1.000  C
  C78      1.0000 0.11790  0.27612  0.78952  Biso   1.000  C
  C79      1.0000 0.61790  0.72388  0.71048  Biso   1.000  C
  C80      1.0000 0.88210  0.27612  0.71048  Biso   1.000  C
  H49      1.0000 0.10810  0.79070  0.19170  Biso   1.000  H
  H50      1.0000 0.60810  0.29070  0.19170  Biso   1.000  H
  H51      1.0000 0.39190  0.20930  0.19170  Biso   1.000  H
  H52      1.0000 0.89190  0.79070  0.30830  Biso   1.000  H
  H53      1.0000 0.60810  0.20930  0.30830  Biso   1.000  H
  H54      1.0000 0.89190  0.70930  0.19170  Biso   1.000  H
  H55      1.0000 0.39190  0.29070  0.30830  Biso   1.000  H
  H56      1.0000 0.10810  0.70930  0.30830  Biso   1.000  H
  H57      1.0000 0.89190  0.20930  0.80830  Biso   1.000  H
  H58      1.0000 0.39190  0.70930  0.80830  Biso   1.000  H
  H59      1.0000 0.60810  0.79070  0.80830  Biso   1.000  H
  H60      1.0000 0.10810  0.20930  0.69170  Biso   1.000  H
  H61      1.0000 0.39190  0.79070  0.69170  Biso   1.000  H
  H62      1.0000 0.10810  0.29070  0.80830  Biso   1.000  H
  H63      1.0000 0.60810  0.70930  0.69170  Biso   1.000  H
  H64      1.0000 0.89190  0.29070  0.69170  Biso   1.000  H
  H65      1.0000 0.07840  0.77490  0.22810  Biso   1.000  H
  H66      1.0000 0.57840  0.27490  0.22810  Biso   1.000  H
  H67      1.0000 0.42160  0.22510  0.22810  Biso   1.000  H
  H68      1.0000 0.92160  0.77490  0.27190  Biso   1.000  H
  H69      1.0000 0.57840  0.22510  0.27190  Biso   1.000  H
  H70      1.0000 0.92160  0.72510  0.22810  Biso   1.000  H
  H71      1.0000 0.42160  0.27490  0.27190  Biso   1.000  H
  H72      1.0000 0.07840  0.72510  0.27190  Biso   1.000  H
  H73      1.0000 0.92160  0.22510  0.77190  Biso   1.000  H
  H74      1.0000 0.42160  0.72510  0.77190  Biso   1.000  H
  H75      1.0000 0.57840  0.77490  0.77190  Biso   1.000  H
  H76      1.0000 0.07840  0.22510  0.72810  Biso   1.000  H
  H77      1.0000 0.42160  0.77490  0.72810  Biso   1.000  H
  H78      1.0000 0.07840  0.27490  0.77190  Biso   1.000  H
  H79      1.0000 0.57840  0.72510  0.72810  Biso   1.000  H
  H80      1.0000 0.92160  0.27490  0.72810  Biso   1.000  H
  H81      1.0000 0.12410  0.75790  0.19790  Biso   1.000  H
  H82      1.0000 0.62410  0.25790  0.19790  Biso   1.000  H
  H83      1.0000 0.37590  0.24210  0.19790  Biso   1.000  H
  H84      1.0000 0.87590  0.75790  0.30210  Biso   1.000  H
  H85      1.0000 0.62410  0.24210  0.30210  Biso   1.000  H
  H86      1.0000 0.87590  0.74210  0.19790  Biso   1.000  H
  H87      1.0000 0.37590  0.25790  0.30210  Biso   1.000  H
  H88      1.0000 0.12410  0.74210  0.30210  Biso   1.000  H
  H89      1.0000 0.87590  0.24210  0.80210  Biso   1.000  H
  H90      1.0000 0.37590  0.74210  0.80210  Biso   1.000  H
  H91      1.0000 0.62410  0.75790  0.80210  Biso   1.000  H
  H92      1.0000 0.12410  0.24210  0.69790  Biso   1.000  H
  H93      1.0000 0.37590  0.75790  0.69790  Biso   1.000  H
  H94      1.0000 0.12410  0.25790  0.80210  Biso   1.000  H
  H95      1.0000 0.62410  0.74210  0.69790  Biso   1.000  H
  H96      1.0000 0.87590  0.25790  0.69790  Biso   1.000  H
  C81      1.0000 0.08940  0.86198  0.14090  Biso   1.000  C
  C82      1.0000 0.58940  0.36198  0.14090  Biso   1.000  C
  C83      1.0000 0.41060  0.13802  0.14090  Biso   1.000  C
  C84      1.0000 0.91060  0.86198  0.35910  Biso   1.000  C
  C85      1.0000 0.58940  0.13802  0.35910  Biso   1.000  C
  C86      1.0000 0.91060  0.63802  0.14090  Biso   1.000  C
  C87      1.0000 0.41060  0.36198  0.35910  Biso   1.000  C
  C88      1.0000 0.08940  0.63802  0.35910  Biso   1.000  C
  C89      1.0000 0.91060  0.13802  0.85910  Biso   1.000  C
  C90      1.0000 0.41060  0.63802  0.85910  Biso   1.000  C
  C91      1.0000 0.58940  0.86198  0.85910  Biso   1.000  C
  C92      1.0000 0.08940  0.13802  0.64090  Biso   1.000  C
  C93      1.0000 0.41060  0.86198  0.64090  Biso   1.000  C
  C94      1.0000 0.08940  0.36198  0.85910  Biso   1.000  C
  C95      1.0000 0.58940  0.63802  0.64090  Biso   1.000  C
  C96      1.0000 0.91060  0.36198  0.64090  Biso   1.000  C
  H97      1.0000 0.05720  0.85160  0.15740  Biso   1.000  H
  H98      1.0000 0.55720  0.35160  0.15740  Biso   1.000  H
  H99      1.0000 0.44280  0.14840  0.15740  Biso   1.000  H
  H100     1.0000 0.94280  0.85160  0.34260  Biso   1.000  H
  H101     1.0000 0.55720  0.14840  0.34260  Biso   1.000  H
  H102     1.0000 0.94280  0.64840  0.15740  Biso   1.000  H
  H103     1.0000 0.44280  0.35160  0.34260  Biso   1.000  H
  H104     1.0000 0.05720  0.64840  0.34260  Biso   1.000  H
  H105     1.0000 0.94280  0.14840  0.84260  Biso   1.000  H
  H106     1.0000 0.44280  0.64840  0.84260  Biso   1.000  H
  H107     1.0000 0.55720  0.85160  0.84260  Biso   1.000  H
  H108     1.0000 0.05720  0.14840  0.65740  Biso   1.000  H
  H109     1.0000 0.44280  0.85160  0.65740  Biso   1.000  H
  H110     1.0000 0.05720  0.35160  0.84260  Biso   1.000  H
  H111     1.0000 0.55720  0.64840  0.65740  Biso   1.000  H
  H112     1.0000 0.94280  0.35160  0.65740  Biso   1.000  H
  H113     1.0000 0.12640  0.84920  0.13190  Biso   1.000  H
  H114     1.0000 0.62640  0.34920  0.13190  Biso   1.000  H
  H115     1.0000 0.37360  0.15080  0.13190  Biso   1.000  H
  H116     1.0000 0.87360  0.84920  0.36810  Biso   1.000  H
  H117     1.0000 0.62640  0.15080  0.36810  Biso   1.000  H
  H118     1.0000 0.87360  0.65080  0.13190  Biso   1.000  H
  H119     1.0000 0.37360  0.34920  0.36810  Biso   1.000  H
  H120     1.0000 0.12640  0.65080  0.36810  Biso   1.000  H
  H121     1.0000 0.87360  0.15080  0.86810  Biso   1.000  H
  H122     1.0000 0.37360  0.65080  0.86810  Biso   1.000  H
  H123     1.0000 0.62640  0.84920  0.86810  Biso   1.000  H
  H124     1.0000 0.12640  0.15080  0.63190  Biso   1.000  H
  H125     1.0000 0.37360  0.84920  0.63190  Biso   1.000  H
  H126     1.0000 0.12640  0.34920  0.86810  Biso   1.000  H
  H127     1.0000 0.62640  0.65080  0.63190  Biso   1.000  H
  H128     1.0000 0.87360  0.34920  0.63190  Biso   1.000  H
  H129     1.0000 0.06330  0.86950  0.11940  Biso   1.000  H
  H130     1.0000 0.56330  0.36950  0.11940  Biso   1.000  H
  H131     1.0000 0.43670  0.13050  0.11940  Biso   1.000  H
  H132     1.0000 0.93670  0.86950  0.38060  Biso   1.000  H
  H133     1.0000 0.56330  0.13050  0.38060  Biso   1.000  H
  H134     1.0000 0.93670  0.63050  0.11940  Biso   1.000  H
  H135     1.0000 0.43670  0.36950  0.38060  Biso   1.000  H
  H136     1.0000 0.06330  0.63050  0.38060  Biso   1.000  H
  H137     1.0000 0.93670  0.13050  0.88060  Biso   1.000  H
  H138     1.0000 0.43670  0.63050  0.88060  Biso   1.000  H
  H139     1.0000 0.56330  0.86950  0.88060  Biso   1.000  H
  H140     1.0000 0.06330  0.13050  0.61940  Biso   1.000  H
  H141     1.0000 0.43670  0.86950  0.61940  Biso   1.000  H
  H142     1.0000 0.06330  0.36950  0.88060  Biso   1.000  H
  H143     1.0000 0.56330  0.63050  0.61940  Biso   1.000  H
  H144     1.0000 0.93670  0.36950  0.61940  Biso   1.000  H
  C97      1.0000 0.12260  0.88618  0.16265  Biso   1.000  C
  C98      1.0000 0.62260  0.38618  0.16265  Biso   1.000  C
  C99      1.0000 0.37740  0.11382  0.16265  Biso   1.000  C
  C100     1.0000 0.87740  0.88618  0.33735  Biso   1.000  C
  C101     1.0000 0.62260  0.11382  0.33735  Biso   1.000  C
  C102     1.0000 0.87740  0.61382  0.16265  Biso   1.000  C
  C103     1.0000 0.37740  0.38618  0.33735  Biso   1.000  C
  C104     1.0000 0.12260  0.61382  0.33735  Biso   1.000  C
  C105     1.0000 0.87740  0.11382  0.83735  Biso   1.000  C
  C106     1.0000 0.37740  0.61382  0.83735  Biso   1.000  C
  C107     1.0000 0.62260  0.88618  0.83735  Biso   1.000  C
  C108     1.0000 0.12260  0.11382  0.66265  Biso   1.000  C
  C109     1.0000 0.37740  0.88618  0.66265  Biso   1.000  C
  C110     1.0000 0.12260  0.38618  0.83735  Biso   1.000  C
  C111     1.0000 0.62260  0.61382  0.66265  Biso   1.000  C
  C112     1.0000 0.87740  0.38618  0.66265  Biso   1.000  C
  C113     1.0000 0.13040  0.91490  0.15218  Biso   1.000  C
  C114     1.0000 0.63040  0.41490  0.15218  Biso   1.000  C
  C115     1.0000 0.36960  0.08510  0.15218  Biso   1.000  C
  C116     1.0000 0.86960  0.91490  0.34782  Biso   1.000  C
  C117     1.0000 0.63040  0.08510  0.34782  Biso   1.000  C
  C118     1.0000 0.86960  0.58510  0.15218  Biso   1.000  C
  C119     1.0000 0.36960  0.41490  0.34782  Biso   1.000  C
  C120     1.0000 0.13040  0.58510  0.34782  Biso   1.000  C
  C121     1.0000 0.86960  0.08510  0.84782  Biso   1.000  C
  C122     1.0000 0.36960  0.58510  0.84782  Biso   1.000  C
  C123     1.0000 0.63040  0.91490  0.84782  Biso   1.000  C
  C124     1.0000 0.13040  0.08510  0.65218  Biso   1.000  C
  C125     1.0000 0.36960  0.91490  0.65218  Biso   1.000  C
  C126     1.0000 0.13040  0.41490  0.84782  Biso   1.000  C
  C127     1.0000 0.63040  0.58510  0.65218  Biso   1.000  C
  C128     1.0000 0.86960  0.41490  0.65218  Biso   1.000  C
  C129     1.0000 0.16320  0.92784  0.18379  Biso   1.000  C
  C130     1.0000 0.66320  0.42784  0.18379  Biso   1.000  C
  C131     1.0000 0.33680  0.07216  0.18379  Biso   1.000  C
  C132     1.0000 0.83680  0.92784  0.31621  Biso   1.000  C
  C133     1.0000 0.66320  0.07216  0.31621  Biso   1.000  C
  C134     1.0000 0.83680  0.57216  0.18379  Biso   1.000  C
  C135     1.0000 0.33680  0.42784  0.31621  Biso   1.000  C
  C136     1.0000 0.16320  0.57216  0.31621  Biso   1.000  C
  C137     1.0000 0.83680  0.07216  0.81621  Biso   1.000  C
  C138     1.0000 0.33680  0.57216  0.81621  Biso   1.000  C
  C139     1.0000 0.66320  0.92784  0.81621  Biso   1.000  C
  C140     1.0000 0.16320  0.07216  0.68379  Biso   1.000  C
  C141     1.0000 0.33680  0.92784  0.68379  Biso   1.000  C
  C142     1.0000 0.16320  0.42784  0.81621  Biso   1.000  C
  C143     1.0000 0.66320  0.57216  0.68379  Biso   1.000  C
  C144     1.0000 0.83680  0.42784  0.68379  Biso   1.000  C
  C145     1.0000 0.18440  0.95840  0.18943  Biso   1.000  C
  C146     1.0000 0.68440  0.45840  0.18943  Biso   1.000  C
  C147     1.0000 0.31560  0.04160  0.18943  Biso   1.000  C
  C148     1.0000 0.81560  0.95840  0.31057  Biso   1.000  C
  C149     1.0000 0.68440  0.04160  0.31057  Biso   1.000  C
  C150     1.0000 0.81560  0.54160  0.18943  Biso   1.000  C
  C151     1.0000 0.31560  0.45840  0.31057  Biso   1.000  C
  C152     1.0000 0.18440  0.54160  0.31057  Biso   1.000  C
  C153     1.0000 0.81560  0.04160  0.81057  Biso   1.000  C
  C154     1.0000 0.31560  0.54160  0.81057  Biso   1.000  C
  C155     1.0000 0.68440  0.95840  0.81057  Biso   1.000  C
  C156     1.0000 0.18440  0.04160  0.68943  Biso   1.000  C
  C157     1.0000 0.31560  0.95840  0.68943  Biso   1.000  C
  C158     1.0000 0.18440  0.45840  0.81057  Biso   1.000  C
  C159     1.0000 0.68440  0.54160  0.68943  Biso   1.000  C
  C160     1.0000 0.81560  0.45840  0.68943  Biso   1.000  C
  H145     1.0000 0.21810  0.95970  0.21010  Biso   1.000  H
  H146     1.0000 0.71810  0.45970  0.21010  Biso   1.000  H
  H147     1.0000 0.28190  0.04030  0.21010  Biso   1.000  H
  H148     1.0000 0.78190  0.95970  0.28990  Biso   1.000  H
  H149     1.0000 0.71810  0.04030  0.28990  Biso   1.000  H
  H150     1.0000 0.78190  0.54030  0.21010  Biso   1.000  H
  H151     1.0000 0.28190  0.45970  0.28990  Biso   1.000  H
  H152     1.0000 0.21810  0.54030  0.28990  Biso   1.000  H
  H153     1.0000 0.78190  0.04030  0.78990  Biso   1.000  H
  H154     1.0000 0.28190  0.54030  0.78990  Biso   1.000  H
  H155     1.0000 0.71810  0.95970  0.78990  Biso   1.000  H
  H156     1.0000 0.21810  0.04030  0.71010  Biso   1.000  H
  H157     1.0000 0.28190  0.95970  0.71010  Biso   1.000  H
  H158     1.0000 0.21810  0.45970  0.78990  Biso   1.000  H
  H159     1.0000 0.71810  0.54030  0.71010  Biso   1.000  H
  H160     1.0000 0.78190  0.45970  0.71010  Biso   1.000  H
  H161     1.0000 0.14260  0.96960  0.19540  Biso   1.000  H
  H162     1.0000 0.64260  0.46960  0.19540  Biso   1.000  H
  H163     1.0000 0.35740  0.03040  0.19540  Biso   1.000  H
  H164     1.0000 0.85740  0.96960  0.30460  Biso   1.000  H
  H165     1.0000 0.64260  0.03040  0.30460  Biso   1.000  H
  H166     1.0000 0.85740  0.53040  0.19540  Biso   1.000  H
  H167     1.0000 0.35740  0.46960  0.30460  Biso   1.000  H
  H168     1.0000 0.14260  0.53040  0.30460  Biso   1.000  H
  H169     1.0000 0.85740  0.03040  0.80460  Biso   1.000  H
  H170     1.0000 0.35740  0.53040  0.80460  Biso   1.000  H
  H171     1.0000 0.64260  0.96960  0.80460  Biso   1.000  H
  H172     1.0000 0.14260  0.03040  0.69540  Biso   1.000  H
  H173     1.0000 0.35740  0.96960  0.69540  Biso   1.000  H
  H174     1.0000 0.14260  0.46960  0.80460  Biso   1.000  H
  H175     1.0000 0.64260  0.53040  0.69540  Biso   1.000  H
  H176     1.0000 0.85740  0.46960  0.69540  Biso   1.000  H
  H177     1.0000 0.20600  0.96560  0.16640  Biso   1.000  H
  H178     1.0000 0.70600  0.46560  0.16640  Biso   1.000  H
  H179     1.0000 0.29400  0.03440  0.16640  Biso   1.000  H
  H180     1.0000 0.79400  0.96560  0.33360  Biso   1.000  H
  H181     1.0000 0.70600  0.03440  0.33360  Biso   1.000  H
  H182     1.0000 0.79400  0.53440  0.16640  Biso   1.000  H
  H183     1.0000 0.29400  0.46560  0.33360  Biso   1.000  H
  H184     1.0000 0.20600  0.53440  0.33360  Biso   1.000  H
  H185     1.0000 0.79400  0.03440  0.83360  Biso   1.000  H
  H186     1.0000 0.29400  0.53440  0.83360  Biso   1.000  H
  H187     1.0000 0.70600  0.96560  0.83360  Biso   1.000  H
  H188     1.0000 0.20600  0.03440  0.66640  Biso   1.000  H
  H189     1.0000 0.29400  0.96560  0.66640  Biso   1.000  H
  H190     1.0000 0.20600  0.46560  0.83360  Biso   1.000  H
  H191     1.0000 0.70600  0.53440  0.66640  Biso   1.000  H
  H192     1.0000 0.79400  0.46560  0.66640  Biso   1.000  H
  C161     1.0000 0.10960  0.92823  0.11526  Biso   1.000  C
  C162     1.0000 0.60960  0.42823  0.11526  Biso   1.000  C
  C163     1.0000 0.39040  0.07177  0.11526  Biso   1.000  C
  C164     1.0000 0.89040  0.92823  0.38474  Biso   1.000  C
  C165     1.0000 0.60960  0.07177  0.38474  Biso   1.000  C
  C166     1.0000 0.89040  0.57177  0.11526  Biso   1.000  C
  C167     1.0000 0.39040  0.42823  0.38474  Biso   1.000  C
  C168     1.0000 0.10960  0.57177  0.38474  Biso   1.000  C
  C169     1.0000 0.89040  0.07177  0.88474  Biso   1.000  C
  C170     1.0000 0.39040  0.57177  0.88474  Biso   1.000  C
  C171     1.0000 0.60960  0.92823  0.88474  Biso   1.000  C
  C172     1.0000 0.10960  0.07177  0.61526  Biso   1.000  C
  C173     1.0000 0.39040  0.92823  0.61526  Biso   1.000  C
  C174     1.0000 0.10960  0.42823  0.88474  Biso   1.000  C
  C175     1.0000 0.60960  0.57177  0.61526  Biso   1.000  C
  C176     1.0000 0.89040  0.42823  0.61526  Biso   1.000  C
  C177     1.0000 0.28290  0.95182  0.33031  Biso   1.000  C
  C178     1.0000 0.78290  0.45182  0.33031  Biso   1.000  C
  C179     1.0000 0.21710  0.04818  0.33031  Biso   1.000  C
  C180     1.0000 0.71710  0.95182  0.16969  Biso   1.000  C
  C181     1.0000 0.78290  0.04818  0.16969  Biso   1.000  C
  C182     1.0000 0.71710  0.54818  0.33031  Biso   1.000  C
  C183     1.0000 0.21710  0.45182  0.16969  Biso   1.000  C
  C184     1.0000 0.28290  0.54818  0.16969  Biso   1.000  C
  C185     1.0000 0.71710  0.04818  0.66969  Biso   1.000  C
  C186     1.0000 0.21710  0.54818  0.66969  Biso   1.000  C
  C187     1.0000 0.78290  0.95182  0.66969  Biso   1.000  C
  C188     1.0000 0.28290  0.04818  0.83031  Biso   1.000  C
  C189     1.0000 0.21710  0.95182  0.83031  Biso   1.000  C
  C190     1.0000 0.28290  0.45182  0.66969  Biso   1.000  C
  C191     1.0000 0.78290  0.54818  0.83031  Biso   1.000  C
  C192     1.0000 0.71710  0.45182  0.83031  Biso   1.000  C
  H193     1.0000 0.27030  0.95920  0.30550  Biso   1.000  H
  H194     1.0000 0.77030  0.45920  0.30550  Biso   1.000  H
  H195     1.0000 0.22970  0.04080  0.30550  Biso   1.000  H
  H196     1.0000 0.72970  0.95920  0.19450  Biso   1.000  H
  H197     1.0000 0.77030  0.04080  0.19450  Biso   1.000  H
  H198     1.0000 0.72970  0.54080  0.30550  Biso   1.000  H
  H199     1.0000 0.22970  0.45920  0.19450  Biso   1.000  H
  H200     1.0000 0.27030  0.54080  0.19450  Biso   1.000  H
  H201     1.0000 0.72970  0.04080  0.69450  Biso   1.000  H
  H202     1.0000 0.22970  0.54080  0.69450  Biso   1.000  H
  H203     1.0000 0.77030  0.95920  0.69450  Biso   1.000  H
  H204     1.0000 0.27030  0.04080  0.80550  Biso   1.000  H
  H205     1.0000 0.22970  0.95920  0.80550  Biso   1.000  H
  H206     1.0000 0.27030  0.45920  0.69450  Biso   1.000  H
  H207     1.0000 0.77030  0.54080  0.80550  Biso   1.000  H
  H208     1.0000 0.72970  0.45920  0.80550  Biso   1.000  H
  H209     1.0000 0.31880  0.96390  0.34170  Biso   1.000  H
  H210     1.0000 0.81880  0.46390  0.34170  Biso   1.000  H
  H211     1.0000 0.18120  0.03610  0.34170  Biso   1.000  H
  H212     1.0000 0.68120  0.96390  0.15830  Biso   1.000  H
  H213     1.0000 0.81880  0.03610  0.15830  Biso   1.000  H
  H214     1.0000 0.68120  0.53610  0.34170  Biso   1.000  H
  H215     1.0000 0.18120  0.46390  0.15830  Biso   1.000  H
  H216     1.0000 0.31880  0.53610  0.15830  Biso   1.000  H
  H217     1.0000 0.68120  0.03610  0.65830  Biso   1.000  H
  H218     1.0000 0.18120  0.53610  0.65830  Biso   1.000  H
  H219     1.0000 0.81880  0.96390  0.65830  Biso   1.000  H
  H220     1.0000 0.31880  0.03610  0.84170  Biso   1.000  H
  H221     1.0000 0.18120  0.96390  0.84170  Biso   1.000  H
  H222     1.0000 0.31880  0.46390  0.65830  Biso   1.000  H
  H223     1.0000 0.81880  0.53610  0.84170  Biso   1.000  H
  H224     1.0000 0.68120  0.46390  0.84170  Biso   1.000  H
  H225     1.0000 0.24110  0.95150  0.34640  Biso   1.000  H
  H226     1.0000 0.74110  0.45150  0.34640  Biso   1.000  H
  H227     1.0000 0.25890  0.04850  0.34640  Biso   1.000  H
  H228     1.0000 0.75890  0.95150  0.15360  Biso   1.000  H
  H229     1.0000 0.74110  0.04850  0.15360  Biso   1.000  H
  H230     1.0000 0.75890  0.54850  0.34640  Biso   1.000  H
  H231     1.0000 0.25890  0.45150  0.15360  Biso   1.000  H
  H232     1.0000 0.24110  0.54850  0.15360  Biso   1.000  H
  H233     1.0000 0.75890  0.04850  0.65360  Biso   1.000  H
  H234     1.0000 0.25890  0.54850  0.65360  Biso   1.000  H
  H235     1.0000 0.74110  0.95150  0.65360  Biso   1.000  H
  H236     1.0000 0.24110  0.04850  0.84640  Biso   1.000  H
  H237     1.0000 0.25890  0.95150  0.84640  Biso   1.000  H
  H238     1.0000 0.24110  0.45150  0.65360  Biso   1.000  H
  H239     1.0000 0.74110  0.54850  0.84640  Biso   1.000  H
  H240     1.0000 0.75890  0.45150  0.84640  Biso   1.000  H
  C193     1.0000 0.31170  0.92183  0.32625  Biso   1.000  C
  C194     1.0000 0.81170  0.42183  0.32625  Biso   1.000  C
  C195     1.0000 0.18830  0.07817  0.32625  Biso   1.000  C
  C196     1.0000 0.68830  0.92183  0.17375  Biso   1.000  C
  C197     1.0000 0.81170  0.07817  0.17375  Biso   1.000  C
  C198     1.0000 0.68830  0.57817  0.32625  Biso   1.000  C
  C199     1.0000 0.18830  0.42183  0.17375  Biso   1.000  C
  C200     1.0000 0.31170  0.57817  0.17375  Biso   1.000  C
  C201     1.0000 0.68830  0.07817  0.67375  Biso   1.000  C
  C202     1.0000 0.18830  0.57817  0.67375  Biso   1.000  C
  C203     1.0000 0.81170  0.92183  0.67375  Biso   1.000  C
  C204     1.0000 0.31170  0.07817  0.82625  Biso   1.000  C
  C205     1.0000 0.18830  0.92183  0.82625  Biso   1.000  C
  C206     1.0000 0.31170  0.42183  0.67375  Biso   1.000  C
  C207     1.0000 0.81170  0.57817  0.82625  Biso   1.000  C
  C208     1.0000 0.68830  0.42183  0.82625  Biso   1.000  C
  C209     1.0000 0.35960  0.90749  0.34968  Biso   1.000  C
  C210     1.0000 0.85960  0.40749  0.34968  Biso   1.000  C
  C211     1.0000 0.14040  0.09251  0.34968  Biso   1.000  C
  C212     1.0000 0.64040  0.90749  0.15032  Biso   1.000  C
  C213     1.0000 0.85960  0.09251  0.15032  Biso   1.000  C
  C214     1.0000 0.64040  0.59251  0.34968  Biso   1.000  C
  C215     1.0000 0.14040  0.40749  0.15032  Biso   1.000  C
  C216     1.0000 0.35960  0.59251  0.15032  Biso   1.000  C
  C217     1.0000 0.64040  0.09251  0.65032  Biso   1.000  C
  C218     1.0000 0.14040  0.59251  0.65032  Biso   1.000  C
  C219     1.0000 0.85960  0.90749  0.65032  Biso   1.000  C
  C220     1.0000 0.35960  0.09251  0.84968  Biso   1.000  C
  C221     1.0000 0.14040  0.90749  0.84968  Biso   1.000  C
  C222     1.0000 0.35960  0.40749  0.65032  Biso   1.000  C
  C223     1.0000 0.85960  0.59251  0.84968  Biso   1.000  C
  C224     1.0000 0.64040  0.40749  0.84968  Biso   1.000  C
  C225     1.0000 0.36920  0.88076  0.33270  Biso   1.000  C
  C226     1.0000 0.86920  0.38076  0.33270  Biso   1.000  C
  C227     1.0000 0.13080  0.11924  0.33270  Biso   1.000  C
  C228     1.0000 0.63080  0.88076  0.16730  Biso   1.000  C
  C229     1.0000 0.86920  0.11924  0.16730  Biso   1.000  C
  C230     1.0000 0.63080  0.61924  0.33270  Biso   1.000  C
  C231     1.0000 0.13080  0.38076  0.16730  Biso   1.000  C
  C232     1.0000 0.36920  0.61924  0.16730  Biso   1.000  C
  C233     1.0000 0.63080  0.11924  0.66730  Biso   1.000  C
  C234     1.0000 0.13080  0.61924  0.66730  Biso   1.000  C
  C235     1.0000 0.86920  0.88076  0.66730  Biso   1.000  C
  C236     1.0000 0.36920  0.11924  0.83270  Biso   1.000  C
  C237     1.0000 0.13080  0.88076  0.83270  Biso   1.000  C
  C238     1.0000 0.36920  0.38076  0.66730  Biso   1.000  C
  C239     1.0000 0.86920  0.61924  0.83270  Biso   1.000  C
  C240     1.0000 0.63080  0.38076  0.83270  Biso   1.000  C
  C241     1.0000 0.41570  0.85650  0.34607  Biso   1.000  C
  C242     1.0000 0.91570  0.35650  0.34607  Biso   1.000  C
  C243     1.0000 0.08430  0.14350  0.34607  Biso   1.000  C
  C244     1.0000 0.58430  0.85650  0.15393  Biso   1.000  C
  C245     1.0000 0.91570  0.14350  0.15393  Biso   1.000  C
  C246     1.0000 0.58430  0.64350  0.34607  Biso   1.000  C
  C247     1.0000 0.08430  0.35650  0.15393  Biso   1.000  C
  C248     1.0000 0.41570  0.64350  0.15393  Biso   1.000  C
  C249     1.0000 0.58430  0.14350  0.65393  Biso   1.000  C
  C250     1.0000 0.08430  0.64350  0.65393  Biso   1.000  C
  C251     1.0000 0.91570  0.85650  0.65393  Biso   1.000  C
  C252     1.0000 0.41570  0.14350  0.84607  Biso   1.000  C
  C253     1.0000 0.08430  0.85650  0.84607  Biso   1.000  C
  C254     1.0000 0.41570  0.35650  0.65393  Biso   1.000  C
  C255     1.0000 0.91570  0.64350  0.84607  Biso   1.000  C
  C256     1.0000 0.58430  0.35650  0.84607  Biso   1.000  C
  H241     1.0000 0.40280  0.83920  0.33270  Biso   1.000  H
  H242     1.0000 0.90280  0.33920  0.33270  Biso   1.000  H
  H243     1.0000 0.09720  0.16080  0.33270  Biso   1.000  H
  H244     1.0000 0.59720  0.83920  0.16730  Biso   1.000  H
  H245     1.0000 0.90280  0.16080  0.16730  Biso   1.000  H
  H246     1.0000 0.59720  0.66080  0.33270  Biso   1.000  H
  H247     1.0000 0.09720  0.33920  0.16730  Biso   1.000  H
  H248     1.0000 0.40280  0.66080  0.16730  Biso   1.000  H
  H249     1.0000 0.59720  0.16080  0.66730  Biso   1.000  H
  H250     1.0000 0.09720  0.66080  0.66730  Biso   1.000  H
  H251     1.0000 0.90280  0.83920  0.66730  Biso   1.000  H
  H252     1.0000 0.40280  0.16080  0.83270  Biso   1.000  H
  H253     1.0000 0.09720  0.83920  0.83270  Biso   1.000  H
  H254     1.0000 0.40280  0.33920  0.66730  Biso   1.000  H
  H255     1.0000 0.90280  0.66080  0.83270  Biso   1.000  H
  H256     1.0000 0.59720  0.33920  0.83270  Biso   1.000  H
  H257     1.0000 0.40900  0.85370  0.37310  Biso   1.000  H
  H258     1.0000 0.90900  0.35370  0.37310  Biso   1.000  H
  H259     1.0000 0.09100  0.14630  0.37310  Biso   1.000  H
  H260     1.0000 0.59100  0.85370  0.12690  Biso   1.000  H
  H261     1.0000 0.90900  0.14630  0.12690  Biso   1.000  H
  H262     1.0000 0.59100  0.64630  0.37310  Biso   1.000  H
  H263     1.0000 0.09100  0.35370  0.12690  Biso   1.000  H
  H264     1.0000 0.40900  0.64630  0.12690  Biso   1.000  H
  H265     1.0000 0.59100  0.14630  0.62690  Biso   1.000  H
  H266     1.0000 0.09100  0.64630  0.62690  Biso   1.000  H
  H267     1.0000 0.90900  0.85370  0.62690  Biso   1.000  H
  H268     1.0000 0.40900  0.14630  0.87310  Biso   1.000  H
  H269     1.0000 0.09100  0.85370  0.87310  Biso   1.000  H
  H270     1.0000 0.40900  0.35370  0.62690  Biso   1.000  H
  H271     1.0000 0.90900  0.64630  0.87310  Biso   1.000  H
  H272     1.0000 0.59100  0.35370  0.87310  Biso   1.000  H
  H273     1.0000 0.46500  0.86100  0.34100  Biso   1.000  H
  H274     1.0000 0.96500  0.36100  0.34100  Biso   1.000  H
  H275     1.0000 0.03500  0.13900  0.34100  Biso   1.000  H
  H276     1.0000 0.53500  0.86100  0.15900  Biso   1.000  H
  H277     1.0000 0.96500  0.13900  0.15900  Biso   1.000  H
  H278     1.0000 0.53500  0.63900  0.34100  Biso   1.000  H
  H279     1.0000 0.03500  0.36100  0.15900  Biso   1.000  H
  H280     1.0000 0.46500  0.63900  0.15900  Biso   1.000  H
  H281     1.0000 0.53500  0.13900  0.65900  Biso   1.000  H
  H282     1.0000 0.03500  0.63900  0.65900  Biso   1.000  H
  H283     1.0000 0.96500  0.86100  0.65900  Biso   1.000  H
  H284     1.0000 0.46500  0.13900  0.84100  Biso   1.000  H
  H285     1.0000 0.03500  0.86100  0.84100  Biso   1.000  H
  H286     1.0000 0.46500  0.36100  0.65900  Biso   1.000  H
  H287     1.0000 0.96500  0.63900  0.84100  Biso   1.000  H
  H288     1.0000 0.53500  0.36100  0.84100  Biso   1.000  H
  C257     1.0000 0.30150  0.89772  0.43581  Biso   1.000  C
  C258     1.0000 0.80150  0.39772  0.43581  Biso   1.000  C
  C259     1.0000 0.19850  0.10228  0.43581  Biso   1.000  C
  C260     1.0000 0.69850  0.89772  0.06419  Biso   1.000  C
  C261     1.0000 0.80150  0.10228  0.06419  Biso   1.000  C
  C262     1.0000 0.69850  0.60228  0.43581  Biso   1.000  C
  C263     1.0000 0.19850  0.39772  0.06419  Biso   1.000  C
  C264     1.0000 0.30150  0.60228  0.06419  Biso   1.000  C
  C265     1.0000 0.69850  0.10228  0.56419  Biso   1.000  C
  C266     1.0000 0.19850  0.60228  0.56419  Biso   1.000  C
  C267     1.0000 0.80150  0.89772  0.56419  Biso   1.000  C
  C268     1.0000 0.30150  0.10228  0.93581  Biso   1.000  C
  C269     1.0000 0.19850  0.89772  0.93581  Biso   1.000  C
  C270     1.0000 0.30150  0.39772  0.56419  Biso   1.000  C
  C271     1.0000 0.80150  0.60228  0.93581  Biso   1.000  C
  C272     1.0000 0.69850  0.39772  0.93581  Biso   1.000  C
  H289     1.0000 0.31320  0.88540  0.45700  Biso   1.000  H
  H290     1.0000 0.81320  0.38540  0.45700  Biso   1.000  H
  H291     1.0000 0.18680  0.11460  0.45700  Biso   1.000  H
  H292     1.0000 0.68680  0.88540  0.04300  Biso   1.000  H
  H293     1.0000 0.81320  0.11460  0.04300  Biso   1.000  H
  H294     1.0000 0.68680  0.61460  0.45700  Biso   1.000  H
  H295     1.0000 0.18680  0.38540  0.04300  Biso   1.000  H
  H296     1.0000 0.31320  0.61460  0.04300  Biso   1.000  H
  H297     1.0000 0.68680  0.11460  0.54300  Biso   1.000  H
  H298     1.0000 0.18680  0.61460  0.54300  Biso   1.000  H
  H299     1.0000 0.81320  0.88540  0.54300  Biso   1.000  H
  H300     1.0000 0.31320  0.11460  0.95700  Biso   1.000  H
  H301     1.0000 0.18680  0.88540  0.95700  Biso   1.000  H
  H302     1.0000 0.31320  0.38540  0.54300  Biso   1.000  H
  H303     1.0000 0.81320  0.61460  0.95700  Biso   1.000  H
  H304     1.0000 0.68680  0.38540  0.95700  Biso   1.000  H
  H305     1.0000 0.28260  0.88630  0.41520  Biso   1.000  H
  H306     1.0000 0.78260  0.38630  0.41520  Biso   1.000  H
  H307     1.0000 0.21740  0.11370  0.41520  Biso   1.000  H
  H308     1.0000 0.71740  0.88630  0.08480  Biso   1.000  H
  H309     1.0000 0.78260  0.11370  0.08480  Biso   1.000  H
  H310     1.0000 0.71740  0.61370  0.41520  Biso   1.000  H
  H311     1.0000 0.21740  0.38630  0.08480  Biso   1.000  H
  H312     1.0000 0.28260  0.61370  0.08480  Biso   1.000  H
  H313     1.0000 0.71740  0.11370  0.58480  Biso   1.000  H
  H314     1.0000 0.21740  0.61370  0.58480  Biso   1.000  H
  H315     1.0000 0.78260  0.88630  0.58480  Biso   1.000  H
  H316     1.0000 0.28260  0.11370  0.91520  Biso   1.000  H
  H317     1.0000 0.21740  0.88630  0.91520  Biso   1.000  H
  H318     1.0000 0.28260  0.38630  0.58480  Biso   1.000  H
  H319     1.0000 0.78260  0.61370  0.91520  Biso   1.000  H
  H320     1.0000 0.71740  0.38630  0.91520  Biso   1.000  H
  H321     1.0000 0.26620  0.91160  0.44370  Biso   1.000  H
  H322     1.0000 0.76620  0.41160  0.44370  Biso   1.000  H
  H323     1.0000 0.23380  0.08840  0.44370  Biso   1.000  H
  H324     1.0000 0.73380  0.91160  0.05630  Biso   1.000  H
  H325     1.0000 0.76620  0.08840  0.05630  Biso   1.000  H
  H326     1.0000 0.73380  0.58840  0.44370  Biso   1.000  H
  H327     1.0000 0.23380  0.41160  0.05630  Biso   1.000  H
  H328     1.0000 0.26620  0.58840  0.05630  Biso   1.000  H
  H329     1.0000 0.73380  0.08840  0.55630  Biso   1.000  H
  H330     1.0000 0.23380  0.58840  0.55630  Biso   1.000  H
  H331     1.0000 0.76620  0.91160  0.55630  Biso   1.000  H
  H332     1.0000 0.26620  0.08840  0.94370  Biso   1.000  H
  H333     1.0000 0.23380  0.91160  0.94370  Biso   1.000  H
  H334     1.0000 0.26620  0.41160  0.55630  Biso   1.000  H
  H335     1.0000 0.76620  0.58840  0.94370  Biso   1.000  H
  H336     1.0000 0.73380  0.41160  0.94370  Biso   1.000  H
  C273     1.0000 0.36700  0.91292  0.42270  Biso   1.000  C
  C274     1.0000 0.86700  0.41292  0.42270  Biso   1.000  C
  C275     1.0000 0.13300  0.08708  0.42270  Biso   1.000  C
  C276     1.0000 0.63300  0.91292  0.07730  Biso   1.000  C
  C277     1.0000 0.86700  0.08708  0.07730  Biso   1.000  C
  C278     1.0000 0.63300  0.58708  0.42270  Biso   1.000  C
  C279     1.0000 0.13300  0.41292  0.07730  Biso   1.000  C
  C280     1.0000 0.36700  0.58708  0.07730  Biso   1.000  C
  C281     1.0000 0.63300  0.08708  0.57730  Biso   1.000  C
  C282     1.0000 0.13300  0.58708  0.57730  Biso   1.000  C
  C283     1.0000 0.86700  0.91292  0.57730  Biso   1.000  C
  C284     1.0000 0.36700  0.08708  0.92270  Biso   1.000  C
  C285     1.0000 0.13300  0.91292  0.92270  Biso   1.000  C
  C286     1.0000 0.36700  0.41292  0.57730  Biso   1.000  C
  C287     1.0000 0.86700  0.58708  0.92270  Biso   1.000  C
  C288     1.0000 0.63300  0.41292  0.92270  Biso   1.000  C
  C289     1.0000 0.39240  0.91730  0.38596  Biso   1.000  C
  C290     1.0000 0.89240  0.41730  0.38596  Biso   1.000  C
  C291     1.0000 0.10760  0.08270  0.38596  Biso   1.000  C
  C292     1.0000 0.60760  0.91730  0.11404  Biso   1.000  C
  C293     1.0000 0.89240  0.08270  0.11404  Biso   1.000  C
  C294     1.0000 0.60760  0.58270  0.38596  Biso   1.000  C
  C295     1.0000 0.10760  0.41730  0.11404  Biso   1.000  C
  C296     1.0000 0.39240  0.58270  0.11404  Biso   1.000  C
  C297     1.0000 0.60760  0.08270  0.61404  Biso   1.000  C
  C298     1.0000 0.10760  0.58270  0.61404  Biso   1.000  C
  C299     1.0000 0.89240  0.91730  0.61404  Biso   1.000  C
  C300     1.0000 0.39240  0.08270  0.88596  Biso   1.000  C
  C301     1.0000 0.10760  0.91730  0.88596  Biso   1.000  C
  C302     1.0000 0.39240  0.41730  0.61404  Biso   1.000  C
  C303     1.0000 0.89240  0.58270  0.88596  Biso   1.000  C
  C304     1.0000 0.60760  0.41730  0.88596  Biso   1.000  C
  C305     1.0000 0.45590  0.93269  0.39052  Biso   1.000  C
  C306     1.0000 0.95590  0.43269  0.39052  Biso   1.000  C
  C307     1.0000 0.04410  0.06731  0.39052  Biso   1.000  C
  C308     1.0000 0.54410  0.93269  0.10948  Biso   1.000  C
  C309     1.0000 0.95590  0.06731  0.10948  Biso   1.000  C
  C310     1.0000 0.54410  0.56731  0.39052  Biso   1.000  C
  C311     1.0000 0.04410  0.43269  0.10948  Biso   1.000  C
  C312     1.0000 0.45590  0.56731  0.10948  Biso   1.000  C
  C313     1.0000 0.54410  0.06731  0.60948  Biso   1.000  C
  C314     1.0000 0.04410  0.56731  0.60948  Biso   1.000  C
  C315     1.0000 0.95590  0.93269  0.60948  Biso   1.000  C
  C316     1.0000 0.45590  0.06731  0.89052  Biso   1.000  C
  C317     1.0000 0.04410  0.93269  0.89052  Biso   1.000  C
  C318     1.0000 0.45590  0.43269  0.60948  Biso   1.000  C
  C319     1.0000 0.95590  0.56731  0.89052  Biso   1.000  C
  C320     1.0000 0.54410  0.43269  0.89052  Biso   1.000  C
  C321     1.0000 0.50660  0.94330  0.36040  Biso   1.000  C
  C322     1.0000 0.00660  0.44330  0.36040  Biso   1.000  C
  C323     1.0000 0.99340  0.05670  0.36040  Biso   1.000  C
  C324     1.0000 0.49340  0.94330  0.13960  Biso   1.000  C
  C325     1.0000 0.00660  0.05670  0.13960  Biso   1.000  C
  C326     1.0000 0.49340  0.55670  0.36040  Biso   1.000  C
  C327     1.0000 0.99340  0.44330  0.13960  Biso   1.000  C
  C328     1.0000 0.50660  0.55670  0.13960  Biso   1.000  C
  C329     1.0000 0.49340  0.05670  0.63960  Biso   1.000  C
  C330     1.0000 0.99340  0.55670  0.63960  Biso   1.000  C
  C331     1.0000 0.00660  0.94330  0.63960  Biso   1.000  C
  C332     1.0000 0.50660  0.05670  0.86040  Biso   1.000  C
  C333     1.0000 0.99340  0.94330  0.86040  Biso   1.000  C
  C334     1.0000 0.50660  0.44330  0.63960  Biso   1.000  C
  C335     1.0000 0.00660  0.55670  0.86040  Biso   1.000  C
  C336     1.0000 0.49340  0.44330  0.86040  Biso   1.000  C
  H337     1.0000 0.55180  0.94800  0.37200  Biso   1.000  H
  H338     1.0000 0.05180  0.44800  0.37200  Biso   1.000  H
  H339     1.0000 0.94820  0.05200  0.37200  Biso   1.000  H
  H340     1.0000 0.44820  0.94800  0.12800  Biso   1.000  H
  H341     1.0000 0.05180  0.05200  0.12800  Biso   1.000  H
  H342     1.0000 0.44820  0.55200  0.37200  Biso   1.000  H
  H343     1.0000 0.94820  0.44800  0.12800  Biso   1.000  H
  H344     1.0000 0.55180  0.55200  0.12800  Biso   1.000  H
  H345     1.0000 0.44820  0.05200  0.62800  Biso   1.000  H
  H346     1.0000 0.94820  0.55200  0.62800  Biso   1.000  H
  H347     1.0000 0.05180  0.94800  0.62800  Biso   1.000  H
  H348     1.0000 0.55180  0.05200  0.87200  Biso   1.000  H
  H349     1.0000 0.94820  0.94800  0.87200  Biso   1.000  H
  H350     1.0000 0.55180  0.44800  0.62800  Biso   1.000  H
  H351     1.0000 0.05180  0.55200  0.87200  Biso   1.000  H
  H352     1.0000 0.44820  0.44800  0.87200  Biso   1.000  H
  H353     1.0000 0.48680  0.96010  0.34840  Biso   1.000  H
  H354     1.0000 0.98680  0.46010  0.34840  Biso   1.000  H
  H355     1.0000 0.01320  0.03990  0.34840  Biso   1.000  H
  H356     1.0000 0.51320  0.96010  0.15160  Biso   1.000  H
  H357     1.0000 0.98680  0.03990  0.15160  Biso   1.000  H
  H358     1.0000 0.51320  0.53990  0.34840  Biso   1.000  H
  H359     1.0000 0.01320  0.46010  0.15160  Biso   1.000  H
  H360     1.0000 0.48680  0.53990  0.15160  Biso   1.000  H
  H361     1.0000 0.51320  0.03990  0.65160  Biso   1.000  H
  H362     1.0000 0.01320  0.53990  0.65160  Biso   1.000  H
  H363     1.0000 0.98680  0.96010  0.65160  Biso   1.000  H
  H364     1.0000 0.48680  0.03990  0.84840  Biso   1.000  H
  H365     1.0000 0.01320  0.96010  0.84840  Biso   1.000  H
  H366     1.0000 0.48680  0.46010  0.65160  Biso   1.000  H
  H367     1.0000 0.98680  0.53990  0.84840  Biso   1.000  H
  H368     1.0000 0.51320  0.46010  0.84840  Biso   1.000  H
  H369     1.0000 0.51360  0.92850  0.34150  Biso   1.000  H
  H370     1.0000 0.01360  0.42850  0.34150  Biso   1.000  H
  H371     1.0000 0.98640  0.07150  0.34150  Biso   1.000  H
  H372     1.0000 0.48640  0.92850  0.15850  Biso   1.000  H
  H373     1.0000 0.01360  0.07150  0.15850  Biso   1.000  H
  H374     1.0000 0.48640  0.57150  0.34150  Biso   1.000  H
  H375     1.0000 0.98640  0.42850  0.15850  Biso   1.000  H
  H376     1.0000 0.51360  0.57150  0.15850  Biso   1.000  H
  H377     1.0000 0.48640  0.07150  0.65850  Biso   1.000  H
  H378     1.0000 0.98640  0.57150  0.65850  Biso   1.000  H
  H379     1.0000 0.01360  0.92850  0.65850  Biso   1.000  H
  H380     1.0000 0.51360  0.07150  0.84150  Biso   1.000  H
  H381     1.0000 0.98640  0.92850  0.84150  Biso   1.000  H
  H382     1.0000 0.51360  0.42850  0.65850  Biso   1.000  H
  H383     1.0000 0.01360  0.57150  0.84150  Biso   1.000  H
  H384     1.0000 0.48640  0.42850  0.84150  Biso   1.000  H
  C337     1.0000 0.18370  0.89689  0.06718  Biso   1.000  C
  C338     1.0000 0.68370  0.39689  0.06718  Biso   1.000  C
  C339     1.0000 0.31630  0.10311  0.06718  Biso   1.000  C
  C340     1.0000 0.81630  0.89689  0.43282  Biso   1.000  C
  C341     1.0000 0.68370  0.10311  0.43282  Biso   1.000  C
  C342     1.0000 0.81630  0.60311  0.06718  Biso   1.000  C
  C343     1.0000 0.31630  0.39689  0.43282  Biso   1.000  C
  C344     1.0000 0.18370  0.60311  0.43282  Biso   1.000  C
  C345     1.0000 0.81630  0.10311  0.93282  Biso   1.000  C
  C346     1.0000 0.31630  0.60311  0.93282  Biso   1.000  C
  C347     1.0000 0.68370  0.89689  0.93282  Biso   1.000  C
  C348     1.0000 0.18370  0.10311  0.56718  Biso   1.000  C
  C349     1.0000 0.31630  0.89689  0.56718  Biso   1.000  C
  C350     1.0000 0.18370  0.39689  0.93282  Biso   1.000  C
  C351     1.0000 0.68370  0.60311  0.56718  Biso   1.000  C
  C352     1.0000 0.81630  0.39689  0.56718  Biso   1.000  C
  H385     1.0000 0.20820  0.88970  0.08940  Biso   1.000  H
  H386     1.0000 0.70820  0.38970  0.08940  Biso   1.000  H
  H387     1.0000 0.29180  0.11030  0.08940  Biso   1.000  H
  H388     1.0000 0.79180  0.88970  0.41060  Biso   1.000  H
  H389     1.0000 0.70820  0.11030  0.41060  Biso   1.000  H
  H390     1.0000 0.79180  0.61030  0.08940  Biso   1.000  H
  H391     1.0000 0.29180  0.38970  0.41060  Biso   1.000  H
  H392     1.0000 0.20820  0.61030  0.41060  Biso   1.000  H
  H393     1.0000 0.79180  0.11030  0.91060  Biso   1.000  H
  H394     1.0000 0.29180  0.61030  0.91060  Biso   1.000  H
  H395     1.0000 0.70820  0.88970  0.91060  Biso   1.000  H
  H396     1.0000 0.20820  0.11030  0.58940  Biso   1.000  H
  H397     1.0000 0.29180  0.88970  0.58940  Biso   1.000  H
  H398     1.0000 0.20820  0.38970  0.91060  Biso   1.000  H
  H399     1.0000 0.70820  0.61030  0.58940  Biso   1.000  H
  H400     1.0000 0.79180  0.38970  0.58940  Biso   1.000  H
  H401     1.0000 0.21800  0.90510  0.04980  Biso   1.000  H
  H402     1.0000 0.71800  0.40510  0.04980  Biso   1.000  H
  H403     1.0000 0.28200  0.09490  0.04980  Biso   1.000  H
  H404     1.0000 0.78200  0.90510  0.45020  Biso   1.000  H
  H405     1.0000 0.71800  0.09490  0.45020  Biso   1.000  H
  H406     1.0000 0.78200  0.59490  0.04980  Biso   1.000  H
  H407     1.0000 0.28200  0.40510  0.45020  Biso   1.000  H
  H408     1.0000 0.21800  0.59490  0.45020  Biso   1.000  H
  H409     1.0000 0.78200  0.09490  0.95020  Biso   1.000  H
  H410     1.0000 0.28200  0.59490  0.95020  Biso   1.000  H
  H411     1.0000 0.71800  0.90510  0.95020  Biso   1.000  H
  H412     1.0000 0.21800  0.09490  0.54980  Biso   1.000  H
  H413     1.0000 0.28200  0.90510  0.54980  Biso   1.000  H
  H414     1.0000 0.21800  0.40510  0.95020  Biso   1.000  H
  H415     1.0000 0.71800  0.59490  0.54980  Biso   1.000  H
  H416     1.0000 0.78200  0.40510  0.54980  Biso   1.000  H
  H417     1.0000 0.15870  0.88140  0.05470  Biso   1.000  H
  H418     1.0000 0.65870  0.38140  0.05470  Biso   1.000  H
  H419     1.0000 0.34130  0.11860  0.05470  Biso   1.000  H
  H420     1.0000 0.84130  0.88140  0.44530  Biso   1.000  H
  H421     1.0000 0.65870  0.11860  0.44530  Biso   1.000  H
  H422     1.0000 0.84130  0.61860  0.05470  Biso   1.000  H
  H423     1.0000 0.34130  0.38140  0.44530  Biso   1.000  H
  H424     1.0000 0.15870  0.61860  0.44530  Biso   1.000  H
  H425     1.0000 0.84130  0.11860  0.94530  Biso   1.000  H
  H426     1.0000 0.34130  0.61860  0.94530  Biso   1.000  H
  H427     1.0000 0.65870  0.88140  0.94530  Biso   1.000  H
  H428     1.0000 0.15870  0.11860  0.55470  Biso   1.000  H
  H429     1.0000 0.34130  0.88140  0.55470  Biso   1.000  H
  H430     1.0000 0.15870  0.38140  0.94530  Biso   1.000  H
  H431     1.0000 0.65870  0.61860  0.55470  Biso   1.000  H
  H432     1.0000 0.84130  0.38140  0.55470  Biso   1.000  H
  C353     1.0000 0.13100  0.91954  0.07907  Biso   1.000  C
  C354     1.0000 0.63100  0.41954  0.07907  Biso   1.000  C
  C355     1.0000 0.36900  0.08046  0.07907  Biso   1.000  C
  C356     1.0000 0.86900  0.91954  0.42093  Biso   1.000  C
  C357     1.0000 0.63100  0.08046  0.42093  Biso   1.000  C
  C358     1.0000 0.86900  0.58046  0.07907  Biso   1.000  C
  C359     1.0000 0.36900  0.41954  0.42093  Biso   1.000  C
  C360     1.0000 0.13100  0.58046  0.42093  Biso   1.000  C
  C361     1.0000 0.86900  0.08046  0.92093  Biso   1.000  C
  C362     1.0000 0.36900  0.58046  0.92093  Biso   1.000  C
  C363     1.0000 0.63100  0.91954  0.92093  Biso   1.000  C
  C364     1.0000 0.13100  0.08046  0.57907  Biso   1.000  C
  C365     1.0000 0.36900  0.91954  0.57907  Biso   1.000  C
  C366     1.0000 0.13100  0.41954  0.92093  Biso   1.000  C
  C367     1.0000 0.63100  0.58046  0.57907  Biso   1.000  C
  C368     1.0000 0.86900  0.41954  0.57907  Biso   1.000  C
  C369     1.0000 0.06080  0.95026  0.10900  Biso   1.000  C
  C370     1.0000 0.56080  0.45026  0.10900  Biso   1.000  C
  C371     1.0000 0.43920  0.04974  0.10900  Biso   1.000  C
  C372     1.0000 0.93920  0.95026  0.39100  Biso   1.000  C
  C373     1.0000 0.56080  0.04974  0.39100  Biso   1.000  C
  C374     1.0000 0.93920  0.54974  0.10900  Biso   1.000  C
  C375     1.0000 0.43920  0.45026  0.39100  Biso   1.000  C
  C376     1.0000 0.06080  0.54974  0.39100  Biso   1.000  C
  C377     1.0000 0.93920  0.04974  0.89100  Biso   1.000  C
  C378     1.0000 0.43920  0.54974  0.89100  Biso   1.000  C
  C379     1.0000 0.56080  0.95026  0.89100  Biso   1.000  C
  C380     1.0000 0.06080  0.04974  0.60900  Biso   1.000  C
  C381     1.0000 0.43920  0.95026  0.60900  Biso   1.000  C
  C382     1.0000 0.06080  0.45026  0.89100  Biso   1.000  C
  C383     1.0000 0.56080  0.54974  0.60900  Biso   1.000  C
  C384     1.0000 0.93920  0.45026  0.60900  Biso   1.000  C
  C385     1.0000 0.01970  0.96761  0.13711  Biso   1.000  C
  C386     1.0000 0.51970  0.46761  0.13711  Biso   1.000  C
  C387     1.0000 0.48030  0.03239  0.13711  Biso   1.000  C
  C388     1.0000 0.98030  0.96761  0.36289  Biso   1.000  C
  C389     1.0000 0.51970  0.03239  0.36289  Biso   1.000  C
  C390     1.0000 0.98030  0.53239  0.13711  Biso   1.000  C
  C391     1.0000 0.48030  0.46761  0.36289  Biso   1.000  C
  C392     1.0000 0.01970  0.53239  0.36289  Biso   1.000  C
  C393     1.0000 0.98030  0.03239  0.86289  Biso   1.000  C
  C394     1.0000 0.48030  0.53239  0.86289  Biso   1.000  C
  C395     1.0000 0.51970  0.96761  0.86289  Biso   1.000  C
  C396     1.0000 0.01970  0.03239  0.63711  Biso   1.000  C
  C397     1.0000 0.48030  0.96761  0.63711  Biso   1.000  C
  C398     1.0000 0.01970  0.46761  0.86289  Biso   1.000  C
  C399     1.0000 0.51970  0.53239  0.63711  Biso   1.000  C
  C400     1.0000 0.98030  0.46761  0.63711  Biso   1.000  C
  H433     1.0000 0.01910  0.95790  0.16140  Biso   1.000  H
  H434     1.0000 0.51910  0.45790  0.16140  Biso   1.000  H
  H435     1.0000 0.48090  0.04210  0.16140  Biso   1.000  H
  H436     1.0000 0.98090  0.95790  0.33860  Biso   1.000  H
  H437     1.0000 0.51910  0.04210  0.33860  Biso   1.000  H
  H438     1.0000 0.98090  0.54210  0.16140  Biso   1.000  H
  H439     1.0000 0.48090  0.45790  0.33860  Biso   1.000  H
  H440     1.0000 0.01910  0.54210  0.33860  Biso   1.000  H
  H441     1.0000 0.98090  0.04210  0.83860  Biso   1.000  H
  H442     1.0000 0.48090  0.54210  0.83860  Biso   1.000  H
  H443     1.0000 0.51910  0.95790  0.83860  Biso   1.000  H
  H444     1.0000 0.01910  0.04210  0.66140  Biso   1.000  H
  H445     1.0000 0.48090  0.95790  0.66140  Biso   1.000  H
  H446     1.0000 0.01910  0.45790  0.83860  Biso   1.000  H
  H447     1.0000 0.51910  0.54210  0.66140  Biso   1.000  H
  H448     1.0000 0.98090  0.45790  0.66140  Biso   1.000  H
  H449     1.0000 0.97140  0.97010  0.12810  Biso   1.000  H
  H450     1.0000 0.47140  0.47010  0.12810  Biso   1.000  H
  H451     1.0000 0.52860  0.02990  0.12810  Biso   1.000  H
  H452     1.0000 0.02860  0.97010  0.37190  Biso   1.000  H
  H453     1.0000 0.47140  0.02990  0.37190  Biso   1.000  H
  H454     1.0000 0.02860  0.52990  0.12810  Biso   1.000  H
  H455     1.0000 0.52860  0.47010  0.37190  Biso   1.000  H
  H456     1.0000 0.97140  0.52990  0.37190  Biso   1.000  H
  H457     1.0000 0.02860  0.02990  0.87190  Biso   1.000  H
  H458     1.0000 0.52860  0.52990  0.87190  Biso   1.000  H
  H459     1.0000 0.47140  0.97010  0.87190  Biso   1.000  H
  H460     1.0000 0.97140  0.02990  0.62810  Biso   1.000  H
  H461     1.0000 0.52860  0.97010  0.62810  Biso   1.000  H
  H462     1.0000 0.97140  0.47010  0.87190  Biso   1.000  H
  H463     1.0000 0.47140  0.52990  0.62810  Biso   1.000  H
  H464     1.0000 0.02860  0.47010  0.62810  Biso   1.000  H
  H465     1.0000 0.04210  0.98610  0.14000  Biso   1.000  H
  H466     1.0000 0.54210  0.48610  0.14000  Biso   1.000  H
  H467     1.0000 0.45790  0.01390  0.14000  Biso   1.000  H
  H468     1.0000 0.95790  0.98610  0.36000  Biso   1.000  H
  H469     1.0000 0.54210  0.01390  0.36000  Biso   1.000  H
  H470     1.0000 0.95790  0.51390  0.14000  Biso   1.000  H
  H471     1.0000 0.45790  0.48610  0.36000  Biso   1.000  H
  H472     1.0000 0.04210  0.51390  0.36000  Biso   1.000  H
  H473     1.0000 0.95790  0.01390  0.86000  Biso   1.000  H
  H474     1.0000 0.45790  0.51390  0.86000  Biso   1.000  H
  H475     1.0000 0.54210  0.98610  0.86000  Biso   1.000  H
  H476     1.0000 0.04210  0.01390  0.64000  Biso   1.000  H
  H477     1.0000 0.45790  0.98610  0.64000  Biso   1.000  H
  H478     1.0000 0.04210  0.48610  0.86000  Biso   1.000  H
  H479     1.0000 0.54210  0.51390  0.64000  Biso   1.000  H
  H480     1.0000 0.95790  0.48610  0.64000  Biso   1.000  H
  C401     1.0000 0.66500  0.01076  0.56876  Biso   1.000  C
  C402     1.0000 0.16500  0.51076  0.56876  Biso   1.000  C
  C403     1.0000 0.83500  0.98924  0.56876  Biso   1.000  C
  C404     1.0000 0.33500  0.01076  0.93124  Biso   1.000  C
  C405     1.0000 0.16500  0.98924  0.93124  Biso   1.000  C
  C406     1.0000 0.33500  0.48924  0.56876  Biso   1.000  C
  C407     1.0000 0.83500  0.51076  0.93124  Biso   1.000  C
  C408     1.0000 0.66500  0.48924  0.93124  Biso   1.000  C
  C409     1.0000 0.33500  0.98924  0.43124  Biso   1.000  C
  C410     1.0000 0.83500  0.48924  0.43124  Biso   1.000  C
  C411     1.0000 0.16500  0.01076  0.43124  Biso   1.000  C
  C412     1.0000 0.66500  0.98924  0.06876  Biso   1.000  C
  C413     1.0000 0.83500  0.01076  0.06876  Biso   1.000  C
  C414     1.0000 0.66500  0.51076  0.43124  Biso   1.000  C
  C415     1.0000 0.16500  0.48924  0.06876  Biso   1.000  C
  C416     1.0000 0.33500  0.51076  0.06876  Biso   1.000  C
  H481     1.0000 0.61860  0.01770  0.57630  Biso   1.000  H
  H482     1.0000 0.11860  0.51770  0.57630  Biso   1.000  H
  H483     1.0000 0.88140  0.98230  0.57630  Biso   1.000  H
  H484     1.0000 0.38140  0.01770  0.92370  Biso   1.000  H
  H485     1.0000 0.11860  0.98230  0.92370  Biso   1.000  H
  H486     1.0000 0.38140  0.48230  0.57630  Biso   1.000  H
  H487     1.0000 0.88140  0.51770  0.92370  Biso   1.000  H
  H488     1.0000 0.61860  0.48230  0.92370  Biso   1.000  H
  H489     1.0000 0.38140  0.98230  0.42370  Biso   1.000  H
  H490     1.0000 0.88140  0.48230  0.42370  Biso   1.000  H
  H491     1.0000 0.11860  0.01770  0.42370  Biso   1.000  H
  H492     1.0000 0.61860  0.98230  0.07630  Biso   1.000  H
  H493     1.0000 0.88140  0.01770  0.07630  Biso   1.000  H
  H494     1.0000 0.61860  0.51770  0.42370  Biso   1.000  H
  H495     1.0000 0.11860  0.48230  0.07630  Biso   1.000  H
  H496     1.0000 0.38140  0.51770  0.07630  Biso   1.000  H
  H497     1.0000 0.69840  0.02650  0.56840  Biso   1.000  H
  H498     1.0000 0.19840  0.52650  0.56840  Biso   1.000  H
  H499     1.0000 0.80160  0.97350  0.56840  Biso   1.000  H
  H500     1.0000 0.30160  0.02650  0.93160  Biso   1.000  H
  H501     1.0000 0.19840  0.97350  0.93160  Biso   1.000  H
  H502     1.0000 0.30160  0.47350  0.56840  Biso   1.000  H
  H503     1.0000 0.80160  0.52650  0.93160  Biso   1.000  H
  H504     1.0000 0.69840  0.47350  0.93160  Biso   1.000  H
  H505     1.0000 0.30160  0.97350  0.43160  Biso   1.000  H
  H506     1.0000 0.80160  0.47350  0.43160  Biso   1.000  H
  H507     1.0000 0.19840  0.02650  0.43160  Biso   1.000  H
  H508     1.0000 0.69840  0.97350  0.06840  Biso   1.000  H
  H509     1.0000 0.80160  0.02650  0.06840  Biso   1.000  H
  H510     1.0000 0.69840  0.52650  0.43160  Biso   1.000  H
  H511     1.0000 0.19840  0.47350  0.06840  Biso   1.000  H
  H512     1.0000 0.30160  0.52650  0.06840  Biso   1.000  H
  H513     1.0000 0.68110  0.99650  0.58670  Biso   1.000  H
  H514     1.0000 0.18110  0.49650  0.58670  Biso   1.000  H
  H515     1.0000 0.81890  0.00350  0.58670  Biso   1.000  H
  H516     1.0000 0.31890  0.99650  0.91330  Biso   1.000  H
  H517     1.0000 0.18110  0.00350  0.91330  Biso   1.000  H
  H518     1.0000 0.31890  0.50350  0.58670  Biso   1.000  H
  H519     1.0000 0.81890  0.49650  0.91330  Biso   1.000  H
  H520     1.0000 0.68110  0.50350  0.91330  Biso   1.000  H
  H521     1.0000 0.31890  0.00350  0.41330  Biso   1.000  H
  H522     1.0000 0.81890  0.50350  0.41330  Biso   1.000  H
  H523     1.0000 0.18110  0.99650  0.41330  Biso   1.000  H
  H524     1.0000 0.68110  0.00350  0.08670  Biso   1.000  H
  H525     1.0000 0.81890  0.99650  0.08670  Biso   1.000  H
  H526     1.0000 0.68110  0.49650  0.41330  Biso   1.000  H
  H527     1.0000 0.18110  0.50350  0.08670  Biso   1.000  H
  H528     1.0000 0.31890  0.49650  0.08670  Biso   1.000  H
  C417     1.0000 0.66040  0.99770  0.52969  Biso   1.000  C
  C418     1.0000 0.16040  0.49770  0.52969  Biso   1.000  C
  C419     1.0000 0.83960  0.00230  0.52969  Biso   1.000  C
  C420     1.0000 0.33960  0.99770  0.97031  Biso   1.000  C
  C421     1.0000 0.16040  0.00230  0.97031  Biso   1.000  C
  C422     1.0000 0.33960  0.50230  0.52969  Biso   1.000  C
  C423     1.0000 0.83960  0.49770  0.97031  Biso   1.000  C
  C424     1.0000 0.66040  0.50230  0.97031  Biso   1.000  C
  C425     1.0000 0.33960  0.00230  0.47031  Biso   1.000  C
  C426     1.0000 0.83960  0.50230  0.47031  Biso   1.000  C
  C427     1.0000 0.16040  0.99770  0.47031  Biso   1.000  C
  C428     1.0000 0.66040  0.00230  0.02969  Biso   1.000  C
  C429     1.0000 0.83960  0.99770  0.02969  Biso   1.000  C
  C430     1.0000 0.66040  0.49770  0.47031  Biso   1.000  C
  C431     1.0000 0.16040  0.50230  0.02969  Biso   1.000  C
  C432     1.0000 0.33960  0.49770  0.02969  Biso   1.000  C
  C433     1.0000 0.71280  0.99472  0.50138  Biso   1.000  C
  C434     1.0000 0.21280  0.49472  0.50138  Biso   1.000  C
  C435     1.0000 0.78720  0.00528  0.50138  Biso   1.000  C
  C436     1.0000 0.28720  0.99472  0.99862  Biso   1.000  C
  C437     1.0000 0.21280  0.00528  0.99862  Biso   1.000  C
  C438     1.0000 0.28720  0.50528  0.50138  Biso   1.000  C
  C439     1.0000 0.78720  0.49472  0.99862  Biso   1.000  C
  C440     1.0000 0.71280  0.50528  0.99862  Biso   1.000  C
  C441     1.0000 0.28720  0.00528  0.49862  Biso   1.000  C
  C442     1.0000 0.78720  0.50528  0.49862  Biso   1.000  C
  C443     1.0000 0.21280  0.99472  0.49862  Biso   1.000  C
  C444     1.0000 0.71280  0.00528  0.00138  Biso   1.000  C
  C445     1.0000 0.78720  0.99472  0.00138  Biso   1.000  C
  C446     1.0000 0.71280  0.49472  0.49862  Biso   1.000  C
  C447     1.0000 0.21280  0.50528  0.00138  Biso   1.000  C
  C448     1.0000 0.28720  0.49472  0.00138  Biso   1.000  C
  C449     1.0000 0.67810  0.98008  0.47183  Biso   1.000  C
  C450     1.0000 0.17810  0.48008  0.47183  Biso   1.000  C
  C451     1.0000 0.82190  0.01992  0.47183  Biso   1.000  C
  C452     1.0000 0.32190  0.98008  0.02817  Biso   1.000  C
  C453     1.0000 0.17810  0.01992  0.02817  Biso   1.000  C
  C454     1.0000 0.32190  0.51992  0.47183  Biso   1.000  C
  C455     1.0000 0.82190  0.48008  0.02817  Biso   1.000  C
  C456     1.0000 0.67810  0.51992  0.02817  Biso   1.000  C
  C457     1.0000 0.32190  0.01992  0.52817  Biso   1.000  C
  C458     1.0000 0.82190  0.51992  0.52817  Biso   1.000  C
  C459     1.0000 0.17810  0.98008  0.52817  Biso   1.000  C
  C460     1.0000 0.67810  0.01992  0.97183  Biso   1.000  C
  C461     1.0000 0.82190  0.98008  0.97183  Biso   1.000  C
  C462     1.0000 0.67810  0.48008  0.52817  Biso   1.000  C
  C463     1.0000 0.17810  0.51992  0.97183  Biso   1.000  C
  C464     1.0000 0.32190  0.48008  0.97183  Biso   1.000  C
  C465     1.0000 0.70640  0.96915  0.43408  Biso   1.000  C
  C466     1.0000 0.20640  0.46915  0.43408  Biso   1.000  C
  C467     1.0000 0.79360  0.03085  0.43408  Biso   1.000  C
  C468     1.0000 0.29360  0.96915  0.06592  Biso   1.000  C
  C469     1.0000 0.20640  0.03085  0.06592  Biso   1.000  C
  C470     1.0000 0.29360  0.53085  0.43408  Biso   1.000  C
  C471     1.0000 0.79360  0.46915  0.06592  Biso   1.000  C
  C472     1.0000 0.70640  0.53085  0.06592  Biso   1.000  C
  C473     1.0000 0.29360  0.03085  0.56592  Biso   1.000  C
  C474     1.0000 0.79360  0.53085  0.56592  Biso   1.000  C
  C475     1.0000 0.20640  0.96915  0.56592  Biso   1.000  C
  C476     1.0000 0.70640  0.03085  0.93408  Biso   1.000  C
  C477     1.0000 0.79360  0.96915  0.93408  Biso   1.000  C
  C478     1.0000 0.70640  0.46915  0.56592  Biso   1.000  C
  C479     1.0000 0.20640  0.53085  0.93408  Biso   1.000  C
  C480     1.0000 0.29360  0.46915  0.93408  Biso   1.000  C
  H529     1.0000 0.68940  0.94990  0.42980  Biso   1.000  H
  H530     1.0000 0.18940  0.44990  0.42980  Biso   1.000  H
  H531     1.0000 0.81060  0.05010  0.42980  Biso   1.000  H
  H532     1.0000 0.31060  0.94990  0.07020  Biso   1.000  H
  H533     1.0000 0.18940  0.05010  0.07020  Biso   1.000  H
  H534     1.0000 0.31060  0.55010  0.42980  Biso   1.000  H
  H535     1.0000 0.81060  0.44990  0.07020  Biso   1.000  H
  H536     1.0000 0.68940  0.55010  0.07020  Biso   1.000  H
  H537     1.0000 0.31060  0.05010  0.57020  Biso   1.000  H
  H538     1.0000 0.81060  0.55010  0.57020  Biso   1.000  H
  H539     1.0000 0.18940  0.94990  0.57020  Biso   1.000  H
  H540     1.0000 0.68940  0.05010  0.92980  Biso   1.000  H
  H541     1.0000 0.81060  0.94990  0.92980  Biso   1.000  H
  H542     1.0000 0.68940  0.44990  0.57020  Biso   1.000  H
  H543     1.0000 0.18940  0.55010  0.92980  Biso   1.000  H
  H544     1.0000 0.31060  0.44990  0.92980  Biso   1.000  H
  H545     1.0000 0.75790  0.96920  0.43460  Biso   1.000  H
  H546     1.0000 0.25790  0.46920  0.43460  Biso   1.000  H
  H547     1.0000 0.74210  0.03080  0.43460  Biso   1.000  H
  H548     1.0000 0.24210  0.96920  0.06540  Biso   1.000  H
  H549     1.0000 0.25790  0.03080  0.06540  Biso   1.000  H
  H550     1.0000 0.24210  0.53080  0.43460  Biso   1.000  H
  H551     1.0000 0.74210  0.46920  0.06540  Biso   1.000  H
  H552     1.0000 0.75790  0.53080  0.06540  Biso   1.000  H
  H553     1.0000 0.24210  0.03080  0.56540  Biso   1.000  H
  H554     1.0000 0.74210  0.53080  0.56540  Biso   1.000  H
  H555     1.0000 0.25790  0.96920  0.56540  Biso   1.000  H
  H556     1.0000 0.75790  0.03080  0.93460  Biso   1.000  H
  H557     1.0000 0.74210  0.96920  0.93460  Biso   1.000  H
  H558     1.0000 0.75790  0.46920  0.56540  Biso   1.000  H
  H559     1.0000 0.25790  0.53080  0.93460  Biso   1.000  H
  H560     1.0000 0.24210  0.46920  0.93460  Biso   1.000  H
  H561     1.0000 0.68990  0.98140  0.41380  Biso   1.000  H
  H562     1.0000 0.18990  0.48140  0.41380  Biso   1.000  H
  H563     1.0000 0.81010  0.01860  0.41380  Biso   1.000  H
  H564     1.0000 0.31010  0.98140  0.08620  Biso   1.000  H
  H565     1.0000 0.18990  0.01860  0.08620  Biso   1.000  H
  H566     1.0000 0.31010  0.51860  0.41380  Biso   1.000  H
  H567     1.0000 0.81010  0.48140  0.08620  Biso   1.000  H
  H568     1.0000 0.68990  0.51860  0.08620  Biso   1.000  H
  H569     1.0000 0.31010  0.01860  0.58620  Biso   1.000  H
  H570     1.0000 0.81010  0.51860  0.58620  Biso   1.000  H
  H571     1.0000 0.18990  0.98140  0.58620  Biso   1.000  H
  H572     1.0000 0.68990  0.01860  0.91380  Biso   1.000  H
  H573     1.0000 0.81010  0.98140  0.91380  Biso   1.000  H
  H574     1.0000 0.68990  0.48140  0.58620  Biso   1.000  H
  H575     1.0000 0.18990  0.51860  0.91380  Biso   1.000  H
  H576     1.0000 0.31010  0.48140  0.91380  Biso   1.000  H
  C481     1.0000 0.00000  0.97273  0.75000  Biso   1.000  C
  C482     1.0000 0.50000  0.47273  0.75000  Biso   1.000  C
  C483     1.0000 0.50000  0.02727  0.75000  Biso   1.000  C
  C484     1.0000 0.00000  0.52727  0.75000  Biso   1.000  C
  C485     1.0000 0.00000  0.02727  0.25000  Biso   1.000  C
  C486     1.0000 0.50000  0.52727  0.25000  Biso   1.000  C
  C487     1.0000 0.50000  0.97273  0.25000  Biso   1.000  C
  C488     1.0000 0.00000  0.47273  0.25000  Biso   1.000  C
  C489     1.0000 0.00000  0.00454  0.75000  Biso   1.000  C
  C490     1.0000 0.50000  0.50454  0.75000  Biso   1.000  C
  C491     1.0000 0.50000  0.99546  0.75000  Biso   1.000  C
  C492     1.0000 0.00000  0.49546  0.75000  Biso   1.000  C
  C493     1.0000 0.00000  0.99546  0.25000  Biso   1.000  C
  C494     1.0000 0.50000  0.49546  0.25000  Biso   1.000  C
  C495     1.0000 0.50000  0.00454  0.25000  Biso   1.000  C
  C496     1.0000 0.00000  0.50454  0.25000  Biso   1.000  C
  C497     1.0000 0.04760  0.02289  0.76848  Biso   1.000  C
  C498     1.0000 0.54760  0.52289  0.76848  Biso   1.000  C
  C499     1.0000 0.45240  0.97711  0.76848  Biso   1.000  C
  C500     1.0000 0.95240  0.02289  0.73152  Biso   1.000  C
  C501     1.0000 0.54760  0.97711  0.73152  Biso   1.000  C
  C502     1.0000 0.95240  0.47711  0.76848  Biso   1.000  C
  C503     1.0000 0.45240  0.52289  0.73152  Biso   1.000  C
  C504     1.0000 0.04760  0.47711  0.73152  Biso   1.000  C
  C505     1.0000 0.95240  0.97711  0.23152  Biso   1.000  C
  C506     1.0000 0.45240  0.47711  0.23152  Biso   1.000  C
  C507     1.0000 0.54760  0.02289  0.23152  Biso   1.000  C
  C508     1.0000 0.04760  0.97711  0.26848  Biso   1.000  C
  C509     1.0000 0.45240  0.02289  0.26848  Biso   1.000  C
  C510     1.0000 0.04760  0.52289  0.23152  Biso   1.000  C
  C511     1.0000 0.54760  0.47711  0.26848  Biso   1.000  C
  C512     1.0000 0.95240  0.52289  0.26848  Biso   1.000  C
  C513     1.0000 0.11060  0.01543  0.79329  Biso   1.000  C
  C514     1.0000 0.61060  0.51543  0.79329  Biso   1.000  C
  C515     1.0000 0.38940  0.98457  0.79329  Biso   1.000  C
  C516     1.0000 0.88940  0.01543  0.70671  Biso   1.000  C
  C517     1.0000 0.61060  0.98457  0.70671  Biso   1.000  C
  C518     1.0000 0.88940  0.48457  0.79329  Biso   1.000  C
  C519     1.0000 0.38940  0.51543  0.70671  Biso   1.000  C
  C520     1.0000 0.11060  0.48457  0.70671  Biso   1.000  C
  C521     1.0000 0.88940  0.98457  0.20671  Biso   1.000  C
  C522     1.0000 0.38940  0.48457  0.20671  Biso   1.000  C
  C523     1.0000 0.61060  0.01543  0.20671  Biso   1.000  C
  C524     1.0000 0.11060  0.98457  0.29329  Biso   1.000  C
  C525     1.0000 0.38940  0.01543  0.29329  Biso   1.000  C
  C526     1.0000 0.11060  0.51543  0.20671  Biso   1.000  C
  C527     1.0000 0.61060  0.48457  0.29329  Biso   1.000  C
  C528     1.0000 0.88940  0.51543  0.29329  Biso   1.000  C
  H577     1.0000 0.11680  0.03000  0.81250  Biso   1.000  H
  H578     1.0000 0.61680  0.53000  0.81250  Biso   1.000  H
  H579     1.0000 0.38320  0.97000  0.81250  Biso   1.000  H
  H580     1.0000 0.88320  0.03000  0.68750  Biso   1.000  H
  H581     1.0000 0.61680  0.97000  0.68750  Biso   1.000  H
  H582     1.0000 0.88320  0.47000  0.81250  Biso   1.000  H
  H583     1.0000 0.38320  0.53000  0.68750  Biso   1.000  H
  H584     1.0000 0.11680  0.47000  0.68750  Biso   1.000  H
  H585     1.0000 0.88320  0.97000  0.18750  Biso   1.000  H
  H586     1.0000 0.38320  0.47000  0.18750  Biso   1.000  H
  H587     1.0000 0.61680  0.03000  0.18750  Biso   1.000  H
  H588     1.0000 0.11680  0.97000  0.31250  Biso   1.000  H
  H589     1.0000 0.38320  0.03000  0.31250  Biso   1.000  H
  H590     1.0000 0.11680  0.53000  0.18750  Biso   1.000  H
  H591     1.0000 0.61680  0.47000  0.31250  Biso   1.000  H
  H592     1.0000 0.88320  0.53000  0.31250  Biso   1.000  H
  H593     1.0000 0.15310  0.01430  0.77780  Biso   1.000  H
  H594     1.0000 0.65310  0.51430  0.77780  Biso   1.000  H
  H595     1.0000 0.34690  0.98570  0.77780  Biso   1.000  H
  H596     1.0000 0.84690  0.01430  0.72220  Biso   1.000  H
  H597     1.0000 0.65310  0.98570  0.72220  Biso   1.000  H
  H598     1.0000 0.84690  0.48570  0.77780  Biso   1.000  H
  H599     1.0000 0.34690  0.51430  0.72220  Biso   1.000  H
  H600     1.0000 0.15310  0.48570  0.72220  Biso   1.000  H
  H601     1.0000 0.84690  0.98570  0.22220  Biso   1.000  H
  H602     1.0000 0.34690  0.48570  0.22220  Biso   1.000  H
  H603     1.0000 0.65310  0.01430  0.22220  Biso   1.000  H
  H604     1.0000 0.15310  0.98570  0.27780  Biso   1.000  H
  H605     1.0000 0.34690  0.01430  0.27780  Biso   1.000  H
  H606     1.0000 0.15310  0.51430  0.22220  Biso   1.000  H
  H607     1.0000 0.65310  0.48570  0.27780  Biso   1.000  H
  H608     1.0000 0.84690  0.51430  0.27780  Biso   1.000  H
  H609     1.0000 0.10240  0.99720  0.80550  Biso   1.000  H
  H610     1.0000 0.60240  0.49720  0.80550  Biso   1.000  H
  H611     1.0000 0.39760  0.00280  0.80550  Biso   1.000  H
  H612     1.0000 0.89760  0.99720  0.69450  Biso   1.000  H
  H613     1.0000 0.60240  0.00280  0.69450  Biso   1.000  H
  H614     1.0000 0.89760  0.50280  0.80550  Biso   1.000  H
  H615     1.0000 0.39760  0.49720  0.69450  Biso   1.000  H
  H616     1.0000 0.10240  0.50280  0.69450  Biso   1.000  H
  H617     1.0000 0.89760  0.00280  0.19450  Biso   1.000  H
  H618     1.0000 0.39760  0.50280  0.19450  Biso   1.000  H
  H619     1.0000 0.60240  0.99720  0.19450  Biso   1.000  H
  H620     1.0000 0.10240  0.00280  0.30550  Biso   1.000  H
  H621     1.0000 0.39760  0.99720  0.30550  Biso   1.000  H
  H622     1.0000 0.10240  0.49720  0.19450  Biso   1.000  H
  H623     1.0000 0.60240  0.50280  0.30550  Biso   1.000  H
  H624     1.0000 0.89760  0.49720  0.30550  Biso   1.000  H
  C529     1.0000 0.13130  0.09680  0.86335  Biso   1.000  C
  C530     1.0000 0.63130  0.59680  0.86335  Biso   1.000  C
  C531     1.0000 0.36870  0.90320  0.86335  Biso   1.000  C
  C532     1.0000 0.86870  0.09680  0.63665  Biso   1.000  C
  C533     1.0000 0.63130  0.90320  0.63665  Biso   1.000  C
  C534     1.0000 0.86870  0.40320  0.86335  Biso   1.000  C
  C535     1.0000 0.36870  0.59680  0.63665  Biso   1.000  C
  C536     1.0000 0.13130  0.40320  0.63665  Biso   1.000  C
  C537     1.0000 0.86870  0.90320  0.13665  Biso   1.000  C
  C538     1.0000 0.36870  0.40320  0.13665  Biso   1.000  C
  C539     1.0000 0.63130  0.09680  0.13665  Biso   1.000  C
  C540     1.0000 0.13130  0.90320  0.36335  Biso   1.000  C
  C541     1.0000 0.36870  0.09680  0.36335  Biso   1.000  C
  C542     1.0000 0.13130  0.59680  0.13665  Biso   1.000  C
  C543     1.0000 0.63130  0.40320  0.36335  Biso   1.000  C
  C544     1.0000 0.86870  0.59680  0.36335  Biso   1.000  C
  H625     1.0000 0.13950  0.08110  0.84600  Biso   1.000  H
  H626     1.0000 0.63950  0.58110  0.84600  Biso   1.000  H
  H627     1.0000 0.36050  0.91890  0.84600  Biso   1.000  H
  H628     1.0000 0.86050  0.08110  0.65400  Biso   1.000  H
  H629     1.0000 0.63950  0.91890  0.65400  Biso   1.000  H
  H630     1.0000 0.86050  0.41890  0.84600  Biso   1.000  H
  H631     1.0000 0.36050  0.58110  0.65400  Biso   1.000  H
  H632     1.0000 0.13950  0.41890  0.65400  Biso   1.000  H
  H633     1.0000 0.86050  0.91890  0.15400  Biso   1.000  H
  H634     1.0000 0.36050  0.41890  0.15400  Biso   1.000  H
  H635     1.0000 0.63950  0.08110  0.15400  Biso   1.000  H
  H636     1.0000 0.13950  0.91890  0.34600  Biso   1.000  H
  H637     1.0000 0.36050  0.08110  0.34600  Biso   1.000  H
  H638     1.0000 0.13950  0.58110  0.15400  Biso   1.000  H
  H639     1.0000 0.63950  0.41890  0.34600  Biso   1.000  H
  H640     1.0000 0.86050  0.58110  0.34600  Biso   1.000  H
  H641     1.0000 0.09540  0.09140  0.88170  Biso   1.000  H
  H642     1.0000 0.59540  0.59140  0.88170  Biso   1.000  H
  H643     1.0000 0.40460  0.90860  0.88170  Biso   1.000  H
  H644     1.0000 0.90460  0.09140  0.61830  Biso   1.000  H
  H645     1.0000 0.59540  0.90860  0.61830  Biso   1.000  H
  H646     1.0000 0.90460  0.40860  0.88170  Biso   1.000  H
  H647     1.0000 0.40460  0.59140  0.61830  Biso   1.000  H
  H648     1.0000 0.09540  0.40860  0.61830  Biso   1.000  H
  H649     1.0000 0.90460  0.90860  0.11830  Biso   1.000  H
  H650     1.0000 0.40460  0.40860  0.11830  Biso   1.000  H
  H651     1.0000 0.59540  0.09140  0.11830  Biso   1.000  H
  H652     1.0000 0.09540  0.90860  0.38170  Biso   1.000  H
  H653     1.0000 0.40460  0.09140  0.38170  Biso   1.000  H
  H654     1.0000 0.09540  0.59140  0.11830  Biso   1.000  H
  H655     1.0000 0.59540  0.40860  0.38170  Biso   1.000  H
  H656     1.0000 0.90460  0.59140  0.38170  Biso   1.000  H
  H657     1.0000 0.17520  0.10140  0.87640  Biso   1.000  H
  H658     1.0000 0.67520  0.60140  0.87640  Biso   1.000  H
  H659     1.0000 0.32480  0.89860  0.87640  Biso   1.000  H
  H660     1.0000 0.82480  0.10140  0.62360  Biso   1.000  H
  H661     1.0000 0.67520  0.89860  0.62360  Biso   1.000  H
  H662     1.0000 0.82480  0.39860  0.87640  Biso   1.000  H
  H663     1.0000 0.32480  0.60140  0.62360  Biso   1.000  H
  H664     1.0000 0.17520  0.39860  0.62360  Biso   1.000  H
  H665     1.0000 0.82480  0.89860  0.12360  Biso   1.000  H
  H666     1.0000 0.32480  0.39860  0.12360  Biso   1.000  H
  H667     1.0000 0.67520  0.10140  0.12360  Biso   1.000  H
  H668     1.0000 0.17520  0.89860  0.37640  Biso   1.000  H
  H669     1.0000 0.32480  0.10140  0.37640  Biso   1.000  H
  H670     1.0000 0.17520  0.60140  0.12360  Biso   1.000  H
  H671     1.0000 0.67520  0.39860  0.37640  Biso   1.000  H
  H672     1.0000 0.82480  0.60140  0.37640  Biso   1.000  H
  C545     1.0000 0.10630  0.12249  0.84130  Biso   1.000  C
  C546     1.0000 0.60630  0.62249  0.84130  Biso   1.000  C
  C547     1.0000 0.39370  0.87751  0.84130  Biso   1.000  C
  C548     1.0000 0.89370  0.12249  0.65870  Biso   1.000  C
  C549     1.0000 0.60630  0.87751  0.65870  Biso   1.000  C
  C550     1.0000 0.89370  0.37751  0.84130  Biso   1.000  C
  C551     1.0000 0.39370  0.62249  0.65870  Biso   1.000  C
  C552     1.0000 0.10630  0.37751  0.65870  Biso   1.000  C
  C553     1.0000 0.89370  0.87751  0.15870  Biso   1.000  C
  C554     1.0000 0.39370  0.37751  0.15870  Biso   1.000  C
  C555     1.0000 0.60630  0.12249  0.15870  Biso   1.000  C
  C556     1.0000 0.10630  0.87751  0.34130  Biso   1.000  C
  C557     1.0000 0.39370  0.12249  0.34130  Biso   1.000  C
  C558     1.0000 0.10630  0.62249  0.15870  Biso   1.000  C
  C559     1.0000 0.60630  0.37751  0.34130  Biso   1.000  C
  C560     1.0000 0.89370  0.62249  0.34130  Biso   1.000  C
  C561     1.0000 0.11050  0.15139  0.85130  Biso   1.000  C
  C562     1.0000 0.61050  0.65139  0.85130  Biso   1.000  C
  C563     1.0000 0.38950  0.84861  0.85130  Biso   1.000  C
  C564     1.0000 0.88950  0.15139  0.64870  Biso   1.000  C
  C565     1.0000 0.61050  0.84861  0.64870  Biso   1.000  C
  C566     1.0000 0.88950  0.34861  0.85130  Biso   1.000  C
  C567     1.0000 0.38950  0.65139  0.64870  Biso   1.000  C
  C568     1.0000 0.11050  0.34861  0.64870  Biso   1.000  C
  C569     1.0000 0.88950  0.84861  0.14870  Biso   1.000  C
  C570     1.0000 0.38950  0.34861  0.14870  Biso   1.000  C
  C571     1.0000 0.61050  0.15139  0.14870  Biso   1.000  C
  C572     1.0000 0.11050  0.84861  0.35130  Biso   1.000  C
  C573     1.0000 0.38950  0.15139  0.35130  Biso   1.000  C
  C574     1.0000 0.11050  0.65139  0.14870  Biso   1.000  C
  C575     1.0000 0.61050  0.34861  0.35130  Biso   1.000  C
  C576     1.0000 0.88950  0.65139  0.35130  Biso   1.000  C
  C577     1.0000 0.08000  0.16575  0.82044  Biso   1.000  C
  C578     1.0000 0.58000  0.66575  0.82044  Biso   1.000  C
  C579     1.0000 0.42000  0.83425  0.82044  Biso   1.000  C
  C580     1.0000 0.92000  0.16575  0.67956  Biso   1.000  C
  C581     1.0000 0.58000  0.83425  0.67956  Biso   1.000  C
  C582     1.0000 0.92000  0.33425  0.82044  Biso   1.000  C
  C583     1.0000 0.42000  0.66575  0.67956  Biso   1.000  C
  C584     1.0000 0.08000  0.33425  0.67956  Biso   1.000  C
  C585     1.0000 0.92000  0.83425  0.17956  Biso   1.000  C
  C586     1.0000 0.42000  0.33425  0.17956  Biso   1.000  C
  C587     1.0000 0.58000  0.16575  0.17956  Biso   1.000  C
  C588     1.0000 0.08000  0.83425  0.32044  Biso   1.000  C
  C589     1.0000 0.42000  0.16575  0.32044  Biso   1.000  C
  C590     1.0000 0.08000  0.66575  0.17956  Biso   1.000  C
  C591     1.0000 0.58000  0.33425  0.32044  Biso   1.000  C
  C592     1.0000 0.92000  0.66575  0.32044  Biso   1.000  C
  C593     1.0000 0.07020  0.19735  0.81477  Biso   1.000  C
  C594     1.0000 0.57020  0.69735  0.81477  Biso   1.000  C
  C595     1.0000 0.42980  0.80265  0.81477  Biso   1.000  C
  C596     1.0000 0.92980  0.19735  0.68523  Biso   1.000  C
  C597     1.0000 0.57020  0.80265  0.68523  Biso   1.000  C
  C598     1.0000 0.92980  0.30265  0.81477  Biso   1.000  C
  C599     1.0000 0.42980  0.69735  0.68523  Biso   1.000  C
  C600     1.0000 0.07020  0.30265  0.68523  Biso   1.000  C
  C601     1.0000 0.92980  0.80265  0.18523  Biso   1.000  C
  C602     1.0000 0.42980  0.30265  0.18523  Biso   1.000  C
  C603     1.0000 0.57020  0.19735  0.18523  Biso   1.000  C
  C604     1.0000 0.07020  0.80265  0.31477  Biso   1.000  C
  C605     1.0000 0.42980  0.19735  0.31477  Biso   1.000  C
  C606     1.0000 0.07020  0.69735  0.18523  Biso   1.000  C
  C607     1.0000 0.57020  0.30265  0.31477  Biso   1.000  C
  C608     1.0000 0.92980  0.69735  0.31477  Biso   1.000  C
  H673     1.0000 0.03300  0.20060  0.79620  Biso   1.000  H
  H674     1.0000 0.53300  0.70060  0.79620  Biso   1.000  H
  H675     1.0000 0.46700  0.79940  0.79620  Biso   1.000  H
  H676     1.0000 0.96700  0.20060  0.70380  Biso   1.000  H
  H677     1.0000 0.53300  0.79940  0.70380  Biso   1.000  H
  H678     1.0000 0.96700  0.29940  0.79620  Biso   1.000  H
  H679     1.0000 0.46700  0.70060  0.70380  Biso   1.000  H
  H680     1.0000 0.03300  0.29940  0.70380  Biso   1.000  H
  H681     1.0000 0.96700  0.79940  0.20380  Biso   1.000  H
  H682     1.0000 0.46700  0.29940  0.20380  Biso   1.000  H
  H683     1.0000 0.53300  0.20060  0.20380  Biso   1.000  H
  H684     1.0000 0.03300  0.79940  0.29620  Biso   1.000  H
  H685     1.0000 0.46700  0.20060  0.29620  Biso   1.000  H
  H686     1.0000 0.03300  0.70060  0.20380  Biso   1.000  H
  H687     1.0000 0.53300  0.29940  0.29620  Biso   1.000  H
  H688     1.0000 0.96700  0.70060  0.29620  Biso   1.000  H
  H689     1.0000 0.11430  0.20560  0.80580  Biso   1.000  H
  H690     1.0000 0.61430  0.70560  0.80580  Biso   1.000  H
  H691     1.0000 0.38570  0.79440  0.80580  Biso   1.000  H
  H692     1.0000 0.88570  0.20560  0.69420  Biso   1.000  H
  H693     1.0000 0.61430  0.79440  0.69420  Biso   1.000  H
  H694     1.0000 0.88570  0.29440  0.80580  Biso   1.000  H
  H695     1.0000 0.38570  0.70560  0.69420  Biso   1.000  H
  H696     1.0000 0.11430  0.29440  0.69420  Biso   1.000  H
  H697     1.0000 0.88570  0.79440  0.19420  Biso   1.000  H
  H698     1.0000 0.38570  0.29440  0.19420  Biso   1.000  H
  H699     1.0000 0.61430  0.20560  0.19420  Biso   1.000  H
  H700     1.0000 0.11430  0.79440  0.30580  Biso   1.000  H
  H701     1.0000 0.38570  0.20560  0.30580  Biso   1.000  H
  H702     1.0000 0.11430  0.70560  0.19420  Biso   1.000  H
  H703     1.0000 0.61430  0.29440  0.30580  Biso   1.000  H
  H704     1.0000 0.88570  0.70560  0.30580  Biso   1.000  H
  H705     1.0000 0.05700  0.20610  0.83870  Biso   1.000  H
  H706     1.0000 0.55700  0.70610  0.83870  Biso   1.000  H
  H707     1.0000 0.44300  0.79390  0.83870  Biso   1.000  H
  H708     1.0000 0.94300  0.20610  0.66130  Biso   1.000  H
  H709     1.0000 0.55700  0.79390  0.66130  Biso   1.000  H
  H710     1.0000 0.94300  0.29390  0.83870  Biso   1.000  H
  H711     1.0000 0.44300  0.70610  0.66130  Biso   1.000  H
  H712     1.0000 0.05700  0.29390  0.66130  Biso   1.000  H
  H713     1.0000 0.94300  0.79390  0.16130  Biso   1.000  H
  H714     1.0000 0.44300  0.29390  0.16130  Biso   1.000  H
  H715     1.0000 0.55700  0.20610  0.16130  Biso   1.000  H
  H716     1.0000 0.05700  0.79390  0.33870  Biso   1.000  H
  H717     1.0000 0.44300  0.20610  0.33870  Biso   1.000  H
  H718     1.0000 0.05700  0.70610  0.16130  Biso   1.000  H
  H719     1.0000 0.55700  0.29390  0.33870  Biso   1.000  H
  H720     1.0000 0.94300  0.70610  0.33870  Biso   1.000  H
  C609     1.0000 0.05640  0.14290  0.93912  Biso   1.000  C
  C610     1.0000 0.55640  0.64290  0.93912  Biso   1.000  C
  C611     1.0000 0.44360  0.85710  0.93912  Biso   1.000  C
  C612     1.0000 0.94360  0.14290  0.56088  Biso   1.000  C
  C613     1.0000 0.55640  0.85710  0.56088  Biso   1.000  C
  C614     1.0000 0.94360  0.35710  0.93912  Biso   1.000  C
  C615     1.0000 0.44360  0.64290  0.56088  Biso   1.000  C
  C616     1.0000 0.05640  0.35710  0.56088  Biso   1.000  C
  C617     1.0000 0.94360  0.85710  0.06088  Biso   1.000  C
  C618     1.0000 0.44360  0.35710  0.06088  Biso   1.000  C
  C619     1.0000 0.55640  0.14290  0.06088  Biso   1.000  C
  C620     1.0000 0.05640  0.85710  0.43912  Biso   1.000  C
  C621     1.0000 0.44360  0.14290  0.43912  Biso   1.000  C
  C622     1.0000 0.05640  0.64290  0.06088  Biso   1.000  C
  C623     1.0000 0.55640  0.35710  0.43912  Biso   1.000  C
  C624     1.0000 0.94360  0.64290  0.43912  Biso   1.000  C
  H721     1.0000 0.07110  0.13110  0.96040  Biso   1.000  H
  H722     1.0000 0.57110  0.63110  0.96040  Biso   1.000  H
  H723     1.0000 0.42890  0.86890  0.96040  Biso   1.000  H
  H724     1.0000 0.92890  0.13110  0.53960  Biso   1.000  H
  H725     1.0000 0.57110  0.86890  0.53960  Biso   1.000  H
  H726     1.0000 0.92890  0.36890  0.96040  Biso   1.000  H
  H727     1.0000 0.42890  0.63110  0.53960  Biso   1.000  H
  H728     1.0000 0.07110  0.36890  0.53960  Biso   1.000  H
  H729     1.0000 0.92890  0.86890  0.03960  Biso   1.000  H
  H730     1.0000 0.42890  0.36890  0.03960  Biso   1.000  H
  H731     1.0000 0.57110  0.13110  0.03960  Biso   1.000  H
  H732     1.0000 0.07110  0.86890  0.46040  Biso   1.000  H
  H733     1.0000 0.42890  0.13110  0.46040  Biso   1.000  H
  H734     1.0000 0.07110  0.63110  0.03960  Biso   1.000  H
  H735     1.0000 0.57110  0.36890  0.46040  Biso   1.000  H
  H736     1.0000 0.92890  0.63110  0.46040  Biso   1.000  H
  H737     1.0000 0.03720  0.13090  0.91920  Biso   1.000  H
  H738     1.0000 0.53720  0.63090  0.91920  Biso   1.000  H
  H739     1.0000 0.46280  0.86910  0.91920  Biso   1.000  H
  H740     1.0000 0.96280  0.13090  0.58080  Biso   1.000  H
  H741     1.0000 0.53720  0.86910  0.58080  Biso   1.000  H
  H742     1.0000 0.96280  0.36910  0.91920  Biso   1.000  H
  H743     1.0000 0.46280  0.63090  0.58080  Biso   1.000  H
  H744     1.0000 0.03720  0.36910  0.58080  Biso   1.000  H
  H745     1.0000 0.96280  0.86910  0.08080  Biso   1.000  H
  H746     1.0000 0.46280  0.36910  0.08080  Biso   1.000  H
  H747     1.0000 0.53720  0.13090  0.08080  Biso   1.000  H
  H748     1.0000 0.03720  0.86910  0.41920  Biso   1.000  H
  H749     1.0000 0.46280  0.13090  0.41920  Biso   1.000  H
  H750     1.0000 0.03720  0.63090  0.08080  Biso   1.000  H
  H751     1.0000 0.53720  0.36910  0.41920  Biso   1.000  H
  H752     1.0000 0.96280  0.63090  0.41920  Biso   1.000  H
  H753     1.0000 0.02040  0.15630  0.94750  Biso   1.000  H
  H754     1.0000 0.52040  0.65630  0.94750  Biso   1.000  H
  H755     1.0000 0.47960  0.84370  0.94750  Biso   1.000  H
  H756     1.0000 0.97960  0.15630  0.55250  Biso   1.000  H
  H757     1.0000 0.52040  0.84370  0.55250  Biso   1.000  H
  H758     1.0000 0.97960  0.34370  0.94750  Biso   1.000  H
  H759     1.0000 0.47960  0.65630  0.55250  Biso   1.000  H
  H760     1.0000 0.02040  0.34370  0.55250  Biso   1.000  H
  H761     1.0000 0.97960  0.84370  0.05250  Biso   1.000  H
  H762     1.0000 0.47960  0.34370  0.05250  Biso   1.000  H
  H763     1.0000 0.52040  0.15630  0.05250  Biso   1.000  H
  H764     1.0000 0.02040  0.84370  0.44750  Biso   1.000  H
  H765     1.0000 0.47960  0.15630  0.44750  Biso   1.000  H
  H766     1.0000 0.02040  0.65630  0.05250  Biso   1.000  H
  H767     1.0000 0.52040  0.34370  0.44750  Biso   1.000  H
  H768     1.0000 0.97960  0.65630  0.44750  Biso   1.000  H
  C625     1.0000 0.11950  0.15900  0.92410  Biso   1.000  C
  C626     1.0000 0.61950  0.65900  0.92410  Biso   1.000  C
  C627     1.0000 0.38050  0.84100  0.92410  Biso   1.000  C
  C628     1.0000 0.88050  0.15900  0.57590  Biso   1.000  C
  C629     1.0000 0.61950  0.84100  0.57590  Biso   1.000  C
  C630     1.0000 0.88050  0.34100  0.92410  Biso   1.000  C
  C631     1.0000 0.38050  0.65900  0.57590  Biso   1.000  C
  C632     1.0000 0.11950  0.34100  0.57590  Biso   1.000  C
  C633     1.0000 0.88050  0.84100  0.07590  Biso   1.000  C
  C634     1.0000 0.38050  0.34100  0.07590  Biso   1.000  C
  C635     1.0000 0.61950  0.15900  0.07590  Biso   1.000  C
  C636     1.0000 0.11950  0.84100  0.42410  Biso   1.000  C
  C637     1.0000 0.38050  0.15900  0.42410  Biso   1.000  C
  C638     1.0000 0.11950  0.65900  0.07590  Biso   1.000  C
  C639     1.0000 0.61950  0.34100  0.42410  Biso   1.000  C
  C640     1.0000 0.88050  0.65900  0.42410  Biso   1.000  C
  C641     1.0000 0.14160  0.16329  0.88668  Biso   1.000  C
  C642     1.0000 0.64160  0.66329  0.88668  Biso   1.000  C
  C643     1.0000 0.35840  0.83671  0.88668  Biso   1.000  C
  C644     1.0000 0.85840  0.16329  0.61332  Biso   1.000  C
  C645     1.0000 0.64160  0.83671  0.61332  Biso   1.000  C
  C646     1.0000 0.85840  0.33671  0.88668  Biso   1.000  C
  C647     1.0000 0.35840  0.66329  0.61332  Biso   1.000  C
  C648     1.0000 0.14160  0.33671  0.61332  Biso   1.000  C
  C649     1.0000 0.85840  0.83671  0.11332  Biso   1.000  C
  C650     1.0000 0.35840  0.33671  0.11332  Biso   1.000  C
  C651     1.0000 0.64160  0.16329  0.11332  Biso   1.000  C
  C652     1.0000 0.14160  0.83671  0.38668  Biso   1.000  C
  C653     1.0000 0.35840  0.16329  0.38668  Biso   1.000  C
  C654     1.0000 0.14160  0.66329  0.11332  Biso   1.000  C
  C655     1.0000 0.64160  0.33671  0.38668  Biso   1.000  C
  C656     1.0000 0.85840  0.66329  0.38668  Biso   1.000  C
  C657     1.0000 0.20300  0.18044  0.88961  Biso   1.000  C
  C658     1.0000 0.70300  0.68044  0.88961  Biso   1.000  C
  C659     1.0000 0.29700  0.81956  0.88961  Biso   1.000  C
  C660     1.0000 0.79700  0.18044  0.61039  Biso   1.000  C
  C661     1.0000 0.70300  0.81956  0.61039  Biso   1.000  C
  C662     1.0000 0.79700  0.31956  0.88961  Biso   1.000  C
  C663     1.0000 0.29700  0.68044  0.61039  Biso   1.000  C
  C664     1.0000 0.20300  0.31956  0.61039  Biso   1.000  C
  C665     1.0000 0.79700  0.81956  0.11039  Biso   1.000  C
  C666     1.0000 0.29700  0.31956  0.11039  Biso   1.000  C
  C667     1.0000 0.70300  0.18044  0.11039  Biso   1.000  C
  C668     1.0000 0.20300  0.81956  0.38961  Biso   1.000  C
  C669     1.0000 0.29700  0.18044  0.38961  Biso   1.000  C
  C670     1.0000 0.20300  0.68044  0.11039  Biso   1.000  C
  C671     1.0000 0.70300  0.31956  0.38961  Biso   1.000  C
  C672     1.0000 0.79700  0.68044  0.38961  Biso   1.000  C
  C673     1.0000 0.25010  0.19177  0.85895  Biso   1.000  C
  C674     1.0000 0.75010  0.69177  0.85895  Biso   1.000  C
  C675     1.0000 0.24990  0.80823  0.85895  Biso   1.000  C
  C676     1.0000 0.74990  0.19177  0.64105  Biso   1.000  C
  C677     1.0000 0.75010  0.80823  0.64105  Biso   1.000  C
  C678     1.0000 0.74990  0.30823  0.85895  Biso   1.000  C
  C679     1.0000 0.24990  0.69177  0.64105  Biso   1.000  C
  C680     1.0000 0.25010  0.30823  0.64105  Biso   1.000  C
  C681     1.0000 0.74990  0.80823  0.14105  Biso   1.000  C
  C682     1.0000 0.24990  0.30823  0.14105  Biso   1.000  C
  C683     1.0000 0.75010  0.19177  0.14105  Biso   1.000  C
  C684     1.0000 0.25010  0.80823  0.35895  Biso   1.000  C
  C685     1.0000 0.24990  0.19177  0.35895  Biso   1.000  C
  C686     1.0000 0.25010  0.69177  0.14105  Biso   1.000  C
  C687     1.0000 0.75010  0.30823  0.35895  Biso   1.000  C
  C688     1.0000 0.74990  0.69177  0.35895  Biso   1.000  C
  H769     1.0000 0.29570  0.19700  0.86970  Biso   1.000  H
  H770     1.0000 0.79570  0.69700  0.86970  Biso   1.000  H
  H771     1.0000 0.20430  0.80300  0.86970  Biso   1.000  H
  H772     1.0000 0.70430  0.19700  0.63030  Biso   1.000  H
  H773     1.0000 0.79570  0.80300  0.63030  Biso   1.000  H
  H774     1.0000 0.70430  0.30300  0.86970  Biso   1.000  H
  H775     1.0000 0.20430  0.69700  0.63030  Biso   1.000  H
  H776     1.0000 0.29570  0.30300  0.63030  Biso   1.000  H
  H777     1.0000 0.70430  0.80300  0.13030  Biso   1.000  H
  H778     1.0000 0.20430  0.30300  0.13030  Biso   1.000  H
  H779     1.0000 0.79570  0.19700  0.13030  Biso   1.000  H
  H780     1.0000 0.29570  0.80300  0.36970  Biso   1.000  H
  H781     1.0000 0.20430  0.19700  0.36970  Biso   1.000  H
  H782     1.0000 0.29570  0.69700  0.13030  Biso   1.000  H
  H783     1.0000 0.79570  0.30300  0.36970  Biso   1.000  H
  H784     1.0000 0.70430  0.69700  0.36970  Biso   1.000  H
  H785     1.0000 0.22820  0.20840  0.84760  Biso   1.000  H
  H786     1.0000 0.72820  0.70840  0.84760  Biso   1.000  H
  H787     1.0000 0.27180  0.79160  0.84760  Biso   1.000  H
  H788     1.0000 0.77180  0.20840  0.65240  Biso   1.000  H
  H789     1.0000 0.72820  0.79160  0.65240  Biso   1.000  H
  H790     1.0000 0.77180  0.29160  0.84760  Biso   1.000  H
  H791     1.0000 0.27180  0.70840  0.65240  Biso   1.000  H
  H792     1.0000 0.22820  0.29160  0.65240  Biso   1.000  H
  H793     1.0000 0.77180  0.79160  0.15240  Biso   1.000  H
  H794     1.0000 0.27180  0.29160  0.15240  Biso   1.000  H
  H795     1.0000 0.72820  0.20840  0.15240  Biso   1.000  H
  H796     1.0000 0.22820  0.79160  0.34760  Biso   1.000  H
  H797     1.0000 0.27180  0.20840  0.34760  Biso   1.000  H
  H798     1.0000 0.22820  0.70840  0.15240  Biso   1.000  H
  H799     1.0000 0.72820  0.29160  0.34760  Biso   1.000  H
  H800     1.0000 0.77180  0.70840  0.34760  Biso   1.000  H
  H801     1.0000 0.25680  0.17730  0.83970  Biso   1.000  H
  H802     1.0000 0.75680  0.67730  0.83970  Biso   1.000  H
  H803     1.0000 0.24320  0.82270  0.83970  Biso   1.000  H
  H804     1.0000 0.74320  0.17730  0.66030  Biso   1.000  H
  H805     1.0000 0.75680  0.82270  0.66030  Biso   1.000  H
  H806     1.0000 0.74320  0.32270  0.83970  Biso   1.000  H
  H807     1.0000 0.24320  0.67730  0.66030  Biso   1.000  H
  H808     1.0000 0.25680  0.32270  0.66030  Biso   1.000  H
  H809     1.0000 0.74320  0.82270  0.16030  Biso   1.000  H
  H810     1.0000 0.24320  0.32270  0.16030  Biso   1.000  H
  H811     1.0000 0.75680  0.17730  0.16030  Biso   1.000  H
  H812     1.0000 0.25680  0.82270  0.33970  Biso   1.000  H
  H813     1.0000 0.24320  0.17730  0.33970  Biso   1.000  H
  H814     1.0000 0.25680  0.67730  0.16030  Biso   1.000  H
  H815     1.0000 0.75680  0.32270  0.33970  Biso   1.000  H
  H816     1.0000 0.74320  0.67730  0.33970  Biso   1.000  H
  C689     1.0000 0.45510  0.21886  0.93011  Biso   1.000  C
  C690     1.0000 0.95510  0.71886  0.93011  Biso   1.000  C
  C691     1.0000 0.04490  0.78114  0.93011  Biso   1.000  C
  C692     1.0000 0.54490  0.21886  0.56989  Biso   1.000  C
  C693     1.0000 0.95510  0.78114  0.56989  Biso   1.000  C
  C694     1.0000 0.54490  0.28114  0.93011  Biso   1.000  C
  C695     1.0000 0.04490  0.71886  0.56989  Biso   1.000  C
  C696     1.0000 0.45510  0.28114  0.56989  Biso   1.000  C
  C697     1.0000 0.54490  0.78114  0.06989  Biso   1.000  C
  C698     1.0000 0.04490  0.28114  0.06989  Biso   1.000  C
  C699     1.0000 0.95510  0.21886  0.06989  Biso   1.000  C
  C700     1.0000 0.45510  0.78114  0.43011  Biso   1.000  C
  C701     1.0000 0.04490  0.21886  0.43011  Biso   1.000  C
  C702     1.0000 0.45510  0.71886  0.06989  Biso   1.000  C
  C703     1.0000 0.95510  0.28114  0.43011  Biso   1.000  C
  C704     1.0000 0.54490  0.71886  0.43011  Biso   1.000  C
  H817     1.0000 0.43520  0.20010  0.92530  Biso   1.000  H
  H818     1.0000 0.93520  0.70010  0.92530  Biso   1.000  H
  H819     1.0000 0.06480  0.79990  0.92530  Biso   1.000  H
  H820     1.0000 0.56480  0.20010  0.57470  Biso   1.000  H
  H821     1.0000 0.93520  0.79990  0.57470  Biso   1.000  H
  H822     1.0000 0.56480  0.29990  0.92530  Biso   1.000  H
  H823     1.0000 0.06480  0.70010  0.57470  Biso   1.000  H
  H824     1.0000 0.43520  0.29990  0.57470  Biso   1.000  H
  H825     1.0000 0.56480  0.79990  0.07470  Biso   1.000  H
  H826     1.0000 0.06480  0.29990  0.07470  Biso   1.000  H
  H827     1.0000 0.93520  0.20010  0.07470  Biso   1.000  H
  H828     1.0000 0.43520  0.79990  0.42530  Biso   1.000  H
  H829     1.0000 0.06480  0.20010  0.42530  Biso   1.000  H
  H830     1.0000 0.43520  0.70010  0.07470  Biso   1.000  H
  H831     1.0000 0.93520  0.29990  0.42530  Biso   1.000  H
  H832     1.0000 0.56480  0.70010  0.42530  Biso   1.000  H
  H833     1.0000 0.50650  0.21750  0.93130  Biso   1.000  H
  H834     1.0000 0.00650  0.71750  0.93130  Biso   1.000  H
  H835     1.0000 0.99350  0.78250  0.93130  Biso   1.000  H
  H836     1.0000 0.49350  0.21750  0.56870  Biso   1.000  H
  H837     1.0000 0.00650  0.78250  0.56870  Biso   1.000  H
  H838     1.0000 0.49350  0.28250  0.93130  Biso   1.000  H
  H839     1.0000 0.99350  0.71750  0.56870  Biso   1.000  H
  H840     1.0000 0.50650  0.28250  0.56870  Biso   1.000  H
  H841     1.0000 0.49350  0.78250  0.06870  Biso   1.000  H
  H842     1.0000 0.99350  0.28250  0.06870  Biso   1.000  H
  H843     1.0000 0.00650  0.21750  0.06870  Biso   1.000  H
  H844     1.0000 0.50650  0.78250  0.43130  Biso   1.000  H
  H845     1.0000 0.99350  0.21750  0.43130  Biso   1.000  H
  H846     1.0000 0.50650  0.71750  0.06870  Biso   1.000  H
  H847     1.0000 0.00650  0.28250  0.43130  Biso   1.000  H
  H848     1.0000 0.49350  0.71750  0.43130  Biso   1.000  H
  H849     1.0000 0.44170  0.23170  0.90980  Biso   1.000  H
  H850     1.0000 0.94170  0.73170  0.90980  Biso   1.000  H
  H851     1.0000 0.05830  0.76830  0.90980  Biso   1.000  H
  H852     1.0000 0.55830  0.23170  0.59020  Biso   1.000  H
  H853     1.0000 0.94170  0.76830  0.59020  Biso   1.000  H
  H854     1.0000 0.55830  0.26830  0.90980  Biso   1.000  H
  H855     1.0000 0.05830  0.73170  0.59020  Biso   1.000  H
  H856     1.0000 0.44170  0.26830  0.59020  Biso   1.000  H
  H857     1.0000 0.55830  0.76830  0.09020  Biso   1.000  H
  H858     1.0000 0.05830  0.26830  0.09020  Biso   1.000  H
  H859     1.0000 0.94170  0.23170  0.09020  Biso   1.000  H
  H860     1.0000 0.44170  0.76830  0.40980  Biso   1.000  H
  H861     1.0000 0.05830  0.23170  0.40980  Biso   1.000  H
  H862     1.0000 0.44170  0.73170  0.09020  Biso   1.000  H
  H863     1.0000 0.94170  0.26830  0.40980  Biso   1.000  H
  H864     1.0000 0.55830  0.73170  0.40980  Biso   1.000  H
  C705     1.0000 0.42710  0.23009  0.96741  Biso   1.000  C
  C706     1.0000 0.92710  0.73009  0.96741  Biso   1.000  C
  C707     1.0000 0.07290  0.76991  0.96741  Biso   1.000  C
  C708     1.0000 0.57290  0.23009  0.53259  Biso   1.000  C
  C709     1.0000 0.92710  0.76991  0.53259  Biso   1.000  C
  C710     1.0000 0.57290  0.26991  0.96741  Biso   1.000  C
  C711     1.0000 0.07290  0.73009  0.53259  Biso   1.000  C
  C712     1.0000 0.42710  0.26991  0.53259  Biso   1.000  C
  C713     1.0000 0.57290  0.76991  0.03259  Biso   1.000  C
  C714     1.0000 0.07290  0.26991  0.03259  Biso   1.000  C
  C715     1.0000 0.92710  0.23009  0.03259  Biso   1.000  C
  C716     1.0000 0.42710  0.76991  0.46741  Biso   1.000  C
  C717     1.0000 0.07290  0.23009  0.46741  Biso   1.000  C
  C718     1.0000 0.42710  0.73009  0.03259  Biso   1.000  C
  C719     1.0000 0.92710  0.26991  0.46741  Biso   1.000  C
  C720     1.0000 0.57290  0.73009  0.46741  Biso   1.000  C
  C721     1.0000 0.46240  0.24511  0.99657  Biso   1.000  C
  C722     1.0000 0.96240  0.74511  0.99657  Biso   1.000  C
  C723     1.0000 0.03760  0.75489  0.99657  Biso   1.000  C
  C724     1.0000 0.53760  0.24511  0.50343  Biso   1.000  C
  C725     1.0000 0.96240  0.75489  0.50343  Biso   1.000  C
  C726     1.0000 0.53760  0.25489  0.99657  Biso   1.000  C
  C727     1.0000 0.03760  0.74511  0.50343  Biso   1.000  C
  C728     1.0000 0.46240  0.25489  0.50343  Biso   1.000  C
  C729     1.0000 0.53760  0.75489  0.00343  Biso   1.000  C
  C730     1.0000 0.03760  0.25489  0.00343  Biso   1.000  C
  C731     1.0000 0.96240  0.24511  0.00343  Biso   1.000  C
  C732     1.0000 0.46240  0.75489  0.49657  Biso   1.000  C
  C733     1.0000 0.03760  0.24511  0.49657  Biso   1.000  C
  C734     1.0000 0.46240  0.74511  0.00343  Biso   1.000  C
  C735     1.0000 0.96240  0.25489  0.49657  Biso   1.000  C
  C736     1.0000 0.53760  0.74511  0.49657  Biso   1.000  C
  C737     1.0000 0.41070  0.24868  0.02512  Biso   1.000  C
  C738     1.0000 0.91070  0.74868  0.02512  Biso   1.000  C
  C739     1.0000 0.08930  0.75132  0.02512  Biso   1.000  C
  C740     1.0000 0.58930  0.24868  0.47488  Biso   1.000  C
  C741     1.0000 0.91070  0.75132  0.47488  Biso   1.000  C
  C742     1.0000 0.58930  0.25132  0.02512  Biso   1.000  C
  C743     1.0000 0.08930  0.74868  0.47488  Biso   1.000  C
  C744     1.0000 0.41070  0.25132  0.47488  Biso   1.000  C
  C745     1.0000 0.58930  0.75132  0.97488  Biso   1.000  C
  C746     1.0000 0.08930  0.25132  0.97488  Biso   1.000  C
  C747     1.0000 0.91070  0.24868  0.97488  Biso   1.000  C
  C748     1.0000 0.41070  0.75132  0.52512  Biso   1.000  C
  C749     1.0000 0.08930  0.24868  0.52512  Biso   1.000  C
  C750     1.0000 0.41070  0.74868  0.97488  Biso   1.000  C
  C751     1.0000 0.91070  0.25132  0.52512  Biso   1.000  C
  C752     1.0000 0.58930  0.74868  0.52512  Biso   1.000  C
  C753     1.0000 0.41600  0.26273  0.06369  Biso   1.000  C
  C754     1.0000 0.91600  0.76273  0.06369  Biso   1.000  C
  C755     1.0000 0.08400  0.73727  0.06369  Biso   1.000  C
  C756     1.0000 0.58400  0.26273  0.43631  Biso   1.000  C
  C757     1.0000 0.91600  0.73727  0.43631  Biso   1.000  C
  C758     1.0000 0.58400  0.23727  0.06369  Biso   1.000  C
  C759     1.0000 0.08400  0.76273  0.43631  Biso   1.000  C
  C760     1.0000 0.41600  0.23727  0.43631  Biso   1.000  C
  C761     1.0000 0.58400  0.73727  0.93631  Biso   1.000  C
  C762     1.0000 0.08400  0.23727  0.93631  Biso   1.000  C
  C763     1.0000 0.91600  0.26273  0.93631  Biso   1.000  C
  C764     1.0000 0.41600  0.73727  0.56369  Biso   1.000  C
  C765     1.0000 0.08400  0.26273  0.56369  Biso   1.000  C
  C766     1.0000 0.41600  0.76273  0.93631  Biso   1.000  C
  C767     1.0000 0.91600  0.23727  0.56369  Biso   1.000  C
  C768     1.0000 0.58400  0.76273  0.56369  Biso   1.000  C
  H865     1.0000 0.36980  0.26990  0.07110  Biso   1.000  H
  H866     1.0000 0.86980  0.76990  0.07110  Biso   1.000  H
  H867     1.0000 0.13020  0.73010  0.07110  Biso   1.000  H
  H868     1.0000 0.63020  0.26990  0.42890  Biso   1.000  H
  H869     1.0000 0.86980  0.73010  0.42890  Biso   1.000  H
  H870     1.0000 0.63020  0.23010  0.07110  Biso   1.000  H
  H871     1.0000 0.13020  0.76990  0.42890  Biso   1.000  H
  H872     1.0000 0.36980  0.23010  0.42890  Biso   1.000  H
  H873     1.0000 0.63020  0.73010  0.92890  Biso   1.000  H
  H874     1.0000 0.13020  0.23010  0.92890  Biso   1.000  H
  H875     1.0000 0.86980  0.26990  0.92890  Biso   1.000  H
  H876     1.0000 0.36980  0.73010  0.57110  Biso   1.000  H
  H877     1.0000 0.13020  0.26990  0.57110  Biso   1.000  H
  H878     1.0000 0.36980  0.76990  0.92890  Biso   1.000  H
  H879     1.0000 0.86980  0.23010  0.57110  Biso   1.000  H
  H880     1.0000 0.63020  0.76990  0.57110  Biso   1.000  H
  H881     1.0000 0.44960  0.27840  0.06250  Biso   1.000  H
  H882     1.0000 0.94960  0.77840  0.06250  Biso   1.000  H
  H883     1.0000 0.05040  0.72160  0.06250  Biso   1.000  H
  H884     1.0000 0.55040  0.27840  0.43750  Biso   1.000  H
  H885     1.0000 0.94960  0.72160  0.43750  Biso   1.000  H
  H886     1.0000 0.55040  0.22160  0.06250  Biso   1.000  H
  H887     1.0000 0.05040  0.77840  0.43750  Biso   1.000  H
  H888     1.0000 0.44960  0.22160  0.43750  Biso   1.000  H
  H889     1.0000 0.55040  0.72160  0.93750  Biso   1.000  H
  H890     1.0000 0.05040  0.22160  0.93750  Biso   1.000  H
  H891     1.0000 0.94960  0.27840  0.93750  Biso   1.000  H
  H892     1.0000 0.44960  0.72160  0.56250  Biso   1.000  H
  H893     1.0000 0.05040  0.27840  0.56250  Biso   1.000  H
  H894     1.0000 0.44960  0.77840  0.93750  Biso   1.000  H
  H895     1.0000 0.94960  0.22160  0.56250  Biso   1.000  H
  H896     1.0000 0.55040  0.77840  0.56250  Biso   1.000  H
  H897     1.0000 0.43210  0.24890  0.08220  Biso   1.000  H
  H898     1.0000 0.93210  0.74890  0.08220  Biso   1.000  H
  H899     1.0000 0.06790  0.75110  0.08220  Biso   1.000  H
  H900     1.0000 0.56790  0.24890  0.41780  Biso   1.000  H
  H901     1.0000 0.93210  0.75110  0.41780  Biso   1.000  H
  H902     1.0000 0.56790  0.25110  0.08220  Biso   1.000  H
  H903     1.0000 0.06790  0.74890  0.41780  Biso   1.000  H
  H904     1.0000 0.43210  0.25110  0.41780  Biso   1.000  H
  H905     1.0000 0.56790  0.75110  0.91780  Biso   1.000  H
  H906     1.0000 0.06790  0.25110  0.91780  Biso   1.000  H
  H907     1.0000 0.93210  0.24890  0.91780  Biso   1.000  H
  H908     1.0000 0.43210  0.75110  0.58220  Biso   1.000  H
  H909     1.0000 0.06790  0.24890  0.58220  Biso   1.000  H
  H910     1.0000 0.43210  0.74890  0.91780  Biso   1.000  H
  H911     1.0000 0.93210  0.25110  0.58220  Biso   1.000  H
  H912     1.0000 0.56790  0.74890  0.58220  Biso   1.000  H
  C769     1.0000 0.76920  0.77832  0.86509  Biso   1.000  C
  C770     1.0000 0.26920  0.27832  0.86509  Biso   1.000  C
  C771     1.0000 0.73080  0.22168  0.86509  Biso   1.000  C
  C772     1.0000 0.23080  0.77832  0.63491  Biso   1.000  C
  C773     1.0000 0.26920  0.22168  0.63491  Biso   1.000  C
  C774     1.0000 0.23080  0.72168  0.86509  Biso   1.000  C
  C775     1.0000 0.73080  0.27832  0.63491  Biso   1.000  C
  C776     1.0000 0.76920  0.72168  0.63491  Biso   1.000  C
  C777     1.0000 0.23080  0.22168  0.13491  Biso   1.000  C
  C778     1.0000 0.73080  0.72168  0.13491  Biso   1.000  C
  C779     1.0000 0.26920  0.77832  0.13491  Biso   1.000  C
  C780     1.0000 0.76920  0.22168  0.36509  Biso   1.000  C
  C781     1.0000 0.73080  0.77832  0.36509  Biso   1.000  C
  C782     1.0000 0.76920  0.27832  0.13491  Biso   1.000  C
  C783     1.0000 0.26920  0.72168  0.36509  Biso   1.000  C
  C784     1.0000 0.23080  0.27832  0.36509  Biso   1.000  C
  H913     1.0000 0.78360  0.75860  0.86840  Biso   1.000  H
  H914     1.0000 0.28360  0.25860  0.86840  Biso   1.000  H
  H915     1.0000 0.71640  0.24140  0.86840  Biso   1.000  H
  H916     1.0000 0.21640  0.75860  0.63160  Biso   1.000  H
  H917     1.0000 0.28360  0.24140  0.63160  Biso   1.000  H
  H918     1.0000 0.21640  0.74140  0.86840  Biso   1.000  H
  H919     1.0000 0.71640  0.25860  0.63160  Biso   1.000  H
  H920     1.0000 0.78360  0.74140  0.63160  Biso   1.000  H
  H921     1.0000 0.21640  0.24140  0.13160  Biso   1.000  H
  H922     1.0000 0.71640  0.74140  0.13160  Biso   1.000  H
  H923     1.0000 0.28360  0.75860  0.13160  Biso   1.000  H
  H924     1.0000 0.78360  0.24140  0.36840  Biso   1.000  H
  H925     1.0000 0.71640  0.75860  0.36840  Biso   1.000  H
  H926     1.0000 0.78360  0.25860  0.13160  Biso   1.000  H
  H927     1.0000 0.28360  0.74140  0.36840  Biso   1.000  H
  H928     1.0000 0.21640  0.25860  0.36840  Biso   1.000  H
  H929     1.0000 0.71860  0.78000  0.86970  Biso   1.000  H
  H930     1.0000 0.21860  0.28000  0.86970  Biso   1.000  H
  H931     1.0000 0.78140  0.22000  0.86970  Biso   1.000  H
  H932     1.0000 0.28140  0.78000  0.63030  Biso   1.000  H
  H933     1.0000 0.21860  0.22000  0.63030  Biso   1.000  H
  H934     1.0000 0.28140  0.72000  0.86970  Biso   1.000  H
  H935     1.0000 0.78140  0.28000  0.63030  Biso   1.000  H
  H936     1.0000 0.71860  0.72000  0.63030  Biso   1.000  H
  H937     1.0000 0.28140  0.22000  0.13030  Biso   1.000  H
  H938     1.0000 0.78140  0.72000  0.13030  Biso   1.000  H
  H939     1.0000 0.21860  0.78000  0.13030  Biso   1.000  H
  H940     1.0000 0.71860  0.22000  0.36970  Biso   1.000  H
  H941     1.0000 0.78140  0.78000  0.36970  Biso   1.000  H
  H942     1.0000 0.71860  0.28000  0.13030  Biso   1.000  H
  H943     1.0000 0.21860  0.72000  0.36970  Biso   1.000  H
  H944     1.0000 0.28140  0.28000  0.36970  Biso   1.000  H
  H945     1.0000 0.77980  0.78430  0.83940  Biso   1.000  H
  H946     1.0000 0.27980  0.28430  0.83940  Biso   1.000  H
  H947     1.0000 0.72020  0.21570  0.83940  Biso   1.000  H
  H948     1.0000 0.22020  0.78430  0.66060  Biso   1.000  H
  H949     1.0000 0.27980  0.21570  0.66060  Biso   1.000  H
  H950     1.0000 0.22020  0.71570  0.83940  Biso   1.000  H
  H951     1.0000 0.72020  0.28430  0.66060  Biso   1.000  H
  H952     1.0000 0.77980  0.71570  0.66060  Biso   1.000  H
  H953     1.0000 0.22020  0.21570  0.16060  Biso   1.000  H
  H954     1.0000 0.72020  0.71570  0.16060  Biso   1.000  H
  H955     1.0000 0.27980  0.78430  0.16060  Biso   1.000  H
  H956     1.0000 0.77980  0.21570  0.33940  Biso   1.000  H
  H957     1.0000 0.72020  0.78430  0.33940  Biso   1.000  H
  H958     1.0000 0.77980  0.28430  0.16060  Biso   1.000  H
  H959     1.0000 0.27980  0.71570  0.33940  Biso   1.000  H
  H960     1.0000 0.22020  0.28430  0.33940  Biso   1.000  H
  C785     1.0000 0.80880  0.79678  0.89256  Biso   1.000  C
  C786     1.0000 0.30880  0.29678  0.89256  Biso   1.000  C
  C787     1.0000 0.69120  0.20322  0.89256  Biso   1.000  C
  C788     1.0000 0.19120  0.79678  0.60744  Biso   1.000  C
  C789     1.0000 0.30880  0.20322  0.60744  Biso   1.000  C
  C790     1.0000 0.19120  0.70322  0.89256  Biso   1.000  C
  C791     1.0000 0.69120  0.29678  0.60744  Biso   1.000  C
  C792     1.0000 0.80880  0.70322  0.60744  Biso   1.000  C
  C793     1.0000 0.19120  0.20322  0.10744  Biso   1.000  C
  C794     1.0000 0.69120  0.70322  0.10744  Biso   1.000  C
  C795     1.0000 0.30880  0.79678  0.10744  Biso   1.000  C
  C796     1.0000 0.80880  0.20322  0.39256  Biso   1.000  C
  C797     1.0000 0.69120  0.79678  0.39256  Biso   1.000  C
  C798     1.0000 0.80880  0.29678  0.10744  Biso   1.000  C
  C799     1.0000 0.30880  0.70322  0.39256  Biso   1.000  C
  C800     1.0000 0.19120  0.29678  0.39256  Biso   1.000  C
  C801     1.0000 0.85690  0.81876  0.88487  Biso   1.000  C
  C802     1.0000 0.35690  0.31876  0.88487  Biso   1.000  C
  C803     1.0000 0.64310  0.18124  0.88487  Biso   1.000  C
  C804     1.0000 0.14310  0.81876  0.61513  Biso   1.000  C
  C805     1.0000 0.35690  0.18124  0.61513  Biso   1.000  C
  C806     1.0000 0.14310  0.68124  0.88487  Biso   1.000  C
  C807     1.0000 0.64310  0.31876  0.61513  Biso   1.000  C
  C808     1.0000 0.85690  0.68124  0.61513  Biso   1.000  C
  C809     1.0000 0.14310  0.18124  0.11513  Biso   1.000  C
  C810     1.0000 0.64310  0.68124  0.11513  Biso   1.000  C
  C811     1.0000 0.35690  0.81876  0.11513  Biso   1.000  C
  C812     1.0000 0.85690  0.18124  0.38487  Biso   1.000  C
  C813     1.0000 0.64310  0.81876  0.38487  Biso   1.000  C
  C814     1.0000 0.85690  0.31876  0.11513  Biso   1.000  C
  C815     1.0000 0.35690  0.68124  0.38487  Biso   1.000  C
  C816     1.0000 0.14310  0.31876  0.38487  Biso   1.000  C
  C817     1.0000 0.87600  0.82954  0.92027  Biso   1.000  C
  C818     1.0000 0.37600  0.32954  0.92027  Biso   1.000  C
  C819     1.0000 0.62400  0.17046  0.92027  Biso   1.000  C
  C820     1.0000 0.12400  0.82954  0.57973  Biso   1.000  C
  C821     1.0000 0.37600  0.17046  0.57973  Biso   1.000  C
  C822     1.0000 0.12400  0.67046  0.92027  Biso   1.000  C
  C823     1.0000 0.62400  0.32954  0.57973  Biso   1.000  C
  C824     1.0000 0.87600  0.67046  0.57973  Biso   1.000  C
  C825     1.0000 0.12400  0.17046  0.07973  Biso   1.000  C
  C826     1.0000 0.62400  0.67046  0.07973  Biso   1.000  C
  C827     1.0000 0.37600  0.82954  0.07973  Biso   1.000  C
  C828     1.0000 0.87600  0.17046  0.42027  Biso   1.000  C
  C829     1.0000 0.62400  0.82954  0.42027  Biso   1.000  C
  C830     1.0000 0.87600  0.32954  0.07973  Biso   1.000  C
  C831     1.0000 0.37600  0.67046  0.42027  Biso   1.000  C
  C832     1.0000 0.12400  0.32954  0.42027  Biso   1.000  C
  C833     1.0000 0.92620  0.85366  0.93017  Biso   1.000  C
  C834     1.0000 0.42620  0.35366  0.93017  Biso   1.000  C
  C835     1.0000 0.57380  0.14634  0.93017  Biso   1.000  C
  C836     1.0000 0.07380  0.85366  0.56983  Biso   1.000  C
  C837     1.0000 0.42620  0.14634  0.56983  Biso   1.000  C
  C838     1.0000 0.07380  0.64634  0.93017  Biso   1.000  C
  C839     1.0000 0.57380  0.35366  0.56983  Biso   1.000  C
  C840     1.0000 0.92620  0.64634  0.56983  Biso   1.000  C
  C841     1.0000 0.07380  0.14634  0.06983  Biso   1.000  C
  C842     1.0000 0.57380  0.64634  0.06983  Biso   1.000  C
  C843     1.0000 0.42620  0.85366  0.06983  Biso   1.000  C
  C844     1.0000 0.92620  0.14634  0.43017  Biso   1.000  C
  C845     1.0000 0.57380  0.85366  0.43017  Biso   1.000  C
  C846     1.0000 0.92620  0.35366  0.06983  Biso   1.000  C
  C847     1.0000 0.42620  0.64634  0.43017  Biso   1.000  C
  C848     1.0000 0.07380  0.35366  0.43017  Biso   1.000  C
  H961     1.0000 0.96090  0.84700  0.94850  Biso   1.000  H
  H962     1.0000 0.46090  0.34700  0.94850  Biso   1.000  H
  H963     1.0000 0.53910  0.15300  0.94850  Biso   1.000  H
  H964     1.0000 0.03910  0.84700  0.55150  Biso   1.000  H
  H965     1.0000 0.46090  0.15300  0.55150  Biso   1.000  H
  H966     1.0000 0.03910  0.65300  0.94850  Biso   1.000  H
  H967     1.0000 0.53910  0.34700  0.55150  Biso   1.000  H
  H968     1.0000 0.96090  0.65300  0.55150  Biso   1.000  H
  H969     1.0000 0.03910  0.15300  0.05150  Biso   1.000  H
  H970     1.0000 0.53910  0.65300  0.05150  Biso   1.000  H
  H971     1.0000 0.46090  0.84700  0.05150  Biso   1.000  H
  H972     1.0000 0.96090  0.15300  0.44850  Biso   1.000  H
  H973     1.0000 0.53910  0.84700  0.44850  Biso   1.000  H
  H974     1.0000 0.96090  0.34700  0.05150  Biso   1.000  H
  H975     1.0000 0.46090  0.65300  0.44850  Biso   1.000  H
  H976     1.0000 0.03910  0.34700  0.44850  Biso   1.000  H
  H977     1.0000 0.95030  0.86010  0.90740  Biso   1.000  H
  H978     1.0000 0.45030  0.36010  0.90740  Biso   1.000  H
  H979     1.0000 0.54970  0.13990  0.90740  Biso   1.000  H
  H980     1.0000 0.04970  0.86010  0.59260  Biso   1.000  H
  H981     1.0000 0.45030  0.13990  0.59260  Biso   1.000  H
  H982     1.0000 0.04970  0.63990  0.90740  Biso   1.000  H
  H983     1.0000 0.54970  0.36010  0.59260  Biso   1.000  H
  H984     1.0000 0.95030  0.63990  0.59260  Biso   1.000  H
  H985     1.0000 0.04970  0.13990  0.09260  Biso   1.000  H
  H986     1.0000 0.54970  0.63990  0.09260  Biso   1.000  H
  H987     1.0000 0.45030  0.86010  0.09260  Biso   1.000  H
  H988     1.0000 0.95030  0.13990  0.40740  Biso   1.000  H
  H989     1.0000 0.54970  0.86010  0.40740  Biso   1.000  H
  H990     1.0000 0.95030  0.36010  0.09260  Biso   1.000  H
  H991     1.0000 0.45030  0.63990  0.40740  Biso   1.000  H
  H992     1.0000 0.04970  0.36010  0.40740  Biso   1.000  H
  H993     1.0000 0.89940  0.86940  0.94100  Biso   1.000  H
  H994     1.0000 0.39940  0.36940  0.94100  Biso   1.000  H
  H995     1.0000 0.60060  0.13060  0.94100  Biso   1.000  H
  H996     1.0000 0.10060  0.86940  0.55900  Biso   1.000  H
  H997     1.0000 0.39940  0.13060  0.55900  Biso   1.000  H
  H998     1.0000 0.10060  0.63060  0.94100  Biso   1.000  H
  H999     1.0000 0.60060  0.36940  0.55900  Biso   1.000  H
  H1000    1.0000 0.89940  0.63060  0.55900  Biso   1.000  H
  H1001    1.0000 0.10060  0.13060  0.05900  Biso   1.000  H
  H1002    1.0000 0.60060  0.63060  0.05900  Biso   1.000  H
  H1003    1.0000 0.39940  0.86940  0.05900  Biso   1.000  H
  H1004    1.0000 0.89940  0.13060  0.44100  Biso   1.000  H
  H1005    1.0000 0.60060  0.86940  0.44100  Biso   1.000  H
  H1006    1.0000 0.89940  0.36940  0.05900  Biso   1.000  H
  H1007    1.0000 0.39940  0.63060  0.44100  Biso   1.000  H
  H1008    1.0000 0.10060  0.36940  0.44100  Biso   1.000  H
  C849     1.0000 0.96020  0.78698  0.82372  Biso   1.000  C
  C850     1.0000 0.46020  0.28698  0.82372  Biso   1.000  C
  C851     1.0000 0.53980  0.21302  0.82372  Biso   1.000  C
  C852     1.0000 0.03980  0.78698  0.67628  Biso   1.000  C
  C853     1.0000 0.46020  0.21302  0.67628  Biso   1.000  C
  C854     1.0000 0.03980  0.71302  0.82372  Biso   1.000  C
  C855     1.0000 0.53980  0.28698  0.67628  Biso   1.000  C
  C856     1.0000 0.96020  0.71302  0.67628  Biso   1.000  C
  C857     1.0000 0.03980  0.21302  0.17628  Biso   1.000  C
  C858     1.0000 0.53980  0.71302  0.17628  Biso   1.000  C
  C859     1.0000 0.46020  0.78698  0.17628  Biso   1.000  C
  C860     1.0000 0.96020  0.21302  0.32372  Biso   1.000  C
  C861     1.0000 0.53980  0.78698  0.32372  Biso   1.000  C
  C862     1.0000 0.96020  0.28698  0.17628  Biso   1.000  C
  C863     1.0000 0.46020  0.71302  0.32372  Biso   1.000  C
  C864     1.0000 0.03980  0.28698  0.32372  Biso   1.000  C
  H1009    1.0000 0.96750  0.77940  0.79840  Biso   1.000  H
  H1010    1.0000 0.46750  0.27940  0.79840  Biso   1.000  H
  H1011    1.0000 0.53250  0.22060  0.79840  Biso   1.000  H
  H1012    1.0000 0.03250  0.77940  0.70160  Biso   1.000  H
  H1013    1.0000 0.46750  0.22060  0.70160  Biso   1.000  H
  H1014    1.0000 0.03250  0.72060  0.79840  Biso   1.000  H
  H1015    1.0000 0.53250  0.27940  0.70160  Biso   1.000  H
  H1016    1.0000 0.96750  0.72060  0.70160  Biso   1.000  H
  H1017    1.0000 0.03250  0.22060  0.20160  Biso   1.000  H
  H1018    1.0000 0.53250  0.72060  0.20160  Biso   1.000  H
  H1019    1.0000 0.46750  0.77940  0.20160  Biso   1.000  H
  H1020    1.0000 0.96750  0.22060  0.29840  Biso   1.000  H
  H1021    1.0000 0.53250  0.77940  0.29840  Biso   1.000  H
  H1022    1.0000 0.96750  0.27940  0.20160  Biso   1.000  H
  H1023    1.0000 0.46750  0.72060  0.29840  Biso   1.000  H
  H1024    1.0000 0.03250  0.27940  0.29840  Biso   1.000  H
  H1025    1.0000 0.00560  0.78870  0.83650  Biso   1.000  H
  H1026    1.0000 0.50560  0.28870  0.83650  Biso   1.000  H
  H1027    1.0000 0.49440  0.21130  0.83650  Biso   1.000  H
  H1028    1.0000 0.99440  0.78870  0.66350  Biso   1.000  H
  H1029    1.0000 0.50560  0.21130  0.66350  Biso   1.000  H
  H1030    1.0000 0.99440  0.71130  0.83650  Biso   1.000  H
  H1031    1.0000 0.49440  0.28870  0.66350  Biso   1.000  H
  H1032    1.0000 0.00560  0.71130  0.66350  Biso   1.000  H
  H1033    1.0000 0.99440  0.21130  0.16350  Biso   1.000  H
  H1034    1.0000 0.49440  0.71130  0.16350  Biso   1.000  H
  H1035    1.0000 0.50560  0.78870  0.16350  Biso   1.000  H
  H1036    1.0000 0.00560  0.21130  0.33650  Biso   1.000  H
  H1037    1.0000 0.49440  0.78870  0.33650  Biso   1.000  H
  H1038    1.0000 0.00560  0.28870  0.16350  Biso   1.000  H
  H1039    1.0000 0.50560  0.71130  0.33650  Biso   1.000  H
  H1040    1.0000 0.99440  0.28870  0.33650  Biso   1.000  H
  H1041    1.0000 0.92960  0.77420  0.83800  Biso   1.000  H
  H1042    1.0000 0.42960  0.27420  0.83800  Biso   1.000  H
  H1043    1.0000 0.57040  0.22580  0.83800  Biso   1.000  H
  H1044    1.0000 0.07040  0.77420  0.66200  Biso   1.000  H
  H1045    1.0000 0.42960  0.22580  0.66200  Biso   1.000  H
  H1046    1.0000 0.07040  0.72580  0.83800  Biso   1.000  H
  H1047    1.0000 0.57040  0.27420  0.66200  Biso   1.000  H
  H1048    1.0000 0.92960  0.72580  0.66200  Biso   1.000  H
  H1049    1.0000 0.07040  0.22580  0.16200  Biso   1.000  H
  H1050    1.0000 0.57040  0.72580  0.16200  Biso   1.000  H
  H1051    1.0000 0.42960  0.77420  0.16200  Biso   1.000  H
  H1052    1.0000 0.92960  0.22580  0.33800  Biso   1.000  H
  H1053    1.0000 0.57040  0.77420  0.33800  Biso   1.000  H
  H1054    1.0000 0.92960  0.27420  0.16200  Biso   1.000  H
  H1055    1.0000 0.42960  0.72580  0.33800  Biso   1.000  H
  H1056    1.0000 0.07040  0.27420  0.33800  Biso   1.000  H
  C865     1.0000 0.92590  0.81577  0.82103  Biso   1.000  C
  C866     1.0000 0.42590  0.31577  0.82103  Biso   1.000  C
  C867     1.0000 0.57410  0.18423  0.82103  Biso   1.000  C
  C868     1.0000 0.07410  0.81577  0.67897  Biso   1.000  C
  C869     1.0000 0.42590  0.18423  0.67897  Biso   1.000  C
  C870     1.0000 0.07410  0.68423  0.82103  Biso   1.000  C
  C871     1.0000 0.57410  0.31577  0.67897  Biso   1.000  C
  C872     1.0000 0.92590  0.68423  0.67897  Biso   1.000  C
  C873     1.0000 0.07410  0.18423  0.17897  Biso   1.000  C
  C874     1.0000 0.57410  0.68423  0.17897  Biso   1.000  C
  C875     1.0000 0.42590  0.81577  0.17897  Biso   1.000  C
  C876     1.0000 0.92590  0.18423  0.32103  Biso   1.000  C
  C877     1.0000 0.57410  0.81577  0.32103  Biso   1.000  C
  C878     1.0000 0.92590  0.31577  0.17897  Biso   1.000  C
  C879     1.0000 0.42590  0.68423  0.32103  Biso   1.000  C
  C880     1.0000 0.07410  0.31577  0.32103  Biso   1.000  C
  C881     1.0000 0.88160  0.82931  0.84726  Biso   1.000  C
  C882     1.0000 0.38160  0.32931  0.84726  Biso   1.000  C
  C883     1.0000 0.61840  0.17069  0.84726  Biso   1.000  C
  C884     1.0000 0.11840  0.82931  0.65274  Biso   1.000  C
  C885     1.0000 0.38160  0.17069  0.65274  Biso   1.000  C
  C886     1.0000 0.11840  0.67069  0.84726  Biso   1.000  C
  C887     1.0000 0.61840  0.32931  0.65274  Biso   1.000  C
  C888     1.0000 0.88160  0.67069  0.65274  Biso   1.000  C
  C889     1.0000 0.11840  0.17069  0.15274  Biso   1.000  C
  C890     1.0000 0.61840  0.67069  0.15274  Biso   1.000  C
  C891     1.0000 0.38160  0.82931  0.15274  Biso   1.000  C
  C892     1.0000 0.88160  0.17069  0.34726  Biso   1.000  C
  C893     1.0000 0.61840  0.82931  0.34726  Biso   1.000  C
  C894     1.0000 0.88160  0.32931  0.15274  Biso   1.000  C
  C895     1.0000 0.38160  0.67069  0.34726  Biso   1.000  C
  C896     1.0000 0.11840  0.32931  0.34726  Biso   1.000  C
  C897     1.0000 0.86670  0.85628  0.83134  Biso   1.000  C
  C898     1.0000 0.36670  0.35628  0.83134  Biso   1.000  C
  C899     1.0000 0.63330  0.14372  0.83134  Biso   1.000  C
  C900     1.0000 0.13330  0.85628  0.66866  Biso   1.000  C
  C901     1.0000 0.36670  0.14372  0.66866  Biso   1.000  C
  C902     1.0000 0.13330  0.64372  0.83134  Biso   1.000  C
  C903     1.0000 0.63330  0.35628  0.66866  Biso   1.000  C
  C904     1.0000 0.86670  0.64372  0.66866  Biso   1.000  C
  C905     1.0000 0.13330  0.14372  0.16866  Biso   1.000  C
  C906     1.0000 0.63330  0.64372  0.16866  Biso   1.000  C
  C907     1.0000 0.36670  0.85628  0.16866  Biso   1.000  C
  C908     1.0000 0.86670  0.14372  0.33134  Biso   1.000  C
  C909     1.0000 0.63330  0.85628  0.33134  Biso   1.000  C
  C910     1.0000 0.86670  0.35628  0.16866  Biso   1.000  C
  C911     1.0000 0.36670  0.64372  0.33134  Biso   1.000  C
  C912     1.0000 0.13330  0.35628  0.33134  Biso   1.000  C
  C913     1.0000 0.82230  0.88025  0.84679  Biso   1.000  C
  C914     1.0000 0.32230  0.38025  0.84679  Biso   1.000  C
  C915     1.0000 0.67770  0.11975  0.84679  Biso   1.000  C
  C916     1.0000 0.17770  0.88025  0.65321  Biso   1.000  C
  C917     1.0000 0.32230  0.11975  0.65321  Biso   1.000  C
  C918     1.0000 0.17770  0.61975  0.84679  Biso   1.000  C
  C919     1.0000 0.67770  0.38025  0.65321  Biso   1.000  C
  C920     1.0000 0.82230  0.61975  0.65321  Biso   1.000  C
  C921     1.0000 0.17770  0.11975  0.15321  Biso   1.000  C
  C922     1.0000 0.67770  0.61975  0.15321  Biso   1.000  C
  C923     1.0000 0.32230  0.88025  0.15321  Biso   1.000  C
  C924     1.0000 0.82230  0.11975  0.34679  Biso   1.000  C
  C925     1.0000 0.67770  0.88025  0.34679  Biso   1.000  C
  C926     1.0000 0.82230  0.38025  0.15321  Biso   1.000  C
  C927     1.0000 0.32230  0.61975  0.34679  Biso   1.000  C
  C928     1.0000 0.17770  0.38025  0.34679  Biso   1.000  C
  H1057    1.0000 0.79510  0.88880  0.82640  Biso   1.000  H
  H1058    1.0000 0.29510  0.38880  0.82640  Biso   1.000  H
  H1059    1.0000 0.70490  0.11120  0.82640  Biso   1.000  H
  H1060    1.0000 0.20490  0.88880  0.67360  Biso   1.000  H
  H1061    1.0000 0.29510  0.11120  0.67360  Biso   1.000  H
  H1062    1.0000 0.20490  0.61120  0.82640  Biso   1.000  H
  H1063    1.0000 0.70490  0.38880  0.67360  Biso   1.000  H
  H1064    1.0000 0.79510  0.61120  0.67360  Biso   1.000  H
  H1065    1.0000 0.20490  0.11120  0.17360  Biso   1.000  H
  H1066    1.0000 0.70490  0.61120  0.17360  Biso   1.000  H
  H1067    1.0000 0.29510  0.88880  0.17360  Biso   1.000  H
  H1068    1.0000 0.79510  0.11120  0.32640  Biso   1.000  H
  H1069    1.0000 0.70490  0.88880  0.32640  Biso   1.000  H
  H1070    1.0000 0.79510  0.38880  0.17360  Biso   1.000  H
  H1071    1.0000 0.29510  0.61120  0.32640  Biso   1.000  H
  H1072    1.0000 0.20490  0.38880  0.32640  Biso   1.000  H
  H1073    1.0000 0.79010  0.87290  0.86590  Biso   1.000  H
  H1074    1.0000 0.29010  0.37290  0.86590  Biso   1.000  H
  H1075    1.0000 0.70990  0.12710  0.86590  Biso   1.000  H
  H1076    1.0000 0.20990  0.87290  0.63410  Biso   1.000  H
  H1077    1.0000 0.29010  0.12710  0.63410  Biso   1.000  H
  H1078    1.0000 0.20990  0.62710  0.86590  Biso   1.000  H
  H1079    1.0000 0.70990  0.37290  0.63410  Biso   1.000  H
  H1080    1.0000 0.79010  0.62710  0.63410  Biso   1.000  H
  H1081    1.0000 0.20990  0.12710  0.13410  Biso   1.000  H
  H1082    1.0000 0.70990  0.62710  0.13410  Biso   1.000  H
  H1083    1.0000 0.29010  0.87290  0.13410  Biso   1.000  H
  H1084    1.0000 0.79010  0.12710  0.36590  Biso   1.000  H
  H1085    1.0000 0.70990  0.87290  0.36590  Biso   1.000  H
  H1086    1.0000 0.79010  0.37290  0.13410  Biso   1.000  H
  H1087    1.0000 0.29010  0.62710  0.36590  Biso   1.000  H
  H1088    1.0000 0.20990  0.37290  0.36590  Biso   1.000  H
  H1089    1.0000 0.85300  0.89450  0.85810  Biso   1.000  H
  H1090    1.0000 0.35300  0.39450  0.85810  Biso   1.000  H
  H1091    1.0000 0.64700  0.10550  0.85810  Biso   1.000  H
  H1092    1.0000 0.14700  0.89450  0.64190  Biso   1.000  H
  H1093    1.0000 0.35300  0.10550  0.64190  Biso   1.000  H
  H1094    1.0000 0.14700  0.60550  0.85810  Biso   1.000  H
  H1095    1.0000 0.64700  0.39450  0.64190  Biso   1.000  H
  H1096    1.0000 0.85300  0.60550  0.64190  Biso   1.000  H
  H1097    1.0000 0.14700  0.10550  0.14190  Biso   1.000  H
  H1098    1.0000 0.64700  0.60550  0.14190  Biso   1.000  H
  H1099    1.0000 0.35300  0.89450  0.14190  Biso   1.000  H
  H1100    1.0000 0.85300  0.10550  0.35810  Biso   1.000  H
  H1101    1.0000 0.64700  0.89450  0.35810  Biso   1.000  H
  H1102    1.0000 0.85300  0.39450  0.14190  Biso   1.000  H
  H1103    1.0000 0.35300  0.60550  0.35810  Biso   1.000  H
  H1104    1.0000 0.14700  0.39450  0.35810  Biso   1.000  H
  C929     1.0000 0.94540  0.95445  0.76181  Biso   1.000  C
  C930     1.0000 0.44540  0.45445  0.76181  Biso   1.000  C
  C931     1.0000 0.55460  0.04555  0.76181  Biso   1.000  C
  C932     1.0000 0.05460  0.95445  0.73819  Biso   1.000  C
  C933     1.0000 0.44540  0.04555  0.73819  Biso   1.000  C
  C934     1.0000 0.05460  0.54555  0.76181  Biso   1.000  C
  C935     1.0000 0.55460  0.45445  0.73819  Biso   1.000  C
  C936     1.0000 0.94540  0.54555  0.73819  Biso   1.000  C
  C937     1.0000 0.05460  0.04555  0.23819  Biso   1.000  C
  C938     1.0000 0.55460  0.54555  0.23819  Biso   1.000  C
  C939     1.0000 0.44540  0.95445  0.23819  Biso   1.000  C
  C940     1.0000 0.94540  0.04555  0.26181  Biso   1.000  C
  C941     1.0000 0.55460  0.95445  0.26181  Biso   1.000  C
  C942     1.0000 0.94540  0.45445  0.23819  Biso   1.000  C
  C943     1.0000 0.44540  0.54555  0.26181  Biso   1.000  C
  C944     1.0000 0.05460  0.45445  0.26181  Biso   1.000  C
  C945     1.0000 0.87420  0.96119  0.77907  Biso   1.000  C
  C946     1.0000 0.37420  0.46119  0.77907  Biso   1.000  C
  C947     1.0000 0.62580  0.03881  0.77907  Biso   1.000  C
  C948     1.0000 0.12580  0.96119  0.72093  Biso   1.000  C
  C949     1.0000 0.37420  0.03881  0.72093  Biso   1.000  C
  C950     1.0000 0.12580  0.53881  0.77907  Biso   1.000  C
  C951     1.0000 0.62580  0.46119  0.72093  Biso   1.000  C
  C952     1.0000 0.87420  0.53881  0.72093  Biso   1.000  C
  C953     1.0000 0.12580  0.03881  0.22093  Biso   1.000  C
  C954     1.0000 0.62580  0.53881  0.22093  Biso   1.000  C
  C955     1.0000 0.37420  0.96119  0.22093  Biso   1.000  C
  C956     1.0000 0.87420  0.03881  0.27907  Biso   1.000  C
  C957     1.0000 0.62580  0.96119  0.27907  Biso   1.000  C
  C958     1.0000 0.87420  0.46119  0.22093  Biso   1.000  C
  C959     1.0000 0.37420  0.53881  0.27907  Biso   1.000  C
  C960     1.0000 0.12580  0.46119  0.27907  Biso   1.000  C
  H1105    1.0000 0.87310  0.98100  0.78680  Biso   1.000  H
  H1106    1.0000 0.37310  0.48100  0.78680  Biso   1.000  H
  H1107    1.0000 0.62690  0.01900  0.78680  Biso   1.000  H
  H1108    1.0000 0.12690  0.98100  0.71320  Biso   1.000  H
  H1109    1.0000 0.37310  0.01900  0.71320  Biso   1.000  H
  H1110    1.0000 0.12690  0.51900  0.78680  Biso   1.000  H
  H1111    1.0000 0.62690  0.48100  0.71320  Biso   1.000  H
  H1112    1.0000 0.87310  0.51900  0.71320  Biso   1.000  H
  H1113    1.0000 0.12690  0.01900  0.21320  Biso   1.000  H
  H1114    1.0000 0.62690  0.51900  0.21320  Biso   1.000  H
  H1115    1.0000 0.37310  0.98100  0.21320  Biso   1.000  H
  H1116    1.0000 0.87310  0.01900  0.28680  Biso   1.000  H
  H1117    1.0000 0.62690  0.98100  0.28680  Biso   1.000  H
  H1118    1.0000 0.87310  0.48100  0.21320  Biso   1.000  H
  H1119    1.0000 0.37310  0.51900  0.28680  Biso   1.000  H
  H1120    1.0000 0.12690  0.48100  0.28680  Biso   1.000  H
  H1121    1.0000 0.86640  0.94910  0.80100  Biso   1.000  H
  H1122    1.0000 0.36640  0.44910  0.80100  Biso   1.000  H
  H1123    1.0000 0.63360  0.05090  0.80100  Biso   1.000  H
  H1124    1.0000 0.13360  0.94910  0.69900  Biso   1.000  H
  H1125    1.0000 0.36640  0.05090  0.69900  Biso   1.000  H
  H1126    1.0000 0.13360  0.55090  0.80100  Biso   1.000  H
  H1127    1.0000 0.63360  0.44910  0.69900  Biso   1.000  H
  H1128    1.0000 0.86640  0.55090  0.69900  Biso   1.000  H
  H1129    1.0000 0.13360  0.05090  0.19900  Biso   1.000  H
  H1130    1.0000 0.63360  0.55090  0.19900  Biso   1.000  H
  H1131    1.0000 0.36640  0.94910  0.19900  Biso   1.000  H
  H1132    1.0000 0.86640  0.05090  0.30100  Biso   1.000  H
  H1133    1.0000 0.63360  0.94910  0.30100  Biso   1.000  H
  H1134    1.0000 0.86640  0.44910  0.19900  Biso   1.000  H
  H1135    1.0000 0.36640  0.55090  0.30100  Biso   1.000  H
  H1136    1.0000 0.13360  0.44910  0.30100  Biso   1.000  H
  H1137    1.0000 0.83710  0.95780  0.76050  Biso   1.000  H
  H1138    1.0000 0.33710  0.45780  0.76050  Biso   1.000  H
  H1139    1.0000 0.66290  0.04220  0.76050  Biso   1.000  H
  H1140    1.0000 0.16290  0.95780  0.73950  Biso   1.000  H
  H1141    1.0000 0.33710  0.04220  0.73950  Biso   1.000  H
  H1142    1.0000 0.16290  0.54220  0.76050  Biso   1.000  H
  H1143    1.0000 0.66290  0.45780  0.73950  Biso   1.000  H
  H1144    1.0000 0.83710  0.54220  0.73950  Biso   1.000  H
  H1145    1.0000 0.16290  0.04220  0.23950  Biso   1.000  H
  H1146    1.0000 0.66290  0.54220  0.23950  Biso   1.000  H
  H1147    1.0000 0.33710  0.95780  0.23950  Biso   1.000  H
  H1148    1.0000 0.83710  0.04220  0.26050  Biso   1.000  H
  H1149    1.0000 0.66290  0.95780  0.26050  Biso   1.000  H
  H1150    1.0000 0.83710  0.45780  0.23950  Biso   1.000  H
  H1151    1.0000 0.33710  0.54220  0.26050  Biso   1.000  H
  H1152    1.0000 0.16290  0.45780  0.26050  Biso   1.000  H
