data_image0
_cell_length_a       23.1399
_cell_length_b       23.3721
_cell_length_c       24.618
_cell_angle_alpha    94.803
_cell_angle_beta     107.734
_cell_angle_gamma    119.634

_symmetry_space_group_name_H-M    "P 1"
_symmetry_int_tables_number       1

loop_
  _symmetry_equiv_pos_as_xyz
  'x, y, z'

loop_
  _atom_site_label
  _atom_site_occupancy
  _atom_site_fract_x
  _atom_site_fract_y
  _atom_site_fract_z
  _atom_site_thermal_displace_type
  _atom_site_B_iso_or_equiv
  _atom_site_type_symbol
  Cu1      1.0000 0.93026  0.60683  0.20586  Biso   1.000  Cu
  Cu2      1.0000 0.06974  0.39317  0.79414  Biso   1.000  Cu
  Cu3      1.0000 0.62796  0.82827  0.14176  Biso   1.000  Cu
  Cu4      1.0000 0.37204  0.17173  0.85824  Biso   1.000  Cu
  Cu5      1.0000 0.52922  0.34674  0.28592  Biso   1.000  Cu
  Cu6      1.0000 0.47078  0.65326  0.71408  Biso   1.000  Cu
  Cu7      1.0000 0.15068  0.52710  0.27138  Biso   1.000  Cu
  Cu8      1.0000 0.84932  0.47290  0.72862  Biso   1.000  Cu
  Cu9      1.0000 0.44402  0.04244  0.34130  Biso   1.000  Cu
  Cu10     1.0000 0.55598  0.95756  0.65870  Biso   1.000  Cu
  Cu11     1.0000 0.97455  0.07871  0.20222  Biso   1.000  Cu
  Cu12     1.0000 0.02545  0.92129  0.79778  Biso   1.000  Cu
  S1       1.0000 0.97732  0.60498  0.13614  Biso   1.000  S
  S2       1.0000 0.02268  0.39502  0.86386  Biso   1.000  S
  S3       1.0000 0.70975  0.94699  0.17347  Biso   1.000  S
  S4       1.0000 0.29025  0.05301  0.82653  Biso   1.000  S
  N1       1.0000 0.78740  0.59160  0.14240  Biso   1.000  N
  N2       1.0000 0.21260  0.40840  0.85760  Biso   1.000  N
  N3       1.0000 0.83330  0.57080  0.14290  Biso   1.000  N
  N4       1.0000 0.16670  0.42920  0.85710  Biso   1.000  N
  N5       1.0000 0.66370  0.76570  0.23670  Biso   1.000  N
  N6       1.0000 0.33630  0.23430  0.76330  Biso   1.000  N
  N7       1.0000 0.66050  0.81980  0.22230  Biso   1.000  N
  N8       1.0000 0.33950  0.18020  0.77770  Biso   1.000  N
  S5       1.0000 0.45400  0.22920  0.23020  Biso   1.000  S
  S6       1.0000 0.54600  0.77080  0.76980  Biso   1.000  S
  N9       1.0000 0.49340  0.37090  0.20600  Biso   1.000  N
  N10      1.0000 0.50660  0.62910  0.79400  Biso   1.000  N
  N11      1.0000 0.53910  0.43310  0.19900  Biso   1.000  N
  N12      1.0000 0.46090  0.56690  0.80100  Biso   1.000  N
  C1       1.0000 0.51150  0.43120  0.14120  Biso   1.000  C
  C2       1.0000 0.48850  0.56880  0.85880  Biso   1.000  C
  C3       1.0000 0.44920  0.37040  0.11210  Biso   1.000  C
  C4       1.0000 0.55080  0.62960  0.88790  Biso   1.000  C
  C5       1.0000 0.44380  0.33370  0.15630  Biso   1.000  C
  C6       1.0000 0.55620  0.66630  0.84370  Biso   1.000  C
  C7       1.0000 0.37770  0.26580  0.14450  Biso   1.000  C
  C8       1.0000 0.62230  0.73420  0.85550  Biso   1.000  C
  C9       1.0000 0.24850  0.18000  0.08350  Biso   1.000  C
  C10      1.0000 0.75150  0.82000  0.91650  Biso   1.000  C
  C11      1.0000 0.31260  0.24610  0.09890  Biso   1.000  C
  C12      1.0000 0.68740  0.75390  0.90110  Biso   1.000  C
  C13      1.0000 0.24880  0.13450  0.10810  Biso   1.000  C
  C14      1.0000 0.75120  0.86550  0.89190  Biso   1.000  C
  C15      1.0000 0.31060  0.15100  0.15540  Biso   1.000  C
  C16      1.0000 0.68940  0.84900  0.84460  Biso   1.000  C
  C17      1.0000 0.37880  0.21640  0.17420  Biso   1.000  C
  C18      1.0000 0.62120  0.78360  0.82580  Biso   1.000  C
  C19      1.0000 0.42090  0.19040  0.28310  Biso   1.000  C
  C20      1.0000 0.57910  0.80960  0.71690  Biso   1.000  C
  S7       1.0000 0.52130  0.31200  0.37260  Biso   1.000  S
  S8       1.0000 0.47870  0.68800  0.62740  Biso   1.000  S
  N13      1.0000 0.62740  0.44110  0.33700  Biso   1.000  N
  N14      1.0000 0.37260  0.55890  0.66300  Biso   1.000  N
  N15      1.0000 0.64390  0.50240  0.32490  Biso   1.000  N
  N16      1.0000 0.35610  0.49760  0.67510  Biso   1.000  N
  C21      1.0000 0.69900  0.55640  0.37200  Biso   1.000  C
  C22      1.0000 0.30100  0.44360  0.62800  Biso   1.000  C
  C23      1.0000 0.70620  0.52950  0.41840  Biso   1.000  C
  C24      1.0000 0.29380  0.47050  0.58160  Biso   1.000  C
  C25      1.0000 0.67110  0.45690  0.38950  Biso   1.000  C
  C26      1.0000 0.32890  0.54310  0.61050  Biso   1.000  C
  C27      1.0000 0.67540  0.40530  0.41950  Biso   1.000  C
  C28      1.0000 0.32460  0.59470  0.58050  Biso   1.000  C
  C29      1.0000 0.74850  0.36380  0.47430  Biso   1.000  C
  C30      1.0000 0.25150  0.63620  0.52570  Biso   1.000  C
  C31      1.0000 0.74200  0.41490  0.45150  Biso   1.000  C
  C32      1.0000 0.25800  0.58510  0.54850  Biso   1.000  C
  C33      1.0000 0.69210  0.30620  0.46660  Biso   1.000  C
  C34      1.0000 0.30790  0.69380  0.53340  Biso   1.000  C
  C35      1.0000 0.62330  0.29270  0.43710  Biso   1.000  C
  C36      1.0000 0.37670  0.70730  0.56290  Biso   1.000  C
  C37      1.0000 0.61200  0.34340  0.41330  Biso   1.000  C
  C38      1.0000 0.38800  0.65660  0.58670  Biso   1.000  C
  C39      1.0000 0.47420  0.24700  0.40560  Biso   1.000  C
  C40      1.0000 0.52580  0.75300  0.59440  Biso   1.000  C
  C41      1.0000 0.74010  0.62790  0.20530  Biso   1.000  C
  C42      1.0000 0.25990  0.37210  0.79470  Biso   1.000  C
  C43      1.0000 0.71330  0.66900  0.19530  Biso   1.000  C
  C44      1.0000 0.28670  0.33100  0.80470  Biso   1.000  C
  C45      1.0000 0.65420  0.65670  0.20630  Biso   1.000  C
  C46      1.0000 0.34580  0.34330  0.79370  Biso   1.000  C
  C47      1.0000 0.62120  0.60240  0.22960  Biso   1.000  C
  C48      1.0000 0.37880  0.39760  0.77040  Biso   1.000  C
  C49      1.0000 0.64460  0.55880  0.23760  Biso   1.000  C
  C50      1.0000 0.35540  0.44120  0.76240  Biso   1.000  C
  C51      1.0000 0.70340  0.56990  0.22620  Biso   1.000  C
  C52      1.0000 0.29660  0.43010  0.77380  Biso   1.000  C
  C53      1.0000 0.80600  0.64180  0.19510  Biso   1.000  C
  C54      1.0000 0.19400  0.35820  0.80490  Biso   1.000  C
  C55      1.0000 0.72980  0.56120  0.09000  Biso   1.000  C
  C56      1.0000 0.27020  0.43880  0.91000  Biso   1.000  C
  C57      1.0000 0.73570  0.52020  0.05590  Biso   1.000  C
  C58      1.0000 0.26430  0.47980  0.94410  Biso   1.000  C
  C59      1.0000 0.80190  0.52810  0.08610  Biso   1.000  C
  C60      1.0000 0.19810  0.47190  0.91390  Biso   1.000  C
  C61      1.0000 0.83330  0.49140  0.07020  Biso   1.000  C
  C62      1.0000 0.16670  0.50860  0.92980  Biso   1.000  C
  C63      1.0000 0.78650  0.42470  0.03340  Biso   1.000  C
  C64      1.0000 0.21350  0.57530  0.96660  Biso   1.000  C
  C65      1.0000 0.81410  0.38610  0.01750  Biso   1.000  C
  C66      1.0000 0.18590  0.61390  0.98250  Biso   1.000  C
  C67      1.0000 0.88400  0.41190  0.03720  Biso   1.000  C
  C68      1.0000 0.11600  0.58810  0.96280  Biso   1.000  C
  C69      1.0000 0.93340  0.48030  0.07200  Biso   1.000  C
  C70      1.0000 0.06660  0.51970  0.92800  Biso   1.000  C
  C71      1.0000 0.90810  0.51870  0.08940  Biso   1.000  C
  C72      1.0000 0.09190  0.48130  0.91060  Biso   1.000  C
  C73      1.0000 0.96230  0.65530  0.08980  Biso   1.000  C
  C74      1.0000 0.03770  0.34470  0.91020  Biso   1.000  C
  C75      1.0000 0.62270  0.70010  0.19080  Biso   1.000  C
  C76      1.0000 0.37730  0.29990  0.80920  Biso   1.000  C
  C77      1.0000 0.69560  0.77880  0.29660  Biso   1.000  C
  C78      1.0000 0.30440  0.22120  0.70340  Biso   1.000  C
  C79      1.0000 0.71660  0.84370  0.32450  Biso   1.000  C
  C80      1.0000 0.28340  0.15630  0.67550  Biso   1.000  C
  C81      1.0000 0.69180  0.86720  0.27390  Biso   1.000  C
  C82      1.0000 0.30820  0.13280  0.72610  Biso   1.000  C
  C83      1.0000 0.69850  0.93340  0.28110  Biso   1.000  C
  C84      1.0000 0.30150  0.06660  0.71890  Biso   1.000  C
  C85      1.0000 0.69670  0.95830  0.33370  Biso   1.000  C
  C86      1.0000 0.30330  0.04170  0.66630  Biso   1.000  C
  C87      1.0000 0.70330  0.02030  0.34620  Biso   1.000  C
  C88      1.0000 0.29670  0.97970  0.65380  Biso   1.000  C
  C89      1.0000 0.71530  0.06190  0.30870  Biso   1.000  C
  C90      1.0000 0.28470  0.93810  0.69130  Biso   1.000  C
  C91      1.0000 0.71710  0.03830  0.25600  Biso   1.000  C
  C92      1.0000 0.28290  0.96170  0.74400  Biso   1.000  C
  C93      1.0000 0.70760  0.97340  0.24250  Biso   1.000  C
  C94      1.0000 0.29240  0.02660  0.75750  Biso   1.000  C
  C95      1.0000 0.66180  0.97680  0.12410  Biso   1.000  C
  C96      1.0000 0.33820  0.02320  0.87590  Biso   1.000  C
  C97      1.0000 0.60390  0.49510  0.25600  Biso   1.000  C
  C98      1.0000 0.39610  0.50490  0.74400  Biso   1.000  C
  C99      1.0000 0.55730  0.59150  0.24690  Biso   1.000  C
  C100     1.0000 0.44270  0.40850  0.75310  Biso   1.000  C
  C101     1.0000 0.73210  0.52450  0.23550  Biso   1.000  C
  C102     1.0000 0.26790  0.47550  0.76450  Biso   1.000  C
  C103     1.0000 0.75230  0.73080  0.17260  Biso   1.000  C
  C104     1.0000 0.24770  0.26920  0.82740  Biso   1.000  C
  S9       1.0000 0.90571  0.98820  0.11767  Biso   1.000  S
  S10      1.0000 0.09429  0.01180  0.88233  Biso   1.000  S
  S11      1.0000 0.17996  0.62046  0.34375  Biso   1.000  S
  S12      1.0000 0.82004  0.37954  0.65625  Biso   1.000  S
  N17      1.0000 0.08690  0.19270  0.17180  Biso   1.000  N
  N18      1.0000 0.91310  0.80730  0.82820  Biso   1.000  N
  N19      1.0000 0.01530  0.14190  0.15210  Biso   1.000  N
  N20      1.0000 0.98470  0.85810  0.84790  Biso   1.000  N
  N21      1.0000 0.24640  0.48300  0.33970  Biso   1.000  N
  N22      1.0000 0.75360  0.51700  0.66030  Biso   1.000  N
  N23      1.0000 0.19640  0.50210  0.33710  Biso   1.000  N
  N24      1.0000 0.80360  0.49790  0.66290  Biso   1.000  N
  C105     1.0000 0.20510  0.28860  0.25070  Biso   1.000  C
  C106     1.0000 0.79490  0.71140  0.74930  Biso   1.000  C
  C107     1.0000 0.20310  0.34720  0.25860  Biso   1.000  C
  C108     1.0000 0.79690  0.65280  0.74140  Biso   1.000  C
  C109     1.0000 0.26500  0.41040  0.27630  Biso   1.000  C
  C110     1.0000 0.73500  0.58960  0.72370  Biso   1.000  C
  C111     1.0000 0.32950  0.41560  0.28200  Biso   1.000  C
  C112     1.0000 0.67050  0.58440  0.71800  Biso   1.000  C
  C113     1.0000 0.32910  0.35870  0.27220  Biso   1.000  C
  C114     1.0000 0.67090  0.64130  0.72780  Biso   1.000  C
  C115     1.0000 0.26900  0.29580  0.25370  Biso   1.000  C
  C116     1.0000 0.73100  0.70420  0.74630  Biso   1.000  C
  C117     1.0000 0.13710  0.21640  0.23540  Biso   1.000  C
  C118     1.0000 0.86290  0.78360  0.76460  Biso   1.000  C
  C119     1.0000 0.09650  0.21260  0.12290  Biso   1.000  C
  C120     1.0000 0.90350  0.78740  0.87710  Biso   1.000  C
  C121     1.0000 0.03670  0.17580  0.07630  Biso   1.000  C
  C122     1.0000 0.96330  0.82420  0.92370  Biso   1.000  C
  C123     1.0000 0.98370  0.13180  0.09520  Biso   1.000  C
  C124     1.0000 0.01630  0.86820  0.90480  Biso   1.000  C
  C125     1.0000 0.90560  0.08710  0.06390  Biso   1.000  C
  C126     1.0000 0.09440  0.91290  0.93610  Biso   1.000  C
  C127     1.0000 0.87390  0.11220  0.02290  Biso   1.000  C
  C128     1.0000 0.12610  0.88780  0.97710  Biso   1.000  C
  C129     1.0000 0.79390  0.06910  0.99540  Biso   1.000  C
  C130     1.0000 0.20610  0.93090  0.00460  Biso   1.000  C
  C131     1.0000 0.75270  0.00880  0.00560  Biso   1.000  C
  C132     1.0000 0.24730  0.99120  0.99440  Biso   1.000  C
  C133     1.0000 0.78410  0.98530  0.04110  Biso   1.000  C
  C134     1.0000 0.21590  0.01470  0.95890  Biso   1.000  C
  C135     1.0000 0.85980  0.02060  0.07120  Biso   1.000  C
  C136     1.0000 0.14020  0.97940  0.92880  Biso   1.000  C
  C137     1.0000 0.83570  0.90930  0.12130  Biso   1.000  C
  C138     1.0000 0.16430  0.09070  0.87870  Biso   1.000  C
  C139     1.0000 0.26320  0.47330  0.28690  Biso   1.000  C
  C140     1.0000 0.73680  0.52670  0.71310  Biso   1.000  C
  C141     1.0000 0.27030  0.47140  0.39230  Biso   1.000  C
  C142     1.0000 0.72970  0.52860  0.60770  Biso   1.000  C
  C143     1.0000 0.24080  0.48820  0.42450  Biso   1.000  C
  C144     1.0000 0.75920  0.51180  0.57550  Biso   1.000  C
  C145     1.0000 0.19920  0.50720  0.39290  Biso   1.000  C
  C146     1.0000 0.80080  0.49280  0.60710  Biso   1.000  C
  C147     1.0000 0.14810  0.52530  0.40660  Biso   1.000  C
  C148     1.0000 0.85190  0.47470  0.59340  Biso   1.000  C
  C149     1.0000 0.11590  0.49170  0.44320  Biso   1.000  C
  C150     1.0000 0.88410  0.50830  0.55680  Biso   1.000  C
  C151     1.0000 0.06810  0.50460  0.45990  Biso   1.000  C
  C152     1.0000 0.93190  0.49540  0.54010  Biso   1.000  C
  C153     1.0000 0.05230  0.54580  0.43570  Biso   1.000  C
  C154     1.0000 0.94770  0.45420  0.56430  Biso   1.000  C
  C155     1.0000 0.08840  0.58610  0.40240  Biso   1.000  C
  C156     1.0000 0.91160  0.41390  0.59760  Biso   1.000  C
  C157     1.0000 0.13320  0.57340  0.38590  Biso   1.000  C
  C158     1.0000 0.86680  0.42660  0.61410  Biso   1.000  C
  C159     1.0000 0.13120  0.66030  0.31570  Biso   1.000  C
  C160     1.0000 0.86880  0.33970  0.68430  Biso   1.000  C
  C161     1.0000 0.40040  0.36310  0.27900  Biso   1.000  C
  C162     1.0000 0.59960  0.63690  0.72100  Biso   1.000  C
  C163     1.0000 0.39940  0.48530  0.30170  Biso   1.000  C
  C164     1.0000 0.60060  0.51470  0.69830  Biso   1.000  C
  C165     1.0000 0.26990  0.23170  0.24360  Biso   1.000  C
  C166     1.0000 0.73010  0.76830  0.75640  Biso   1.000  C
  C167     1.0000 0.12890  0.33720  0.24910  Biso   1.000  C
  C168     1.0000 0.87110  0.66280  0.75090  Biso   1.000  C
  S13      1.0000 0.63670  0.38040  0.33750  Biso   1.000  S
  S14      1.0000 0.36330  0.61960  0.66250  Biso   1.000  S
  N25      1.0000 0.50090  0.36330  0.34810  Biso   1.000  N
  N26      1.0000 0.49910  0.63670  0.65190  Biso   1.000  N
  N27      1.0000 0.44650  0.37430  0.34320  Biso   1.000  N
  N28      1.0000 0.55350  0.62570  0.65680  Biso   1.000  N
  C169     1.0000 0.44190  0.38390  0.39780  Biso   1.000  C
  C170     1.0000 0.55810  0.61610  0.60220  Biso   1.000  C
  C171     1.0000 0.49500  0.37920  0.43450  Biso   1.000  C
  C172     1.0000 0.50500  0.62080  0.56550  Biso   1.000  C
  C173     1.0000 0.52800  0.36560  0.40640  Biso   1.000  C
  C174     1.0000 0.47200  0.63440  0.59360  Biso   1.000  C
  C175     1.0000 0.58730  0.35320  0.42900  Biso   1.000  C
  C176     1.0000 0.41270  0.64680  0.57100  Biso   1.000  C
  C177     1.0000 0.59430  0.33510  0.48270  Biso   1.000  C
  C178     1.0000 0.40570  0.66490  0.51730  Biso   1.000  C
  C179     1.0000 0.64650  0.32140  0.50970  Biso   1.000  C
  C180     1.0000 0.35350  0.67860  0.49030  Biso   1.000  C
  C181     1.0000 0.68940  0.32520  0.48400  Biso   1.000  C
  C182     1.0000 0.31060  0.67480  0.51600  Biso   1.000  C
  C183     1.0000 0.68520  0.33900  0.43110  Biso   1.000  C
  C184     1.0000 0.31480  0.66100  0.56890  Biso   1.000  C
  C185     1.0000 0.63740  0.35800  0.40490  Biso   1.000  C
  C186     1.0000 0.36260  0.64200  0.59510  Biso   1.000  C
  C187     1.0000 0.65270  0.32090  0.30200  Biso   1.000  C
  C188     1.0000 0.34730  0.67910  0.69800  Biso   1.000  C
  S15      1.0000 0.55630  0.27950  0.23710  Biso   1.000  S
  S16      1.0000 0.44370  0.72050  0.76290  Biso   1.000  S
  N29      1.0000 0.46820  0.34390  0.22170  Biso   1.000  N
  N30      1.0000 0.53180  0.65610  0.77830  Biso   1.000  N
  N31      1.0000 0.40760  0.34530  0.21830  Biso   1.000  N
  N32      1.0000 0.59240  0.65470  0.78170  Biso   1.000  N
  C189     1.0000 0.37560  0.34780  0.16220  Biso   1.000  C
  C190     1.0000 0.62440  0.65220  0.83780  Biso   1.000  C
  C191     1.0000 0.41160  0.33960  0.13160  Biso   1.000  C
  C192     1.0000 0.58840  0.66040  0.86840  Biso   1.000  C
  C193     1.0000 0.47000  0.34400  0.16820  Biso   1.000  C
  C194     1.0000 0.53000  0.65600  0.83180  Biso   1.000  C
  C195     1.0000 0.52580  0.34140  0.15170  Biso   1.000  C
  C196     1.0000 0.47420  0.65860  0.84830  Biso   1.000  C
  C197     1.0000 0.54330  0.37440  0.10900  Biso   1.000  C
  C198     1.0000 0.45670  0.62560  0.89100  Biso   1.000  C
  C199     1.0000 0.59810  0.38080  0.09210  Biso   1.000  C
  C200     1.0000 0.40190  0.61920  0.90790  Biso   1.000  C
  C201     1.0000 0.63810  0.35860  0.12020  Biso   1.000  C
  C202     1.0000 0.36190  0.64140  0.87980  Biso   1.000  C
  C203     1.0000 0.62560  0.32660  0.16130  Biso   1.000  C
  C204     1.0000 0.37440  0.67340  0.83870  Biso   1.000  C
  C205     1.0000 0.57250  0.31980  0.18040  Biso   1.000  C
  C206     1.0000 0.42750  0.68020  0.81960  Biso   1.000  C
  C207     1.0000 0.64440  0.29470  0.27980  Biso   1.000  C
  C208     1.0000 0.35560  0.70530  0.72020  Biso   1.000  C
  S17      1.0000 0.92899  0.52559  0.25512  Biso   1.000  S
  S18      1.0000 0.07101  0.47441  0.74488  Biso   1.000  S
  S19      1.0000 0.52995  0.12956  0.31262  Biso   1.000  S
  S20      1.0000 0.47005  0.87044  0.68738  Biso   1.000  S
  S21      1.0000 0.91269  0.10733  0.24664  Biso   1.000  S
  S22      1.0000 0.08731  0.89267  0.75336  Biso   1.000  S
  N33      1.0000 0.29950  0.00240  0.25270  Biso   1.000  N
  N34      1.0000 0.70050  0.99760  0.74730  Biso   1.000  N
  N35      1.0000 0.36700  0.01900  0.26340  Biso   1.000  N
  N36      1.0000 0.63300  0.98100  0.73660  Biso   1.000  N
  N37      1.0000 0.03280  0.74660  0.28980  Biso   1.000  N
  N38      1.0000 0.96720  0.25340  0.71020  Biso   1.000  N
  N39      1.0000 0.98190  0.67980  0.28140  Biso   1.000  N
  N40      1.0000 0.01810  0.32020  0.71860  Biso   1.000  N
  N41      1.0000 0.05230  0.03370  0.29080  Biso   1.000  N
  N42      1.0000 0.94770  0.96630  0.70920  Biso   1.000  N
  N43      1.0000 0.03380  0.07970  0.28030  Biso   1.000  N
  N44      1.0000 0.96620  0.92030  0.71970  Biso   1.000  N
  C209     1.0000 0.19510  0.96070  0.28120  Biso   1.000  C
  C210     1.0000 0.80490  0.03930  0.71880  Biso   1.000  C
  C211     1.0000 0.15340  0.99020  0.26880  Biso   1.000  C
  C212     1.0000 0.84660  0.00980  0.73120  Biso   1.000  C
  C213     1.0000 0.08030  0.95130  0.25450  Biso   1.000  C
  C214     1.0000 0.91970  0.04870  0.74550  Biso   1.000  C
  C215     1.0000 0.04490  0.88030  0.24960  Biso   1.000  C
  C216     1.0000 0.95510  0.11970  0.75040  Biso   1.000  C
  C217     1.0000 0.08380  0.84950  0.25480  Biso   1.000  C
  C218     1.0000 0.91620  0.15050  0.74520  Biso   1.000  C
  C219     1.0000 0.15840  0.88830  0.27120  Biso   1.000  C
  C220     1.0000 0.84160  0.11170  0.72880  Biso   1.000  C
  C221     1.0000 0.27670  0.00250  0.30330  Biso   1.000  C
  C222     1.0000 0.72330  0.99750  0.69670  Biso   1.000  C
  C223     1.0000 0.26400  0.99260  0.19740  Biso   1.000  C
  C224     1.0000 0.73600  0.00740  0.80260  Biso   1.000  C
  C225     1.0000 0.31130  0.00640  0.16760  Biso   1.000  C
  C226     1.0000 0.68870  0.99360  0.83240  Biso   1.000  C
  C227     1.0000 0.37310  0.01940  0.21000  Biso   1.000  C
  C228     1.0000 0.62690  0.98060  0.79000  Biso   1.000  C
  C229     1.0000 0.43800  0.03240  0.20160  Biso   1.000  C
  C230     1.0000 0.56200  0.96760  0.79840  Biso   1.000  C
  C231     1.0000 0.42510  0.99350  0.14820  Biso   1.000  C
  C232     1.0000 0.57490  0.00650  0.85180  Biso   1.000  C
  C233     1.0000 0.48570  0.00440  0.13520  Biso   1.000  C
  C234     1.0000 0.51430  0.99560  0.86480  Biso   1.000  C
  C235     1.0000 0.55320  0.05200  0.17370  Biso   1.000  C
  C236     1.0000 0.44680  0.94800  0.82630  Biso   1.000  C
  C237     1.0000 0.56780  0.08790  0.22740  Biso   1.000  C
  C238     1.0000 0.43220  0.91210  0.77260  Biso   1.000  C
  C239     1.0000 0.51100  0.07960  0.24350  Biso   1.000  C
  C240     1.0000 0.48900  0.92040  0.75650  Biso   1.000  C
  C241     1.0000 0.61780  0.15000  0.36040  Biso   1.000  C
  C242     1.0000 0.38220  0.85000  0.63960  Biso   1.000  C
  C243     1.0000 0.04300  0.77340  0.23980  Biso   1.000  C
  C244     1.0000 0.95700  0.22660  0.76020  Biso   1.000  C
  C245     1.0000 0.06680  0.78060  0.34680  Biso   1.000  C
  C246     1.0000 0.93320  0.21940  0.65320  Biso   1.000  C
  C247     1.0000 0.04000  0.73540  0.38010  Biso   1.000  C
  C248     1.0000 0.96000  0.26460  0.61990  Biso   1.000  C
  C249     1.0000 0.98520  0.67290  0.33570  Biso   1.000  C
  C250     1.0000 0.01480  0.32710  0.66430  Biso   1.000  C
  C251     1.0000 0.93510  0.60830  0.34690  Biso   1.000  C
  C252     1.0000 0.06490  0.39170  0.65310  Biso   1.000  C
  C253     1.0000 0.91990  0.61730  0.39480  Biso   1.000  C
  C254     1.0000 0.08010  0.38270  0.60520  Biso   1.000  C
  C255     1.0000 0.87290  0.56270  0.41050  Biso   1.000  C
  C256     1.0000 0.12710  0.43730  0.58950  Biso   1.000  C
  C257     1.0000 0.84210  0.49390  0.37550  Biso   1.000  C
  C258     1.0000 0.15790  0.50610  0.62450  Biso   1.000  C
  C259     1.0000 0.86010  0.48620  0.33010  Biso   1.000  C
  C260     1.0000 0.13990  0.51380  0.66990  Biso   1.000  C
  C261     1.0000 0.90550  0.54120  0.31550  Biso   1.000  C
  C262     1.0000 0.09450  0.45880  0.68450  Biso   1.000  C
  C263     1.0000 0.85330  0.44220  0.20530  Biso   1.000  C
  C264     1.0000 0.14670  0.55780  0.79470  Biso   1.000  C
  C265     1.0000 0.03630  0.98270  0.23850  Biso   1.000  C
  C266     1.0000 0.96370  0.01730  0.76150  Biso   1.000  C
  C267     1.0000 0.08080  0.04100  0.34840  Biso   1.000  C
  C268     1.0000 0.91920  0.95900  0.65160  Biso   1.000  C
  C269     1.0000 0.08420  0.09550  0.37840  Biso   1.000  C
  C270     1.0000 0.91580  0.90450  0.62160  Biso   1.000  C
  C271     1.0000 0.05280  0.11870  0.33320  Biso   1.000  C
  C272     1.0000 0.94720  0.88130  0.66680  Biso   1.000  C
  C273     1.0000 0.04880  0.17840  0.34160  Biso   1.000  C
  C274     1.0000 0.95120  0.82160  0.65840  Biso   1.000  C
  C275     1.0000 0.10390  0.23600  0.38720  Biso   1.000  C
  C276     1.0000 0.89610  0.76400  0.61280  Biso   1.000  C
  C277     1.0000 0.10290  0.29670  0.39860  Biso   1.000  C
  C278     1.0000 0.89710  0.70330  0.60140  Biso   1.000  C
  C279     1.0000 0.04540  0.29740  0.36180  Biso   1.000  C
  C280     1.0000 0.95460  0.70260  0.63820  Biso   1.000  C
  C281     1.0000 0.98600  0.24000  0.31570  Biso   1.000  C
  C282     1.0000 0.01400  0.76000  0.68430  Biso   1.000  C
  C283     1.0000 0.98860  0.18170  0.30540  Biso   1.000  C
  C284     1.0000 0.01140  0.81830  0.69460  Biso   1.000  C
  C285     1.0000 0.87270  0.14210  0.19990  Biso   1.000  C
  C286     1.0000 0.12730  0.85790  0.80010  Biso   1.000  C
  C287     1.0000 0.96560  0.83840  0.23990  Biso   1.000  C
  C288     1.0000 0.03440  0.16160  0.76010  Biso   1.000  C
  C289     1.0000 0.19130  0.06700  0.27410  Biso   1.000  C
  C290     1.0000 0.80870  0.93300  0.72590  Biso   1.000  C
  C291     1.0000 0.20410  0.85740  0.28390  Biso   1.000  C
  C292     1.0000 0.79590  0.14260  0.71610  Biso   1.000  C
  S23      1.0000 0.62740  0.78142  0.05589  Biso   1.000  S
  S24      1.0000 0.37260  0.21858  0.94411  Biso   1.000  S
  S25      1.0000 0.02617  0.45967  0.22354  Biso   1.000  S
  S26      1.0000 0.97383  0.54033  0.77646  Biso   1.000  S
  S27      1.0000 0.45063  0.07034  0.43446  Biso   1.000  S
  S28      1.0000 0.54937  0.92966  0.56554  Biso   1.000  S
  N45      1.0000 0.47400  0.77910  0.11940  Biso   1.000  N
  N46      1.0000 0.52600  0.22090  0.88060  Biso   1.000  N
  N47      1.0000 0.52480  0.79920  0.09800  Biso   1.000  N
  N48      1.0000 0.47520  0.20080  0.90200  Biso   1.000  N
  N49      1.0000 0.21770  0.59300  0.19140  Biso   1.000  N
  N50      1.0000 0.78230  0.40700  0.80860  Biso   1.000  N
  N51      1.0000 0.16540  0.53450  0.19660  Biso   1.000  N
  N52      1.0000 0.83460  0.46550  0.80340  Biso   1.000  N
  N53      1.0000 0.48050  0.98430  0.36880  Biso   1.000  N
  N54      1.0000 0.51950  0.01570  0.63120  Biso   1.000  N
  N55      1.0000 0.46170  0.92220  0.34030  Biso   1.000  N
  N56      1.0000 0.53830  0.07780  0.65970  Biso   1.000  N
  C293     1.0000 0.43690  0.76610  0.20580  Biso   1.000  C
  C294     1.0000 0.56310  0.23390  0.79420  Biso   1.000  C
  C295     1.0000 0.44380  0.82710  0.22730  Biso   1.000  C
  C296     1.0000 0.55620  0.17290  0.77270  Biso   1.000  C
  C297     1.0000 0.39580  0.82360  0.25210  Biso   1.000  C
  C298     1.0000 0.60420  0.17640  0.74790  Biso   1.000  C
  C299     1.0000 0.34250  0.76060  0.25380  Biso   1.000  C
  C300     1.0000 0.65750  0.23940  0.74620  Biso   1.000  C
  C301     1.0000 0.33830  0.70260  0.23220  Biso   1.000  C
  C302     1.0000 0.66170  0.29740  0.76780  Biso   1.000  C
  C303     1.0000 0.38360  0.70410  0.20640  Biso   1.000  C
  C304     1.0000 0.61640  0.29590  0.79360  Biso   1.000  C
  C305     1.0000 0.49140  0.77170  0.18200  Biso   1.000  C
  C306     1.0000 0.50860  0.22830  0.81800  Biso   1.000  C
  C307     1.0000 0.40930  0.76440  0.08040  Biso   1.000  C
  C308     1.0000 0.59070  0.23560  0.91960  Biso   1.000  C
  C309     1.0000 0.42070  0.77570  0.02930  Biso   1.000  C
  C310     1.0000 0.57930  0.22430  0.97070  Biso   1.000  C
  C311     1.0000 0.49240  0.79790  0.04300  Biso   1.000  C
  C312     1.0000 0.50760  0.20210  0.95700  Biso   1.000  C
  C313     1.0000 0.52940  0.81850  0.00100  Biso   1.000  C
  C314     1.0000 0.47060  0.18150  0.99900  Biso   1.000  C
  C315     1.0000 0.50020  0.84130  0.95680  Biso   1.000  C
  C316     1.0000 0.49980  0.15870  0.04320  Biso   1.000  C
  C317     1.0000 0.52810  0.85800  0.91370  Biso   1.000  C
  C318     1.0000 0.47190  0.14200  0.08630  Biso   1.000  C
  C319     1.0000 0.58520  0.85190  0.91480  Biso   1.000  C
  C320     1.0000 0.41480  0.14810  0.08520  Biso   1.000  C
  C321     1.0000 0.61440  0.82910  0.95900  Biso   1.000  C
  C322     1.0000 0.38560  0.17090  0.04100  Biso   1.000  C
  C323     1.0000 0.58650  0.81240  0.00210  Biso   1.000  C
  C324     1.0000 0.41350  0.18760  0.99790  Biso   1.000  C
  C325     1.0000 0.59190  0.69300  0.04630  Biso   1.000  C
  C326     1.0000 0.40810  0.30700  0.95370  Biso   1.000  C
  C327     1.0000 0.54700  0.69850  0.02730  Biso   1.000  C
  C328     1.0000 0.45300  0.30150  0.97270  Biso   1.000  C
  C329     1.0000 0.28800  0.63590  0.24180  Biso   1.000  C
  C330     1.0000 0.71200  0.36410  0.75820  Biso   1.000  C
  C331     1.0000 0.19810  0.59120  0.13290  Biso   1.000  C
  C332     1.0000 0.80190  0.40880  0.86710  Biso   1.000  C
  C333     1.0000 0.13470  0.53140  0.10070  Biso   1.000  C
  C334     1.0000 0.86530  0.46860  0.89930  Biso   1.000  C
  C335     1.0000 0.11540  0.49610  0.14080  Biso   1.000  C
  C336     1.0000 0.88460  0.50390  0.85920  Biso   1.000  C
  C337     1.0000 0.05500  0.42490  0.12840  Biso   1.000  C
  C338     1.0000 0.94500  0.57510  0.87160  Biso   1.000  C
  C339     1.0000 0.03770  0.37780  0.07810  Biso   1.000  C
  C340     1.0000 0.96230  0.62220  0.92190  Biso   1.000  C
  C341     1.0000 0.98030  0.30930  0.06120  Biso   1.000  C
  C342     1.0000 0.01970  0.69070  0.93880  Biso   1.000  C
  C343     1.0000 0.94430  0.28680  0.09620  Biso   1.000  C
  C344     1.0000 0.05570  0.71320  0.90380  Biso   1.000  C
  C345     1.0000 0.95760  0.33160  0.14690  Biso   1.000  C
  C346     1.0000 0.04240  0.66840  0.85310  Biso   1.000  C
  C347     1.0000 0.01240  0.40060  0.16340  Biso   1.000  C
  C348     1.0000 0.98760  0.59940  0.83660  Biso   1.000  C
  C349     1.0000 0.99050  0.40690  0.26840  Biso   1.000  C
  C350     1.0000 0.00950  0.59310  0.73160  Biso   1.000  C
  C351     1.0000 0.40430  0.89300  0.27720  Biso   1.000  C
  C352     1.0000 0.59570  0.10700  0.72280  Biso   1.000  C
  C353     1.0000 0.50090  0.89820  0.37100  Biso   1.000  C
  C354     1.0000 0.49910  0.10180  0.62900  Biso   1.000  C
  C355     1.0000 0.54860  0.94930  0.42520  Biso   1.000  C
  C356     1.0000 0.45140  0.05070  0.57480  Biso   1.000  C
  C357     1.0000 0.53540  0.00030  0.42120  Biso   1.000  C
  C358     1.0000 0.46460  0.99970  0.57880  Biso   1.000  C
  C359     1.0000 0.57380  0.06530  0.46930  Biso   1.000  C
  C360     1.0000 0.42620  0.93470  0.53070  Biso   1.000  C
  C361     1.0000 0.64510  0.08910  0.50500  Biso   1.000  C
  C362     1.0000 0.35490  0.91090  0.49500  Biso   1.000  C
  C363     1.0000 0.68740  0.15080  0.54970  Biso   1.000  C
  C364     1.0000 0.31260  0.84920  0.45030  Biso   1.000  C
  C365     1.0000 0.65840  0.18880  0.55860  Biso   1.000  C
  C366     1.0000 0.34160  0.81120  0.44140  Biso   1.000  C
  C367     1.0000 0.58710  0.16500  0.52290  Biso   1.000  C
  C368     1.0000 0.41290  0.83500  0.47710  Biso   1.000  C
  C369     1.0000 0.54480  0.10330  0.47820  Biso   1.000  C
  C370     1.0000 0.45520  0.89670  0.52180  Biso   1.000  C
  C371     1.0000 0.43660  0.14000  0.45530  Biso   1.000  C
  C372     1.0000 0.56340  0.86000  0.54470  Biso   1.000  C
  C373     1.0000 0.37450  0.63820  0.18100  Biso   1.000  C
  C374     1.0000 0.62550  0.36180  0.81900  Biso   1.000  C
  C375     1.0000 0.29010  0.75990  0.27920  Biso   1.000  C
  C376     1.0000 0.70990  0.24010  0.72080  Biso   1.000  C
  C377     1.0000 0.49940  0.89430  0.22170  Biso   1.000  C
  C378     1.0000 0.50060  0.10570  0.77830  Biso   1.000  C
  S29      1.0000 0.75300  0.20430  0.88942  Biso   1.000  S
  S30      1.0000 0.24700  0.79570  0.11058  Biso   1.000  S
  O1       1.0000 0.76810  0.18490  0.94380  Biso   1.000  O
  O2       1.0000 0.23190  0.81510  0.05620  Biso   1.000  O
  O3       1.0000 0.71630  0.15140  0.83270  Biso   1.000  O
  O4       1.0000 0.28370  0.84860  0.16730  Biso   1.000  O
  O5       1.0000 0.73230  0.25240  0.89280  Biso   1.000  O
  O6       1.0000 0.26770  0.74760  0.10720  Biso   1.000  O
  C379     1.0000 0.83300  0.24340  0.89070  Biso   1.000  C
  C380     1.0000 0.16700  0.75660  0.10930  Biso   1.000  C
  F1       1.0000 0.83620  0.27290  0.84240  Biso   1.000  F
  F2       1.0000 0.16380  0.72710  0.15760  Biso   1.000  F
  F3       1.0000 0.86340  0.21170  0.88720  Biso   1.000  F
  F4       1.0000 0.13660  0.78830  0.11280  Biso   1.000  F
  F5       1.0000 0.88760  0.31090  0.93380  Biso   1.000  F
  F6       1.0000 0.11240  0.68910  0.06620  Biso   1.000  F
  S31      1.0000 0.53090  0.30460  0.61619  Biso   1.000  S
  S32      1.0000 0.46910  0.69540  0.38381  Biso   1.000  S
  O7       1.0000 0.50300  0.32490  0.56500  Biso   1.000  O
  O8       1.0000 0.49700  0.67510  0.43500  Biso   1.000  O
  O9       1.0000 0.57620  0.36170  0.67030  Biso   1.000  O
  O10      1.0000 0.42380  0.63830  0.32970  Biso   1.000  O
  O11      1.0000 0.55990  0.26570  0.61050  Biso   1.000  O
  O12      1.0000 0.44010  0.73430  0.38950  Biso   1.000  O
  C381     1.0000 0.46160  0.26450  0.63080  Biso   1.000  C
  C382     1.0000 0.53840  0.73550  0.36920  Biso   1.000  C
  F7       1.0000 0.41020  0.19650  0.59300  Biso   1.000  F
  F8       1.0000 0.58980  0.80350  0.40700  Biso   1.000  F
  F9       1.0000 0.41690  0.28090  0.63030  Biso   1.000  F
  F10      1.0000 0.58310  0.71910  0.36970  Biso   1.000  F
  F11      1.0000 0.46660  0.23580  0.68050  Biso   1.000  F
  F12      1.0000 0.53340  0.76420  0.31950  Biso   1.000  F
  S33      1.0000 0.22390  0.99000  0.43440  Biso   1.000  S
  S34      1.0000 0.77610  0.01000  0.56560  Biso   1.000  S
  O13      1.0000 0.14060  0.94770  0.40190  Biso   1.000  O
  O14      1.0000 0.85940  0.05230  0.59810  Biso   1.000  O
  O15      1.0000 0.24910  0.05350  0.41640  Biso   1.000  O
  O16      1.0000 0.75090  0.94650  0.58360  Biso   1.000  O
  O17      1.0000 0.24680  0.94670  0.42050  Biso   1.000  O
  O18      1.0000 0.75320  0.05330  0.57950  Biso   1.000  O
  C383     1.0000 0.22460  0.00350  0.49540  Biso   1.000  C
  C384     1.0000 0.77540  0.99650  0.50460  Biso   1.000  C
  F13      1.0000 0.30100  0.04700  0.52840  Biso   1.000  F
  F14      1.0000 0.69900  0.95300  0.47160  Biso   1.000  F
  F15      1.0000 0.19690  0.95020  0.51280  Biso   1.000  F
  F16      1.0000 0.80310  0.04980  0.48720  Biso   1.000  F
  F17      1.0000 0.20060  0.04430  0.51190  Biso   1.000  F
  F18      1.0000 0.79940  0.95570  0.48810  Biso   1.000  F
  S35      1.0000 0.14500  0.25240  0.95240  Biso   1.000  S
  S36      1.0000 0.85500  0.74760  0.04760  Biso   1.000  S
  O19      1.0000 0.10820  0.18230  0.94890  Biso   1.000  O
  O20      1.0000 0.89180  0.81770  0.05110  Biso   1.000  O
  O21      1.0000 0.22610  0.28780  0.97950  Biso   1.000  O
  O22      1.0000 0.77390  0.71220  0.02050  Biso   1.000  O
  O23      1.0000 0.13000  0.27720  0.90210  Biso   1.000  O
  O24      1.0000 0.87000  0.72280  0.09790  Biso   1.000  O
  C385     1.0000 0.14800  0.29070  0.00830  Biso   1.000  C
  C386     1.0000 0.85200  0.70930  0.99170  Biso   1.000  C
  F19      1.0000 0.17000  0.36040  0.00840  Biso   1.000  F
  F20      1.0000 0.83000  0.63960  0.99160  Biso   1.000  F
  F21      1.0000 0.19390  0.30640  0.06010  Biso   1.000  F
  F22      1.0000 0.80610  0.69360  0.93990  Biso   1.000  F
  F23      1.0000 0.07650  0.26960  0.99800  Biso   1.000  F
  F24      1.0000 0.92350  0.73040  0.00200  Biso   1.000  F
  S37      1.0000 0.82440  0.74610  0.43500  Biso   1.000  S
  S38      1.0000 0.17560  0.25390  0.56500  Biso   1.000  S
  O25      1.0000 0.85600  0.81210  0.47730  Biso   1.000  O
  O26      1.0000 0.14400  0.18790  0.52270  Biso   1.000  O
  O27      1.0000 0.84200  0.69860  0.46040  Biso   1.000  O
  O28      1.0000 0.15800  0.30140  0.53960  Biso   1.000  O
  O29      1.0000 0.74810  0.71120  0.39920  Biso   1.000  O
  O30      1.0000 0.25190  0.28880  0.60080  Biso   1.000  O
  C387     1.0000 0.87220  0.76930  0.39800  Biso   1.000  C
  C388     1.0000 0.12780  0.23070  0.60200  Biso   1.000  C
  F25      1.0000 0.94270  0.78360  0.43070  Biso   1.000  F
  F26      1.0000 0.05730  0.21640  0.56930  Biso   1.000  F
  F27      1.0000 0.86020  0.73960  0.34640  Biso   1.000  F
  F28      1.0000 0.13980  0.26040  0.65360  Biso   1.000  F
  F29      1.0000 0.90400  0.83960  0.39500  Biso   1.000  F
  F30      1.0000 0.09600  0.16040  0.60500  Biso   1.000  F
  S39      1.0000 0.18860  0.72500  0.69560  Biso   1.000  S
  S40      1.0000 0.81140  0.27500  0.30440  Biso   1.000  S
  O31      1.0000 0.25490  0.78120  0.69710  Biso   1.000  O
  O32      1.0000 0.74510  0.21880  0.30290  Biso   1.000  O
  O33      1.0000 0.19640  0.66630  0.70980  Biso   1.000  O
  O34      1.0000 0.80360  0.33370  0.29020  Biso   1.000  O
  O35      1.0000 0.12440  0.69350  0.64450  Biso   1.000  O
  O36      1.0000 0.87560  0.30650  0.35550  Biso   1.000  O
  C389     1.0000 0.22030  0.75350  0.76340  Biso   1.000  C
  C390     1.0000 0.77970  0.24650  0.23660  Biso   1.000  C
  F31      1.0000 0.15840  0.74080  0.77340  Biso   1.000  F
  F32      1.0000 0.84160  0.25920  0.22660  Biso   1.000  F
  F33      1.0000 0.24500  0.72800  0.80110  Biso   1.000  F
  F34      1.0000 0.75500  0.27200  0.19890  Biso   1.000  F
  F35      1.0000 0.26390  0.82500  0.79830  Biso   1.000  F
  F36      1.0000 0.73610  0.17500  0.20170  Biso   1.000  F
  N57      1.0000 0.87780  0.92530  0.27080  Biso   1.000  N
  N58      1.0000 0.12220  0.07470  0.72920  Biso   1.000  N
  C391     1.0000 0.88250  0.95600  0.30830  Biso   1.000  C
  C392     1.0000 0.11750  0.04400  0.69170  Biso   1.000  C
  C393     1.0000 0.89360  0.00320  0.35730  Biso   1.000  C
  C394     1.0000 0.10640  0.99680  0.64270  Biso   1.000  C
  H1       1.0000 0.53260  0.46640  0.12460  Biso   1.000  H
  H2       1.0000 0.46740  0.53360  0.87540  Biso   1.000  H
  H3       1.0000 0.41700  0.35540  0.07270  Biso   1.000  H
  H4       1.0000 0.58300  0.64460  0.92730  Biso   1.000  H
  H5       1.0000 0.20530  0.16990  0.05470  Biso   1.000  H
  H6       1.0000 0.79470  0.83010  0.94530  Biso   1.000  H
  H7       1.0000 0.31110  0.27700  0.07790  Biso   1.000  H
  H8       1.0000 0.68890  0.72300  0.92210  Biso   1.000  H
  H9       1.0000 0.20750  0.09020  0.09440  Biso   1.000  H
  H10      1.0000 0.79250  0.90980  0.90560  Biso   1.000  H
  H11      1.0000 0.30830  0.11880  0.17590  Biso   1.000  H
  H12      1.0000 0.69170  0.88120  0.82410  Biso   1.000  H
  H13      1.0000 0.46010  0.19480  0.31550  Biso   1.000  H
  H14      1.0000 0.53990  0.80520  0.68450  Biso   1.000  H
  H15      1.0000 0.38370  0.14270  0.26410  Biso   1.000  H
  H16      1.0000 0.61630  0.85730  0.73590  Biso   1.000  H
  H17      1.0000 0.40130  0.21300  0.29790  Biso   1.000  H
  H18      1.0000 0.59870  0.78700  0.70210  Biso   1.000  H
  H19      1.0000 0.72620  0.60200  0.37250  Biso   1.000  H
  H20      1.0000 0.27380  0.39800  0.62750  Biso   1.000  H
  H21      1.0000 0.72810  0.55190  0.45880  Biso   1.000  H
  H22      1.0000 0.27190  0.44810  0.54120  Biso   1.000  H
  H23      1.0000 0.79420  0.37230  0.49520  Biso   1.000  H
  H24      1.0000 0.20580  0.62770  0.50480  Biso   1.000  H
  H25      1.0000 0.78410  0.45670  0.45810  Biso   1.000  H
  H26      1.0000 0.21590  0.54330  0.54190  Biso   1.000  H
  H27      1.0000 0.69710  0.27270  0.48090  Biso   1.000  H
  H28      1.0000 0.30290  0.72730  0.51910  Biso   1.000  H
  H29      1.0000 0.58320  0.25020  0.43240  Biso   1.000  H
  H30      1.0000 0.41680  0.74980  0.56760  Biso   1.000  H
  H31      1.0000 0.42290  0.22620  0.38550  Biso   1.000  H
  H32      1.0000 0.57710  0.77380  0.61450  Biso   1.000  H
  H33      1.0000 0.48960  0.26760  0.44690  Biso   1.000  H
  H34      1.0000 0.51040  0.73240  0.55310  Biso   1.000  H
  H35      1.0000 0.48510  0.21260  0.40180  Biso   1.000  H
  H36      1.0000 0.51490  0.78740  0.59820  Biso   1.000  H
  H37      1.0000 0.83070  0.68750  0.19020  Biso   1.000  H
  H38      1.0000 0.16930  0.31250  0.80980  Biso   1.000  H
  H39      1.0000 0.83900  0.64050  0.22970  Biso   1.000  H
  H40      1.0000 0.16100  0.35950  0.77030  Biso   1.000  H
  H41      1.0000 0.69210  0.56810  0.07980  Biso   1.000  H
  H42      1.0000 0.30790  0.43190  0.92020  Biso   1.000  H
  H43      1.0000 0.70180  0.49100  0.01810  Biso   1.000  H
  H44      1.0000 0.29820  0.50900  0.98190  Biso   1.000  H
  H45      1.0000 0.73670  0.40490  0.01890  Biso   1.000  H
  H46      1.0000 0.26330  0.59510  0.98110  Biso   1.000  H
  H47      1.0000 0.78170  0.34150  0.99260  Biso   1.000  H
  H48      1.0000 0.21830  0.65850  0.00740  Biso   1.000  H
  H49      1.0000 0.90050  0.38490  0.02810  Biso   1.000  H
  H50      1.0000 0.09950  0.61510  0.97190  Biso   1.000  H
  H51      1.0000 0.98290  0.49990  0.08340  Biso   1.000  H
  H52      1.0000 0.01710  0.50010  0.91660  Biso   1.000  H
  H53      1.0000 0.97150  0.64760  0.05540  Biso   1.000  H
  H54      1.0000 0.02850  0.35240  0.94460  Biso   1.000  H
  H55      1.0000 0.99430  0.70310  0.11160  Biso   1.000  H
  H56      1.0000 0.00570  0.29690  0.88840  Biso   1.000  H
  H57      1.0000 0.91290  0.64240  0.07760  Biso   1.000  H
  H58      1.0000 0.08710  0.35760  0.92240  Biso   1.000  H
  H59      1.0000 0.62350  0.70870  0.15310  Biso   1.000  H
  H60      1.0000 0.37650  0.29130  0.84690  Biso   1.000  H
  H61      1.0000 0.57260  0.67490  0.18650  Biso   1.000  H
  H62      1.0000 0.42740  0.32510  0.81350  Biso   1.000  H
  H63      1.0000 0.70210  0.74850  0.31580  Biso   1.000  H
  H64      1.0000 0.29790  0.25150  0.68420  Biso   1.000  H
  H65      1.0000 0.74040  0.86670  0.36490  Biso   1.000  H
  H66      1.0000 0.25960  0.13330  0.63510  Biso   1.000  H
  H67      1.0000 0.69080  0.93250  0.36070  Biso   1.000  H
  H68      1.0000 0.30920  0.06750  0.63930  Biso   1.000  H
  H69      1.0000 0.69960  0.03460  0.38070  Biso   1.000  H
  H70      1.0000 0.30040  0.96540  0.61930  Biso   1.000  H
  H71      1.0000 0.72200  0.10470  0.31850  Biso   1.000  H
  H72      1.0000 0.27800  0.89530  0.68150  Biso   1.000  H
  H73      1.0000 0.72440  0.06490  0.22970  Biso   1.000  H
  H74      1.0000 0.27560  0.93510  0.77030  Biso   1.000  H
  H75      1.0000 0.62160  0.96970  0.13310  Biso   1.000  H
  H76      1.0000 0.37840  0.03030  0.86690  Biso   1.000  H
  H77      1.0000 0.64430  0.95170  0.08370  Biso   1.000  H
  H78      1.0000 0.35570  0.04830  0.91630  Biso   1.000  H
  H79      1.0000 0.69410  0.02480  0.12940  Biso   1.000  H
  H80      1.0000 0.30590  0.97520  0.87060  Biso   1.000  H
  H81      1.0000 0.58460  0.50450  0.28290  Biso   1.000  H
  H82      1.0000 0.41540  0.49550  0.71710  Biso   1.000  H
  H83      1.0000 0.63680  0.48240  0.27670  Biso   1.000  H
  H84      1.0000 0.36320  0.51760  0.72330  Biso   1.000  H
  H85      1.0000 0.59720  0.45580  0.23140  Biso   1.000  H
  H86      1.0000 0.40280  0.54420  0.76860  Biso   1.000  H
  H87      1.0000 0.55610  0.48610  0.24880  Biso   1.000  H
  H88      1.0000 0.44390  0.51390  0.75120  Biso   1.000  H
  H89      1.0000 0.56130  0.63440  0.25590  Biso   1.000  H
  H90      1.0000 0.43870  0.36560  0.74410  Biso   1.000  H
  H91      1.0000 0.55960  0.57440  0.28110  Biso   1.000  H
  H92      1.0000 0.44040  0.42560  0.71890  Biso   1.000  H
  H93      1.0000 0.51190  0.55890  0.21430  Biso   1.000  H
  H94      1.0000 0.48810  0.44110  0.78570  Biso   1.000  H
  H95      1.0000 0.75040  0.52790  0.27700  Biso   1.000  H
  H96      1.0000 0.24960  0.47210  0.72300  Biso   1.000  H
  H97      1.0000 0.77040  0.53880  0.22170  Biso   1.000  H
  H98      1.0000 0.22960  0.46120  0.77830  Biso   1.000  H
  H99      1.0000 0.69370  0.47780  0.21360  Biso   1.000  H
  H100     1.0000 0.30630  0.52220  0.78640  Biso   1.000  H
  H101     1.0000 0.74010  0.76330  0.18120  Biso   1.000  H
  H102     1.0000 0.25990  0.23670  0.81880  Biso   1.000  H
  H103     1.0000 0.73720  0.71540  0.13040  Biso   1.000  H
  H104     1.0000 0.26280  0.28460  0.86960  Biso   1.000  H
  H105     1.0000 0.80370  0.75210  0.19200  Biso   1.000  H
  H106     1.0000 0.19630  0.24790  0.80800  Biso   1.000  H
  H107     1.0000 0.15150  0.18440  0.24330  Biso   1.000  H
  H108     1.0000 0.84850  0.81560  0.75670  Biso   1.000  H
  H109     1.0000 0.11210  0.21710  0.26050  Biso   1.000  H
  H110     1.0000 0.88790  0.78290  0.73950  Biso   1.000  H
  H111     1.0000 0.14000  0.24780  0.12320  Biso   1.000  H
  H112     1.0000 0.86000  0.75220  0.87680  Biso   1.000  H
  H113     1.0000 0.03010  0.17800  0.03760  Biso   1.000  H
  H114     1.0000 0.96990  0.82200  0.96240  Biso   1.000  H
  H115     1.0000 0.90090  0.15250  0.01390  Biso   1.000  H
  H116     1.0000 0.09910  0.84750  0.98610  Biso   1.000  H
  H117     1.0000 0.77010  0.08440  0.96920  Biso   1.000  H
  H118     1.0000 0.22990  0.91560  0.03080  Biso   1.000  H
  H119     1.0000 0.70240  0.98460  0.98740  Biso   1.000  H
  H120     1.0000 0.29760  0.01540  0.01260  Biso   1.000  H
  H121     1.0000 0.75520  0.94320  0.04690  Biso   1.000  H
  H122     1.0000 0.24480  0.05680  0.95310  Biso   1.000  H
  H123     1.0000 0.80370  0.91690  0.13320  Biso   1.000  H
  H124     1.0000 0.19630  0.08310  0.86680  Biso   1.000  H
  H125     1.0000 0.85700  0.89230  0.14980  Biso   1.000  H
  H126     1.0000 0.14300  0.10770  0.85020  Biso   1.000  H
  H127     1.0000 0.80880  0.87620  0.08300  Biso   1.000  H
  H128     1.0000 0.19120  0.12380  0.91700  Biso   1.000  H
  H129     1.0000 0.30980  0.51310  0.29290  Biso   1.000  H
  H130     1.0000 0.69020  0.48690  0.70710  Biso   1.000  H
  H131     1.0000 0.22680  0.47010  0.25200  Biso   1.000  H
  H132     1.0000 0.77320  0.52990  0.74800  Biso   1.000  H
  H133     1.0000 0.30050  0.45530  0.40350  Biso   1.000  H
  H134     1.0000 0.69950  0.54470  0.59650  Biso   1.000  H
  H135     1.0000 0.24850  0.48670  0.46350  Biso   1.000  H
  H136     1.0000 0.75150  0.51330  0.53650  Biso   1.000  H
  H137     1.0000 0.12540  0.46020  0.45710  Biso   1.000  H
  H138     1.0000 0.87460  0.53980  0.54290  Biso   1.000  H
  H139     1.0000 0.04930  0.48480  0.48670  Biso   1.000  H
  H140     1.0000 0.95070  0.51520  0.51330  Biso   1.000  H
  H141     1.0000 0.01540  0.54880  0.44050  Biso   1.000  H
  H142     1.0000 0.98460  0.45120  0.55950  Biso   1.000  H
  H143     1.0000 0.08160  0.62040  0.39200  Biso   1.000  H
  H144     1.0000 0.91840  0.37960  0.60800  Biso   1.000  H
  H145     1.0000 0.08060  0.62550  0.29400  Biso   1.000  H
  H146     1.0000 0.91940  0.37450  0.70600  Biso   1.000  H
  H147     1.0000 0.15010  0.68560  0.28990  Biso   1.000  H
  H148     1.0000 0.84990  0.31440  0.71010  Biso   1.000  H
  H149     1.0000 0.13700  0.69100  0.34840  Biso   1.000  H
  H150     1.0000 0.86300  0.30900  0.65160  Biso   1.000  H
  H151     1.0000 0.38830  0.32100  0.25430  Biso   1.000  H
  H152     1.0000 0.61170  0.67900  0.74570  Biso   1.000  H
  H153     1.0000 0.42850  0.40060  0.26480  Biso   1.000  H
  H154     1.0000 0.57150  0.59940  0.73520  Biso   1.000  H
  H155     1.0000 0.40360  0.33110  0.30050  Biso   1.000  H
  H156     1.0000 0.59640  0.66890  0.69950  Biso   1.000  H
  H157     1.0000 0.44150  0.40880  0.30280  Biso   1.000  H
  H158     1.0000 0.55850  0.59120  0.69720  Biso   1.000  H
  H159     1.0000 0.40380  0.51420  0.33490  Biso   1.000  H
  H160     1.0000 0.59620  0.48580  0.66510  Biso   1.000  H
  H161     1.0000 0.39890  0.50580  0.26950  Biso   1.000  H
  H162     1.0000 0.60110  0.49420  0.73050  Biso   1.000  H
  H163     1.0000 0.43970  0.48020  0.31330  Biso   1.000  H
  H164     1.0000 0.56030  0.51980  0.68670  Biso   1.000  H
  H165     1.0000 0.24190  0.20600  0.20240  Biso   1.000  H
  H166     1.0000 0.75810  0.79400  0.79760  Biso   1.000  H
  H167     1.0000 0.24940  0.20420  0.26760  Biso   1.000  H
  H168     1.0000 0.75060  0.79580  0.73240  Biso   1.000  H
  H169     1.0000 0.31900  0.24420  0.25440  Biso   1.000  H
  H170     1.0000 0.68100  0.75580  0.74560  Biso   1.000  H
  H171     1.0000 0.12350  0.33870  0.28630  Biso   1.000  H
  H172     1.0000 0.87650  0.66130  0.71370  Biso   1.000  H
  H173     1.0000 0.09050  0.29350  0.22090  Biso   1.000  H
  H174     1.0000 0.90950  0.70650  0.77910  Biso   1.000  H
  H175     1.0000 0.12670  0.37310  0.23440  Biso   1.000  H
  H176     1.0000 0.87330  0.62690  0.76560  Biso   1.000  H
  H177     1.0000 0.40980  0.39180  0.40680  Biso   1.000  H
  H178     1.0000 0.59020  0.60820  0.59320  Biso   1.000  H
  H179     1.0000 0.50660  0.38490  0.47510  Biso   1.000  H
  H180     1.0000 0.49340  0.61510  0.52490  Biso   1.000  H
  H181     1.0000 0.56320  0.33210  0.50060  Biso   1.000  H
  H182     1.0000 0.43680  0.66790  0.49940  Biso   1.000  H
  H183     1.0000 0.65080  0.30980  0.54530  Biso   1.000  H
  H184     1.0000 0.34920  0.69020  0.45470  Biso   1.000  H
  H185     1.0000 0.72540  0.31790  0.50340  Biso   1.000  H
  H186     1.0000 0.27460  0.68210  0.49660  Biso   1.000  H
  H187     1.0000 0.71350  0.33580  0.41270  Biso   1.000  H
  H188     1.0000 0.28650  0.66420  0.58730  Biso   1.000  H
  H189     1.0000 0.70330  0.33760  0.31970  Biso   1.000  H
  H190     1.0000 0.29670  0.66240  0.68030  Biso   1.000  H
  H191     1.0000 0.63840  0.31730  0.26030  Biso   1.000  H
  H192     1.0000 0.36160  0.68270  0.73970  Biso   1.000  H
  H193     1.0000 0.62470  0.27660  0.30740  Biso   1.000  H
  H194     1.0000 0.37530  0.72340  0.69260  Biso   1.000  H
  H195     1.0000 0.33740  0.35390  0.14840  Biso   1.000  H
  H196     1.0000 0.66260  0.64610  0.85160  Biso   1.000  H
  H197     1.0000 0.39750  0.33190  0.09070  Biso   1.000  H
  H198     1.0000 0.60250  0.66810  0.90930  Biso   1.000  H
  H199     1.0000 0.51740  0.39280  0.09120  Biso   1.000  H
  H200     1.0000 0.48260  0.60720  0.90880  Biso   1.000  H
  H201     1.0000 0.60630  0.40030  0.06160  Biso   1.000  H
  H202     1.0000 0.39370  0.59970  0.93840  Biso   1.000  H
  H203     1.0000 0.67670  0.36580  0.11070  Biso   1.000  H
  H204     1.0000 0.32330  0.63420  0.88930  Biso   1.000  H
  H205     1.0000 0.65270  0.30850  0.17740  Biso   1.000  H
  H206     1.0000 0.34730  0.69150  0.82260  Biso   1.000  H
  H207     1.0000 0.66040  0.27910  0.25360  Biso   1.000  H
  H208     1.0000 0.33960  0.72090  0.74640  Biso   1.000  H
  H209     1.0000 0.64070  0.27000  0.30920  Biso   1.000  H
  H210     1.0000 0.35930  0.73000  0.69080  Biso   1.000  H
  H211     1.0000 0.67880  0.34290  0.29910  Biso   1.000  H
  H212     1.0000 0.32120  0.65710  0.70090  Biso   1.000  H
  H213     1.0000 0.29590  0.04930  0.32400  Biso   1.000  H
  H214     1.0000 0.70410  0.95070  0.67600  Biso   1.000  H
  H215     1.0000 0.29640  0.98340  0.33130  Biso   1.000  H
  H216     1.0000 0.70360  0.01660  0.66870  Biso   1.000  H
  H217     1.0000 0.21570  0.97880  0.17990  Biso   1.000  H
  H218     1.0000 0.78430  0.02120  0.82010  Biso   1.000  H
  H219     1.0000 0.30190  0.00660  0.12810  Biso   1.000  H
  H220     1.0000 0.69810  0.99340  0.87190  Biso   1.000  H
  H221     1.0000 0.37790  0.96080  0.12130  Biso   1.000  H
  H222     1.0000 0.62210  0.03920  0.87870  Biso   1.000  H
  H223     1.0000 0.47780  0.97830  0.09990  Biso   1.000  H
  H224     1.0000 0.52220  0.02170  0.90010  Biso   1.000  H
  H225     1.0000 0.59160  0.06080  0.16320  Biso   1.000  H
  H226     1.0000 0.40840  0.93920  0.83680  Biso   1.000  H
  H227     1.0000 0.61570  0.11840  0.25410  Biso   1.000  H
  H228     1.0000 0.38430  0.88160  0.74590  Biso   1.000  H
  H229     1.0000 0.61710  0.10860  0.35970  Biso   1.000  H
  H230     1.0000 0.38290  0.89140  0.64030  Biso   1.000  H
  H231     1.0000 0.62960  0.17250  0.40030  Biso   1.000  H
  H232     1.0000 0.37040  0.82750  0.59970  Biso   1.000  H
  H233     1.0000 0.65340  0.18000  0.34670  Biso   1.000  H
  H234     1.0000 0.34660  0.82000  0.65330  Biso   1.000  H
  H235     1.0000 0.99580  0.75440  0.20810  Biso   1.000  H
  H236     1.0000 0.00420  0.24560  0.79190  Biso   1.000  H
  H237     1.0000 0.06870  0.75800  0.22490  Biso   1.000  H
  H238     1.0000 0.93130  0.24200  0.77510  Biso   1.000  H
  H239     1.0000 0.10270  0.82720  0.36250  Biso   1.000  H
  H240     1.0000 0.89730  0.17280  0.63750  Biso   1.000  H
  H241     1.0000 0.05480  0.74450  0.42120  Biso   1.000  H
  H242     1.0000 0.94520  0.25550  0.57880  Biso   1.000  H
  H243     1.0000 0.94180  0.66170  0.41790  Biso   1.000  H
  H244     1.0000 0.05820  0.33830  0.58210  Biso   1.000  H
  H245     1.0000 0.86170  0.57010  0.44250  Biso   1.000  H
  H246     1.0000 0.13830  0.42990  0.55750  Biso   1.000  H
  H247     1.0000 0.81050  0.45580  0.38460  Biso   1.000  H
  H248     1.0000 0.18950  0.54420  0.61540  Biso   1.000  H
  H249     1.0000 0.84110  0.44220  0.30790  Biso   1.000  H
  H250     1.0000 0.15890  0.55780  0.69210  Biso   1.000  H
  H251     1.0000 0.85290  0.40700  0.22300  Biso   1.000  H
  H252     1.0000 0.14710  0.59300  0.77700  Biso   1.000  H
  H253     1.0000 0.85820  0.43590  0.16830  Biso   1.000  H
  H254     1.0000 0.14180  0.56410  0.83170  Biso   1.000  H
  H255     1.0000 0.80880  0.43960  0.19820  Biso   1.000  H
  H256     1.0000 0.19120  0.56040  0.80180  Biso   1.000  H
  H257     1.0000 0.04640  0.00510  0.20810  Biso   1.000  H
  H258     1.0000 0.95360  0.99490  0.79190  Biso   1.000  H
  H259     1.0000 0.98510  0.94650  0.22200  Biso   1.000  H
  H260     1.0000 0.01490  0.05350  0.77800  Biso   1.000  H
  H261     1.0000 0.09570  0.01400  0.36540  Biso   1.000  H
  H262     1.0000 0.90430  0.98600  0.63460  Biso   1.000  H
  H263     1.0000 0.10290  0.11360  0.41940  Biso   1.000  H
  H264     1.0000 0.89710  0.88640  0.58060  Biso   1.000  H
  H265     1.0000 0.14330  0.23580  0.41160  Biso   1.000  H
  H266     1.0000 0.85670  0.76420  0.58840  Biso   1.000  H
  H267     1.0000 0.14060  0.33490  0.43030  Biso   1.000  H
  H268     1.0000 0.85940  0.66510  0.56970  Biso   1.000  H
  H269     1.0000 0.04590  0.33750  0.36780  Biso   1.000  H
  H270     1.0000 0.95410  0.66250  0.63220  Biso   1.000  H
  H271     1.0000 0.94620  0.24050  0.29260  Biso   1.000  H
  H272     1.0000 0.05380  0.75950  0.70740  Biso   1.000  H
  H273     1.0000 0.85200  0.15920  0.21950  Biso   1.000  H
  H274     1.0000 0.14800  0.84080  0.78050  Biso   1.000  H
  H275     1.0000 0.83540  0.10710  0.16360  Biso   1.000  H
  H276     1.0000 0.16460  0.89290  0.83640  Biso   1.000  H
  H277     1.0000 0.90900  0.17900  0.19110  Biso   1.000  H
  H278     1.0000 0.09100  0.82100  0.80890  Biso   1.000  H
  H279     1.0000 0.94710  0.86740  0.23720  Biso   1.000  H
  H280     1.0000 0.05290  0.13260  0.76280  Biso   1.000  H
  H281     1.0000 0.96090  0.81960  0.27270  Biso   1.000  H
  H282     1.0000 0.03910  0.18040  0.72730  Biso   1.000  H
  H283     1.0000 0.93850  0.80180  0.20380  Biso   1.000  H
  H284     1.0000 0.06150  0.19820  0.79620  Biso   1.000  H
  H285     1.0000 0.24210  0.08670  0.28440  Biso   1.000  H
  H286     1.0000 0.75790  0.91330  0.71560  Biso   1.000  H
  H287     1.0000 0.18510  0.08910  0.30450  Biso   1.000  H
  H288     1.0000 0.81490  0.91090  0.69550  Biso   1.000  H
  H289     1.0000 0.17050  0.07340  0.23690  Biso   1.000  H
  H290     1.0000 0.82950  0.92660  0.76310  Biso   1.000  H
  H291     1.0000 0.25400  0.89280  0.29460  Biso   1.000  H
  H292     1.0000 0.74600  0.10720  0.70540  Biso   1.000  H
  H293     1.0000 0.18760  0.82260  0.24900  Biso   1.000  H
  H294     1.0000 0.81240  0.17740  0.75100  Biso   1.000  H
  H295     1.0000 0.19930  0.83750  0.31610  Biso   1.000  H
  H296     1.0000 0.80070  0.16250  0.68390  Biso   1.000  H
  H297     1.0000 0.49310  0.73100  0.18210  Biso   1.000  H
  H298     1.0000 0.50690  0.26900  0.81790  Biso   1.000  H
  H299     1.0000 0.53900  0.81110  0.20810  Biso   1.000  H
  H300     1.0000 0.46100  0.18890  0.79190  Biso   1.000  H
  H301     1.0000 0.36710  0.75000  0.08650  Biso   1.000  H
  H302     1.0000 0.63290  0.25000  0.91350  Biso   1.000  H
  H303     1.0000 0.38700  0.76970  0.99320  Biso   1.000  H
  H304     1.0000 0.61300  0.23030  0.00680  Biso   1.000  H
  H305     1.0000 0.46200  0.84540  0.95610  Biso   1.000  H
  H306     1.0000 0.53800  0.15460  0.04390  Biso   1.000  H
  H307     1.0000 0.50850  0.87330  0.88410  Biso   1.000  H
  H308     1.0000 0.49150  0.12670  0.11590  Biso   1.000  H
  H309     1.0000 0.60380  0.86310  0.88600  Biso   1.000  H
  H310     1.0000 0.39620  0.13690  0.11400  Biso   1.000  H
  H311     1.0000 0.65260  0.82500  0.95970  Biso   1.000  H
  H312     1.0000 0.34740  0.17500  0.04030  Biso   1.000  H
  H313     1.0000 0.62130  0.68710  0.07940  Biso   1.000  H
  H314     1.0000 0.37870  0.31290  0.92060  Biso   1.000  H
  H315     1.0000 0.59190  0.67400  0.01020  Biso   1.000  H
  H316     1.0000 0.40810  0.32600  0.98980  Biso   1.000  H
  H317     1.0000 0.54310  0.67000  0.04400  Biso   1.000  H
  H318     1.0000 0.45690  0.33000  0.95600  Biso   1.000  H
  H319     1.0000 0.55490  0.66860  0.04850  Biso   1.000  H
  H320     1.0000 0.44510  0.33140  0.95150  Biso   1.000  H
  H321     1.0000 0.53460  0.68120  0.98590  Biso   1.000  H
  H322     1.0000 0.46540  0.31880  0.01410  Biso   1.000  H
  H323     1.0000 0.50860  0.70060  0.03200  Biso   1.000  H
  H324     1.0000 0.49140  0.29940  0.96800  Biso   1.000  H
  H325     1.0000 0.31100  0.61040  0.24890  Biso   1.000  H
  H326     1.0000 0.68900  0.38960  0.75110  Biso   1.000  H
  H327     1.0000 0.28030  0.64590  0.27710  Biso   1.000  H
  H328     1.0000 0.71970  0.35410  0.72290  Biso   1.000  H
  H329     1.0000 0.22430  0.62570  0.11760  Biso   1.000  H
  H330     1.0000 0.77570  0.37430  0.88240  Biso   1.000  H
  H331     1.0000 0.10910  0.51690  0.05970  Biso   1.000  H
  H332     1.0000 0.89090  0.48310  0.94030  Biso   1.000  H
  H333     1.0000 0.06500  0.39220  0.05530  Biso   1.000  H
  H334     1.0000 0.93500  0.60780  0.94470  Biso   1.000  H
  H335     1.0000 0.96710  0.27950  0.02570  Biso   1.000  H
  H336     1.0000 0.03290  0.72050  0.97430  Biso   1.000  H
  H337     1.0000 0.90960  0.24020  0.08670  Biso   1.000  H
  H338     1.0000 0.09040  0.75980  0.91330  Biso   1.000  H
  H339     1.0000 0.92980  0.31520  0.16910  Biso   1.000  H
  H340     1.0000 0.07020  0.68480  0.83090  Biso   1.000  H
  H341     1.0000 0.94000  0.37240  0.24570  Biso   1.000  H
  H342     1.0000 0.06000  0.62760  0.75430  Biso   1.000  H
  H343     1.0000 0.99590  0.43470  0.30280  Biso   1.000  H
  H344     1.0000 0.00410  0.56530  0.69720  Biso   1.000  H
  H345     1.0000 0.01640  0.38520  0.28050  Biso   1.000  H
  H346     1.0000 0.98360  0.61480  0.71950  Biso   1.000  H
  H347     1.0000 0.41990  0.92420  0.25360  Biso   1.000  H
  H348     1.0000 0.58010  0.07580  0.74640  Biso   1.000  H
  H349     1.0000 0.35890  0.88460  0.27720  Biso   1.000  H
  H350     1.0000 0.64110  0.11540  0.72280  Biso   1.000  H
  H351     1.0000 0.49690  0.85720  0.35860  Biso   1.000  H
  H352     1.0000 0.50310  0.14280  0.64140  Biso   1.000  H
  H353     1.0000 0.58220  0.94890  0.45730  Biso   1.000  H
  H354     1.0000 0.41780  0.05110  0.54270  Biso   1.000  H
  H355     1.0000 0.66450  0.06370  0.49900  Biso   1.000  H
  H356     1.0000 0.33550  0.93630  0.50100  Biso   1.000  H
  H357     1.0000 0.73510  0.16670  0.57360  Biso   1.000  H
  H358     1.0000 0.26490  0.83330  0.42640  Biso   1.000  H
  H359     1.0000 0.68670  0.23010  0.58850  Biso   1.000  H
  H360     1.0000 0.31330  0.76990  0.41150  Biso   1.000  H
  H361     1.0000 0.56770  0.19040  0.52890  Biso   1.000  H
  H362     1.0000 0.43230  0.80960  0.47110  Biso   1.000  H
  H363     1.0000 0.45640  0.15690  0.49790  Biso   1.000  H
  H364     1.0000 0.54360  0.84310  0.50210  Biso   1.000  H
  H365     1.0000 0.38560  0.12200  0.43960  Biso   1.000  H
  H366     1.0000 0.61440  0.87800  0.56040  Biso   1.000  H
  H367     1.0000 0.46050  0.17680  0.43930  Biso   1.000  H
  H368     1.0000 0.53950  0.82320  0.56070  Biso   1.000  H
  H369     1.0000 0.33420  0.60050  0.18550  Biso   1.000  H
  H370     1.0000 0.66580  0.39950  0.81450  Biso   1.000  H
  H371     1.0000 0.41780  0.63950  0.20180  Biso   1.000  H
  H372     1.0000 0.58220  0.36050  0.79820  Biso   1.000  H
  H373     1.0000 0.36550  0.63220  0.13960  Biso   1.000  H
  H374     1.0000 0.63450  0.36780  0.86040  Biso   1.000  H
  H375     1.0000 0.30250  0.80590  0.29200  Biso   1.000  H
  H376     1.0000 0.69750  0.19410  0.70800  Biso   1.000  H
  H377     1.0000 0.29310  0.74120  0.31240  Biso   1.000  H
  H378     1.0000 0.70690  0.25880  0.68760  Biso   1.000  H
  H379     1.0000 0.24160  0.73220  0.24910  Biso   1.000  H
  H380     1.0000 0.75840  0.26780  0.75090  Biso   1.000  H
  H381     1.0000 0.52730  0.88680  0.20360  Biso   1.000  H
  H382     1.0000 0.47270  0.11320  0.79640  Biso   1.000  H
  H383     1.0000 0.53100  0.92650  0.26040  Biso   1.000  H
  H384     1.0000 0.46900  0.07350  0.73960  Biso   1.000  H
  H385     1.0000 0.47510  0.91230  0.19740  Biso   1.000  H
  H386     1.0000 0.52490  0.08770  0.80260  Biso   1.000  H
  H387     1.0000 0.86560  0.97820  0.37860  Biso   1.000  H
  H388     1.0000 0.13440  0.02180  0.62140  Biso   1.000  H
  H389     1.0000 0.87860  0.03260  0.34280  Biso   1.000  H
  H390     1.0000 0.12140  0.96740  0.65720  Biso   1.000  H
  H391     1.0000 0.94410  0.03050  0.38340  Biso   1.000  H
  H392     1.0000 0.05590  0.96950  0.61660  Biso   1.000  H
