data_image0
_cell_length_a       26.201
_cell_length_b       23.579
_cell_length_c       19.075
_cell_angle_alpha    90
_cell_angle_beta     94.479
_cell_angle_gamma    90

_symmetry_space_group_name_H-M    "P 1"
_symmetry_int_tables_number       1

loop_
  _symmetry_equiv_pos_as_xyz
  'x, y, z'

loop_
  _atom_site_label
  _atom_site_occupancy
  _atom_site_fract_x
  _atom_site_fract_y
  _atom_site_fract_z
  _atom_site_thermal_displace_type
  _atom_site_B_iso_or_equiv
  _atom_site_type_symbol
  Cu1      1.0000 0.45130  0.48680  0.78130  Biso   1.000  Cu
  Cu2      1.0000 0.54870  0.98680  0.71870  Biso   1.000  Cu
  Cu3      1.0000 0.54870  0.51320  0.21870  Biso   1.000  Cu
  Cu4      1.0000 0.45130  0.01320  0.28130  Biso   1.000  Cu
  N1       1.0000 0.46000  0.49770  0.67390  Biso   1.000  N
  N2       1.0000 0.54000  0.99770  0.82610  Biso   1.000  N
  N3       1.0000 0.54000  0.50230  0.32610  Biso   1.000  N
  N4       1.0000 0.46000  0.00230  0.17390  Biso   1.000  N
  P1       1.0000 0.52460  0.44700  0.82000  Biso   1.000  P
  P2       1.0000 0.47540  0.94700  0.68000  Biso   1.000  P
  P3       1.0000 0.47540  0.55300  0.18000  Biso   1.000  P
  P4       1.0000 0.52460  0.05300  0.32000  Biso   1.000  P
  Cu5      1.0000 0.22620  0.86710  0.93010  Biso   1.000  Cu
  Cu6      1.0000 0.77380  0.36710  0.56990  Biso   1.000  Cu
  Cu7      1.0000 0.77380  0.13290  0.06990  Biso   1.000  Cu
  Cu8      1.0000 0.22620  0.63290  0.43010  Biso   1.000  Cu
  Cu9      1.0000 0.16590  0.19410  0.50750  Biso   1.000  Cu
  Cu10     1.0000 0.83410  0.69410  0.99250  Biso   1.000  Cu
  Cu11     1.0000 0.83410  0.80590  0.49250  Biso   1.000  Cu
  Cu12     1.0000 0.16590  0.30590  0.00750  Biso   1.000  Cu
  Cl1      1.0000 0.98600  0.51330  0.40410  Biso   1.000  Cl
  Cl2      1.0000 0.01400  0.01330  0.09590  Biso   1.000  Cl
  Cl3      1.0000 0.01400  0.48670  0.59590  Biso   1.000  Cl
  Cl4      1.0000 0.98600  0.98670  0.90410  Biso   1.000  Cl
  Cl5      1.0000 0.02370  0.47360  0.27620  Biso   1.000  Cl
  Cl6      1.0000 0.97630  0.97360  0.22380  Biso   1.000  Cl
  Cl7      1.0000 0.97630  0.52640  0.72380  Biso   1.000  Cl
  Cl8      1.0000 0.02370  0.02640  0.77620  Biso   1.000  Cl
  Cl9      1.0000 0.05130  0.58060  0.32760  Biso   1.000  Cl
  Cl10     1.0000 0.94870  0.08060  0.17240  Biso   1.000  Cl
  Cl11     1.0000 0.94870  0.41940  0.67240  Biso   1.000  Cl
  Cl12     1.0000 0.05130  0.91940  0.82760  Biso   1.000  Cl
  P5       1.0000 0.20150  0.17340  0.41000  Biso   1.000  P
  P6       1.0000 0.79850  0.67340  0.09000  Biso   1.000  P
  P7       1.0000 0.79850  0.82660  0.59000  Biso   1.000  P
  P8       1.0000 0.20150  0.32660  0.91000  Biso   1.000  P
  P9       1.0000 0.27890  0.90380  0.01380  Biso   1.000  P
  P10      1.0000 0.72110  0.40380  0.48620  Biso   1.000  P
  P11      1.0000 0.72110  0.09620  0.98620  Biso   1.000  P
  P12      1.0000 0.27890  0.59620  0.51380  Biso   1.000  P
  F1       1.0000 0.30660  0.62280  0.04350  Biso   1.000  F
  F2       1.0000 0.69340  0.12280  0.45650  Biso   1.000  F
  F3       1.0000 0.69340  0.37720  0.95650  Biso   1.000  F
  F4       1.0000 0.30660  0.87720  0.54350  Biso   1.000  F
  F5       1.0000 0.24220  0.68410  0.05680  Biso   1.000  F
  F6       1.0000 0.75780  0.18410  0.44320  Biso   1.000  F
  F7       1.0000 0.75780  0.31590  0.94320  Biso   1.000  F
  F8       1.0000 0.24220  0.81590  0.55680  Biso   1.000  F
  F9       1.0000 0.23190  0.59130  0.07780  Biso   1.000  F
  F10      1.0000 0.76810  0.09130  0.42220  Biso   1.000  F
  F11      1.0000 0.76810  0.40870  0.92220  Biso   1.000  F
  F12      1.0000 0.23190  0.90870  0.57780  Biso   1.000  F
  F13      1.0000 0.28350  0.64210  0.15200  Biso   1.000  F
  F14      1.0000 0.71650  0.14210  0.34800  Biso   1.000  F
  F15      1.0000 0.71650  0.35790  0.84800  Biso   1.000  F
  F16      1.0000 0.28350  0.85790  0.65200  Biso   1.000  F
  F17      1.0000 0.58680  0.71000  0.75240  Biso   1.000  F
  F18      1.0000 0.41320  0.21000  0.74760  Biso   1.000  F
  F19      1.0000 0.41320  0.29000  0.24760  Biso   1.000  F
  F20      1.0000 0.58680  0.79000  0.25240  Biso   1.000  F
  F21      1.0000 0.53160  0.73480  0.66150  Biso   1.000  F
  F22      1.0000 0.46840  0.23480  0.83850  Biso   1.000  F
  F23      1.0000 0.46840  0.26520  0.33850  Biso   1.000  F
  F24      1.0000 0.53160  0.76520  0.16150  Biso   1.000  F
  F25      1.0000 0.51110  0.66600  0.73700  Biso   1.000  F
  F26      1.0000 0.48890  0.16600  0.76300  Biso   1.000  F
  F27      1.0000 0.48890  0.33400  0.26300  Biso   1.000  F
  F28      1.0000 0.51110  0.83400  0.23700  Biso   1.000  F
  F29      1.0000 0.57160  0.64940  0.66140  Biso   1.000  F
  F30      1.0000 0.42840  0.14940  0.83860  Biso   1.000  F
  F31      1.0000 0.42840  0.35060  0.33860  Biso   1.000  F
  F32      1.0000 0.57160  0.85060  0.16140  Biso   1.000  F
  F33      1.0000 0.18160  0.42290  0.47460  Biso   1.000  F
  F34      1.0000 0.81840  0.92290  0.02540  Biso   1.000  F
  F35      1.0000 0.81840  0.57710  0.52540  Biso   1.000  F
  F36      1.0000 0.18160  0.07710  0.97460  Biso   1.000  F
  F37      1.0000 0.10150  0.40250  0.42840  Biso   1.000  F
  F38      1.0000 0.89850  0.90250  0.07160  Biso   1.000  F
  F39      1.0000 0.89850  0.59750  0.57160  Biso   1.000  F
  F40      1.0000 0.10150  0.09750  0.92840  Biso   1.000  F
  F41      1.0000 0.11830  0.48750  0.47620  Biso   1.000  F
  F42      1.0000 0.88170  0.98750  0.02380  Biso   1.000  F
  F43      1.0000 0.88170  0.51250  0.52380  Biso   1.000  F
  F44      1.0000 0.11830  0.01250  0.97620  Biso   1.000  F
  F45      1.0000 0.11870  0.40870  0.54480  Biso   1.000  F
  F46      1.0000 0.88130  0.90870  0.95520  Biso   1.000  F
  F47      1.0000 0.88130  0.59130  0.45520  Biso   1.000  F
  F48      1.0000 0.11870  0.09130  0.04480  Biso   1.000  F
  N5       1.0000 0.41290  0.55910  0.80500  Biso   1.000  N
  N6       1.0000 0.58710  0.05910  0.69500  Biso   1.000  N
  N7       1.0000 0.58710  0.44090  0.19500  Biso   1.000  N
  N8       1.0000 0.41290  0.94090  0.30500  Biso   1.000  N
  N9       1.0000 0.38700  0.43080  0.77030  Biso   1.000  N
  N10      1.0000 0.61300  0.93080  0.72970  Biso   1.000  N
  N11      1.0000 0.61300  0.56920  0.22970  Biso   1.000  N
  N12      1.0000 0.38700  0.06920  0.27030  Biso   1.000  N
  N13      1.0000 0.20540  0.92150  0.84850  Biso   1.000  N
  N14      1.0000 0.79460  0.42150  0.65150  Biso   1.000  N
  N15      1.0000 0.79460  0.07850  0.15150  Biso   1.000  N
  N16      1.0000 0.20540  0.57850  0.34850  Biso   1.000  N
  N17      1.0000 0.26080  0.79760  0.88500  Biso   1.000  N
  N18      1.0000 0.73920  0.29760  0.61500  Biso   1.000  N
  N19      1.0000 0.73920  0.20240  0.11500  Biso   1.000  N
  N20      1.0000 0.26080  0.70240  0.38500  Biso   1.000  N
  N21      1.0000 0.15410  0.83690  0.94540  Biso   1.000  N
  N22      1.0000 0.84590  0.33690  0.55460  Biso   1.000  N
  N23      1.0000 0.84590  0.16310  0.05460  Biso   1.000  N
  N24      1.0000 0.15410  0.66310  0.44540  Biso   1.000  N
  N25      1.0000 0.16030  0.12610  0.57760  Biso   1.000  N
  N26      1.0000 0.83970  0.62610  0.92240  Biso   1.000  N
  N27      1.0000 0.83970  0.87390  0.42240  Biso   1.000  N
  N28      1.0000 0.16030  0.37390  0.07760  Biso   1.000  N
  N29      1.0000 0.21510  0.24840  0.56860  Biso   1.000  N
  N30      1.0000 0.78490  0.74840  0.93140  Biso   1.000  N
  N31      1.0000 0.78490  0.75160  0.43140  Biso   1.000  N
  N32      1.0000 0.21510  0.25160  0.06860  Biso   1.000  N
  N33      1.0000 0.09390  0.22700  0.51270  Biso   1.000  N
  N34      1.0000 0.90610  0.72700  0.98730  Biso   1.000  N
  N35      1.0000 0.90610  0.77300  0.48730  Biso   1.000  N
  N36      1.0000 0.09390  0.27300  0.01270  Biso   1.000  N
  C1       1.0000 0.38500  0.56030  0.86040  Biso   1.000  C
  C2       1.0000 0.61500  0.06030  0.63960  Biso   1.000  C
  C3       1.0000 0.61500  0.43970  0.13960  Biso   1.000  C
  C4       1.0000 0.38500  0.93970  0.36040  Biso   1.000  C
  C5       1.0000 0.35390  0.60600  0.87620  Biso   1.000  C
  C6       1.0000 0.64610  0.10600  0.62380  Biso   1.000  C
  C7       1.0000 0.64610  0.39400  0.12380  Biso   1.000  C
  C8       1.0000 0.35390  0.89400  0.37620  Biso   1.000  C
  C9       1.0000 0.35120  0.65330  0.83370  Biso   1.000  C
  C10      1.0000 0.64880  0.15330  0.66630  Biso   1.000  C
  C11      1.0000 0.64880  0.34670  0.16630  Biso   1.000  C
  C12      1.0000 0.35120  0.84670  0.33370  Biso   1.000  C
  C13      1.0000 0.38070  0.65190  0.77520  Biso   1.000  C
  C14      1.0000 0.61930  0.15190  0.72480  Biso   1.000  C
  C15      1.0000 0.61930  0.34810  0.22480  Biso   1.000  C
  C16      1.0000 0.38070  0.84810  0.27520  Biso   1.000  C
  C17      1.0000 0.41010  0.60450  0.76300  Biso   1.000  C
  C18      1.0000 0.58990  0.10450  0.73700  Biso   1.000  C
  C19      1.0000 0.58990  0.39550  0.23700  Biso   1.000  C
  C20      1.0000 0.41010  0.89550  0.26300  Biso   1.000  C
  C21      1.0000 0.31880  0.70290  0.85020  Biso   1.000  C
  C22      1.0000 0.68120  0.20290  0.64980  Biso   1.000  C
  C23      1.0000 0.68120  0.29710  0.14980  Biso   1.000  C
  C24      1.0000 0.31880  0.79710  0.35020  Biso   1.000  C
  C25      1.0000 0.32050  0.75400  0.81250  Biso   1.000  C
  C26      1.0000 0.67950  0.25400  0.68750  Biso   1.000  C
  C27      1.0000 0.67950  0.24600  0.18750  Biso   1.000  C
  C28      1.0000 0.32050  0.74600  0.31250  Biso   1.000  C
  C29      1.0000 0.29080  0.79900  0.83160  Biso   1.000  C
  C30      1.0000 0.70920  0.29900  0.66840  Biso   1.000  C
  C31      1.0000 0.70920  0.20100  0.16840  Biso   1.000  C
  C32      1.0000 0.29080  0.70100  0.33160  Biso   1.000  C
  C33      1.0000 0.25910  0.74830  0.91890  Biso   1.000  C
  C34      1.0000 0.74090  0.24830  0.58110  Biso   1.000  C
  C35      1.0000 0.74090  0.25170  0.08110  Biso   1.000  C
  C36      1.0000 0.25910  0.75170  0.41890  Biso   1.000  C
  C37      1.0000 0.28660  0.70110  0.90410  Biso   1.000  C
  C38      1.0000 0.71340  0.20110  0.59590  Biso   1.000  C
  C39      1.0000 0.71340  0.29890  0.09590  Biso   1.000  C
  C40      1.0000 0.28660  0.79890  0.40410  Biso   1.000  C
  C41      1.0000 0.49290  0.53710  0.65310  Biso   1.000  C
  C42      1.0000 0.50710  0.03710  0.84690  Biso   1.000  C
  C43      1.0000 0.50710  0.46290  0.34690  Biso   1.000  C
  C44      1.0000 0.49290  0.96290  0.15310  Biso   1.000  C
  C45      1.0000 0.50920  0.54000  0.58600  Biso   1.000  C
  C46      1.0000 0.49080  0.04000  0.91400  Biso   1.000  C
  C47      1.0000 0.49080  0.46000  0.41400  Biso   1.000  C
  C48      1.0000 0.50920  0.96000  0.08600  Biso   1.000  C
  C49      1.0000 0.49170  0.49970  0.53590  Biso   1.000  C
  C50      1.0000 0.50830  0.99970  0.96410  Biso   1.000  C
  C51      1.0000 0.50830  0.50030  0.46410  Biso   1.000  C
  C52      1.0000 0.49170  0.00030  0.03590  Biso   1.000  C
  C53      1.0000 0.45870  0.45860  0.55730  Biso   1.000  C
  C54      1.0000 0.54130  0.95860  0.94270  Biso   1.000  C
  C55      1.0000 0.54130  0.54140  0.44270  Biso   1.000  C
  C56      1.0000 0.45870  0.04140  0.05730  Biso   1.000  C
  C57      1.0000 0.44410  0.45950  0.62620  Biso   1.000  C
  C58      1.0000 0.55590  0.95950  0.87380  Biso   1.000  C
  C59      1.0000 0.55590  0.54050  0.37380  Biso   1.000  C
  C60      1.0000 0.44410  0.04050  0.12620  Biso   1.000  C
  C61      1.0000 0.34320  0.44960  0.73860  Biso   1.000  C
  C62      1.0000 0.65680  0.94960  0.76140  Biso   1.000  C
  C63      1.0000 0.65680  0.55040  0.26140  Biso   1.000  C
  C64      1.0000 0.34320  0.05040  0.23860  Biso   1.000  C
  C65      1.0000 0.30830  0.41630  0.70140  Biso   1.000  C
  C66      1.0000 0.69170  0.91630  0.79860  Biso   1.000  C
  C67      1.0000 0.69170  0.58370  0.29860  Biso   1.000  C
  C68      1.0000 0.30830  0.08370  0.20140  Biso   1.000  C
  C69      1.0000 0.31800  0.35810  0.69500  Biso   1.000  C
  C70      1.0000 0.68200  0.85810  0.80500  Biso   1.000  C
  C71      1.0000 0.68200  0.64190  0.30500  Biso   1.000  C
  C72      1.0000 0.31800  0.14190  0.19500  Biso   1.000  C
  C73      1.0000 0.36340  0.33780  0.72860  Biso   1.000  C
  C74      1.0000 0.63660  0.83780  0.77140  Biso   1.000  C
  C75      1.0000 0.63660  0.66220  0.27140  Biso   1.000  C
  C76      1.0000 0.36340  0.16220  0.22860  Biso   1.000  C
  C77      1.0000 0.39510  0.37460  0.76630  Biso   1.000  C
  C78      1.0000 0.60490  0.87460  0.73370  Biso   1.000  C
  C79      1.0000 0.60490  0.62540  0.23370  Biso   1.000  C
  C80      1.0000 0.39510  0.12540  0.26630  Biso   1.000  C
  C81      1.0000 0.28240  0.32030  0.64980  Biso   1.000  C
  C82      1.0000 0.71760  0.82030  0.85020  Biso   1.000  C
  C83      1.0000 0.71760  0.67970  0.35020  Biso   1.000  C
  C84      1.0000 0.28240  0.17970  0.14980  Biso   1.000  C
  C85      1.0000 0.25260  0.34050  0.59380  Biso   1.000  C
  C86      1.0000 0.74740  0.84050  0.90620  Biso   1.000  C
  C87      1.0000 0.74740  0.65950  0.40620  Biso   1.000  C
  C88      1.0000 0.25260  0.15950  0.09380  Biso   1.000  C
  C89      1.0000 0.21980  0.30470  0.55340  Biso   1.000  C
  C90      1.0000 0.78020  0.80470  0.94660  Biso   1.000  C
  C91      1.0000 0.78020  0.69530  0.44660  Biso   1.000  C
  C92      1.0000 0.21980  0.19530  0.05340  Biso   1.000  C
  C93      1.0000 0.24540  0.22960  0.62350  Biso   1.000  C
  C94      1.0000 0.75460  0.72960  0.87650  Biso   1.000  C
  C95      1.0000 0.75460  0.77040  0.37650  Biso   1.000  C
  C96      1.0000 0.24540  0.27040  0.12350  Biso   1.000  C
  C97      1.0000 0.27900  0.26260  0.66380  Biso   1.000  C
  C98      1.0000 0.72100  0.76260  0.83620  Biso   1.000  C
  C99      1.0000 0.72100  0.73740  0.33620  Biso   1.000  C
  C100     1.0000 0.27900  0.23740  0.16380  Biso   1.000  C
  C101     1.0000 0.19960  0.90590  0.78120  Biso   1.000  C
  C102     1.0000 0.80040  0.40590  0.71880  Biso   1.000  C
  C103     1.0000 0.80040  0.09410  0.21880  Biso   1.000  C
  C104     1.0000 0.19960  0.59410  0.28120  Biso   1.000  C
  C105     1.0000 0.18650  0.94280  0.72650  Biso   1.000  C
  C106     1.0000 0.81350  0.44280  0.77350  Biso   1.000  C
  C107     1.0000 0.81350  0.05720  0.27350  Biso   1.000  C
  C108     1.0000 0.18650  0.55720  0.22650  Biso   1.000  C
  C109     1.0000 0.17840  0.99950  0.73970  Biso   1.000  C
  C110     1.0000 0.82160  0.49950  0.76030  Biso   1.000  C
  C111     1.0000 0.82160  0.00050  0.26030  Biso   1.000  C
  C112     1.0000 0.17840  0.50050  0.23970  Biso   1.000  C
  C113     1.0000 0.18210  0.01540  0.81040  Biso   1.000  C
  C114     1.0000 0.81790  0.51540  0.68960  Biso   1.000  C
  C115     1.0000 0.81790  0.98460  0.18960  Biso   1.000  C
  C116     1.0000 0.18210  0.48460  0.31040  Biso   1.000  C
  C117     1.0000 0.19580  0.97600  0.86200  Biso   1.000  C
  C118     1.0000 0.80420  0.47600  0.63800  Biso   1.000  C
  C119     1.0000 0.80420  0.02400  0.13800  Biso   1.000  C
  C120     1.0000 0.19580  0.52400  0.36200  Biso   1.000  C
  C121     1.0000 0.12330  0.86270  0.98720  Biso   1.000  C
  C122     1.0000 0.87670  0.36270  0.51280  Biso   1.000  C
  C123     1.0000 0.87670  0.13730  0.01280  Biso   1.000  C
  C124     1.0000 0.12330  0.63730  0.48720  Biso   1.000  C
  C125     1.0000 0.07360  0.84340  0.99680  Biso   1.000  C
  C126     1.0000 0.92640  0.34340  0.50320  Biso   1.000  C
  C127     1.0000 0.92640  0.15660  0.00320  Biso   1.000  C
  C128     1.0000 0.07360  0.65660  0.49680  Biso   1.000  C
  C129     1.0000 0.05520  0.79500  0.96140  Biso   1.000  C
  C130     1.0000 0.94480  0.29500  0.53860  Biso   1.000  C
  C131     1.0000 0.94480  0.20500  0.03860  Biso   1.000  C
  C132     1.0000 0.05520  0.70500  0.46140  Biso   1.000  C
  C133     1.0000 0.08790  0.77060  0.91710  Biso   1.000  C
  C134     1.0000 0.91210  0.27060  0.58290  Biso   1.000  C
  C135     1.0000 0.91210  0.22940  0.08290  Biso   1.000  C
  C136     1.0000 0.08790  0.72940  0.41710  Biso   1.000  C
  C137     1.0000 0.13560  0.79190  0.91030  Biso   1.000  C
  C138     1.0000 0.86440  0.29190  0.58970  Biso   1.000  C
  C139     1.0000 0.86440  0.20810  0.08970  Biso   1.000  C
  C140     1.0000 0.13560  0.70810  0.41030  Biso   1.000  C
  C141     1.0000 0.14350  0.13410  0.64090  Biso   1.000  C
  C142     1.0000 0.85650  0.63410  0.85910  Biso   1.000  C
  C143     1.0000 0.85650  0.86590  0.35910  Biso   1.000  C
  C144     1.0000 0.14350  0.36590  0.14090  Biso   1.000  C
  C145     1.0000 0.14630  0.09360  0.69400  Biso   1.000  C
  C146     1.0000 0.85370  0.59360  0.80600  Biso   1.000  C
  C147     1.0000 0.85370  0.90640  0.30600  Biso   1.000  C
  C148     1.0000 0.14630  0.40640  0.19400  Biso   1.000  C
  C149     1.0000 0.16940  0.04180  0.68390  Biso   1.000  C
  C150     1.0000 0.83060  0.54180  0.81610  Biso   1.000  C
  C151     1.0000 0.83060  0.95820  0.31610  Biso   1.000  C
  C152     1.0000 0.16940  0.45820  0.18390  Biso   1.000  C
  C153     1.0000 0.18530  0.03240  0.61650  Biso   1.000  C
  C154     1.0000 0.81470  0.53240  0.88350  Biso   1.000  C
  C155     1.0000 0.81470  0.96760  0.38350  Biso   1.000  C
  C156     1.0000 0.18530  0.46760  0.11650  Biso   1.000  C
  C157     1.0000 0.18030  0.07560  0.56680  Biso   1.000  C
  C158     1.0000 0.81970  0.57560  0.93320  Biso   1.000  C
  C159     1.0000 0.81970  0.92440  0.43320  Biso   1.000  C
  C160     1.0000 0.18030  0.42440  0.06680  Biso   1.000  C
  C161     1.0000 0.08470  0.28290  0.51570  Biso   1.000  C
  C162     1.0000 0.91530  0.78290  0.98430  Biso   1.000  C
  C163     1.0000 0.91530  0.71710  0.48430  Biso   1.000  C
  C164     1.0000 0.08470  0.21710  0.01570  Biso   1.000  C
  C165     1.0000 0.03770  0.30670  0.52170  Biso   1.000  C
  C166     1.0000 0.96230  0.80670  0.97830  Biso   1.000  C
  C167     1.0000 0.96230  0.69330  0.47830  Biso   1.000  C
  C168     1.0000 0.03770  0.19330  0.02170  Biso   1.000  C
  C169     1.0000 0.00380  0.77200  0.97120  Biso   1.000  C
  C170     1.0000 0.99620  0.27200  0.52880  Biso   1.000  C
  C171     1.0000 0.99620  0.22800  0.02880  Biso   1.000  C
  C172     1.0000 0.00380  0.72800  0.47120  Biso   1.000  C
  C173     1.0000 0.99480  0.71440  0.97310  Biso   1.000  C
  C174     1.0000 0.00520  0.21440  0.52690  Biso   1.000  C
  C175     1.0000 0.00520  0.28560  0.02690  Biso   1.000  C
  C176     1.0000 0.99480  0.78560  0.47310  Biso   1.000  C
  C177     1.0000 0.05310  0.19490  0.51920  Biso   1.000  C
  C178     1.0000 0.94690  0.69490  0.98080  Biso   1.000  C
  C179     1.0000 0.94690  0.80510  0.48080  Biso   1.000  C
  C180     1.0000 0.05310  0.30510  0.01920  Biso   1.000  C
  B1       1.0000 0.26610  0.63420  0.08260  Biso   1.000  B
  B2       1.0000 0.73390  0.13420  0.41740  Biso   1.000  B
  B3       1.0000 0.73390  0.36580  0.91740  Biso   1.000  B
  B4       1.0000 0.26610  0.86580  0.58260  Biso   1.000  B
  B5       1.0000 0.55060  0.69060  0.70310  Biso   1.000  B
  B6       1.0000 0.44940  0.19060  0.79690  Biso   1.000  B
  B7       1.0000 0.44940  0.30940  0.29690  Biso   1.000  B
  B8       1.0000 0.55060  0.80940  0.20310  Biso   1.000  B
  B9       1.0000 0.12870  0.42910  0.47960  Biso   1.000  B
  B10      1.0000 0.87130  0.92910  0.02040  Biso   1.000  B
  B11      1.0000 0.87130  0.57090  0.52040  Biso   1.000  B
  B12      1.0000 0.12870  0.07090  0.97960  Biso   1.000  B
  C181     1.0000 0.16240  0.14750  0.33350  Biso   1.000  C
  C182     1.0000 0.83760  0.64750  0.16650  Biso   1.000  C
  C183     1.0000 0.83760  0.85250  0.66650  Biso   1.000  C
  C184     1.0000 0.16240  0.35250  0.83350  Biso   1.000  C
  C185     1.0000 0.17610  0.15260  0.26550  Biso   1.000  C
  C186     1.0000 0.82390  0.65260  0.23450  Biso   1.000  C
  C187     1.0000 0.82390  0.84740  0.73450  Biso   1.000  C
  C188     1.0000 0.17610  0.34740  0.76550  Biso   1.000  C
  C189     1.0000 0.14530  0.13100  0.21110  Biso   1.000  C
  C190     1.0000 0.85470  0.63100  0.28890  Biso   1.000  C
  C191     1.0000 0.85470  0.86900  0.78890  Biso   1.000  C
  C192     1.0000 0.14530  0.36900  0.71110  Biso   1.000  C
  C193     1.0000 0.10150  0.10140  0.22180  Biso   1.000  C
  C194     1.0000 0.89850  0.60140  0.27820  Biso   1.000  C
  C195     1.0000 0.89850  0.89860  0.77820  Biso   1.000  C
  C196     1.0000 0.10150  0.39860  0.72180  Biso   1.000  C
  C197     1.0000 0.08840  0.09460  0.28690  Biso   1.000  C
  C198     1.0000 0.91160  0.59460  0.21310  Biso   1.000  C
  C199     1.0000 0.91160  0.90540  0.71310  Biso   1.000  C
  C200     1.0000 0.08840  0.40540  0.78690  Biso   1.000  C
  C201     1.0000 0.11830  0.11730  0.34530  Biso   1.000  C
  C202     1.0000 0.88170  0.61730  0.15470  Biso   1.000  C
  C203     1.0000 0.88170  0.88270  0.65470  Biso   1.000  C
  C204     1.0000 0.11830  0.38270  0.84530  Biso   1.000  C
  C205     1.0000 0.23700  0.23250  0.37520  Biso   1.000  C
  C206     1.0000 0.76300  0.73250  0.12480  Biso   1.000  C
  C207     1.0000 0.76300  0.76750  0.62480  Biso   1.000  C
  C208     1.0000 0.23700  0.26750  0.87520  Biso   1.000  C
  C209     1.0000 0.21140  0.28290  0.36810  Biso   1.000  C
  C210     1.0000 0.78860  0.78290  0.13190  Biso   1.000  C
  C211     1.0000 0.78860  0.71710  0.63190  Biso   1.000  C
  C212     1.0000 0.21140  0.21710  0.86810  Biso   1.000  C
  C213     1.0000 0.23690  0.33140  0.34250  Biso   1.000  C
  C214     1.0000 0.76310  0.83140  0.15750  Biso   1.000  C
  C215     1.0000 0.76310  0.66860  0.65750  Biso   1.000  C
  C216     1.0000 0.23690  0.16860  0.84250  Biso   1.000  C
  C217     1.0000 0.28870  0.32600  0.32870  Biso   1.000  C
  C218     1.0000 0.71130  0.82600  0.17130  Biso   1.000  C
  C219     1.0000 0.71130  0.67400  0.67130  Biso   1.000  C
  C220     1.0000 0.28870  0.17400  0.82870  Biso   1.000  C
  C221     1.0000 0.31210  0.27660  0.33890  Biso   1.000  C
  C222     1.0000 0.68790  0.77660  0.16110  Biso   1.000  C
  C223     1.0000 0.68790  0.72340  0.66110  Biso   1.000  C
  C224     1.0000 0.31210  0.22340  0.83890  Biso   1.000  C
  C225     1.0000 0.28770  0.22950  0.36220  Biso   1.000  C
  C226     1.0000 0.71230  0.72950  0.13780  Biso   1.000  C
  C227     1.0000 0.71230  0.77050  0.63780  Biso   1.000  C
  C228     1.0000 0.28770  0.27050  0.86220  Biso   1.000  C
  C229     1.0000 0.24900  0.11830  0.42540  Biso   1.000  C
  C230     1.0000 0.75100  0.61830  0.07460  Biso   1.000  C
  C231     1.0000 0.75100  0.88170  0.57460  Biso   1.000  C
  C232     1.0000 0.24900  0.38170  0.92540  Biso   1.000  C
  C233     1.0000 0.28810  0.12610  0.47920  Biso   1.000  C
  C234     1.0000 0.71190  0.62610  0.02080  Biso   1.000  C
  C235     1.0000 0.71190  0.87390  0.52080  Biso   1.000  C
  C236     1.0000 0.28810  0.37390  0.97920  Biso   1.000  C
  C237     1.0000 0.32040  0.08130  0.50030  Biso   1.000  C
  C238     1.0000 0.67960  0.58130  0.99970  Biso   1.000  C
  C239     1.0000 0.67960  0.91870  0.49970  Biso   1.000  C
  C240     1.0000 0.32040  0.41870  0.00030  Biso   1.000  C
  C241     1.0000 0.31310  0.02810  0.47210  Biso   1.000  C
  C242     1.0000 0.68690  0.52810  0.02790  Biso   1.000  C
  C243     1.0000 0.68690  0.97190  0.52790  Biso   1.000  C
  C244     1.0000 0.31310  0.47190  0.97210  Biso   1.000  C
  C245     1.0000 0.27640  0.02110  0.41960  Biso   1.000  C
  C246     1.0000 0.72360  0.52110  0.08040  Biso   1.000  C
  C247     1.0000 0.72360  0.97890  0.58040  Biso   1.000  C
  C248     1.0000 0.27640  0.47890  0.91960  Biso   1.000  C
  C249     1.0000 0.24460  0.06420  0.39430  Biso   1.000  C
  C250     1.0000 0.75540  0.56420  0.10570  Biso   1.000  C
  C251     1.0000 0.75540  0.93580  0.60570  Biso   1.000  C
  C252     1.0000 0.24460  0.43580  0.89430  Biso   1.000  C
  C253     1.0000 0.33160  0.85830  0.04730  Biso   1.000  C
  C254     1.0000 0.66840  0.35830  0.45270  Biso   1.000  C
  C255     1.0000 0.66840  0.14170  0.95270  Biso   1.000  C
  C256     1.0000 0.33160  0.64170  0.54730  Biso   1.000  C
  C257     1.0000 0.32060  0.80420  0.06830  Biso   1.000  C
  C258     1.0000 0.67940  0.30420  0.43170  Biso   1.000  C
  C259     1.0000 0.67940  0.19580  0.93170  Biso   1.000  C
  C260     1.0000 0.32060  0.69580  0.56830  Biso   1.000  C
  C261     1.0000 0.35880  0.76640  0.09410  Biso   1.000  C
  C262     1.0000 0.64120  0.26640  0.40590  Biso   1.000  C
  C263     1.0000 0.64120  0.23360  0.90590  Biso   1.000  C
  C264     1.0000 0.35880  0.73360  0.59410  Biso   1.000  C
  C265     1.0000 0.40870  0.78340  0.09780  Biso   1.000  C
  C266     1.0000 0.59130  0.28340  0.40220  Biso   1.000  C
  C267     1.0000 0.59130  0.21660  0.90220  Biso   1.000  C
  C268     1.0000 0.40870  0.71660  0.59780  Biso   1.000  C
  C269     1.0000 0.42040  0.83800  0.07640  Biso   1.000  C
  C270     1.0000 0.57960  0.33800  0.42360  Biso   1.000  C
  C271     1.0000 0.57960  0.16200  0.92360  Biso   1.000  C
  C272     1.0000 0.42040  0.66200  0.57640  Biso   1.000  C
  C273     1.0000 0.38270  0.87550  0.05130  Biso   1.000  C
  C274     1.0000 0.61730  0.37550  0.44870  Biso   1.000  C
  C275     1.0000 0.61730  0.12450  0.94870  Biso   1.000  C
  C276     1.0000 0.38270  0.62450  0.55130  Biso   1.000  C
  C277     1.0000 0.25220  0.92970  0.09460  Biso   1.000  C
  C278     1.0000 0.74780  0.42970  0.40540  Biso   1.000  C
  C279     1.0000 0.74780  0.07030  0.90540  Biso   1.000  C
  C280     1.0000 0.25220  0.57030  0.59460  Biso   1.000  C
  C281     1.0000 0.27150  0.91450  0.16140  Biso   1.000  C
  C282     1.0000 0.72850  0.41450  0.33860  Biso   1.000  C
  C283     1.0000 0.72850  0.08550  0.83860  Biso   1.000  C
  C284     1.0000 0.27150  0.58550  0.66140  Biso   1.000  C
  C285     1.0000 0.24840  0.93510  0.21940  Biso   1.000  C
  C286     1.0000 0.75160  0.43510  0.28060  Biso   1.000  C
  C287     1.0000 0.75160  0.06490  0.78060  Biso   1.000  C
  C288     1.0000 0.24840  0.56490  0.71940  Biso   1.000  C
  C289     1.0000 0.20610  0.97100  0.21170  Biso   1.000  C
  C290     1.0000 0.79390  0.47100  0.28830  Biso   1.000  C
  C291     1.0000 0.79390  0.02900  0.78830  Biso   1.000  C
  C292     1.0000 0.20610  0.52900  0.71170  Biso   1.000  C
  C293     1.0000 0.18710  0.98570  0.14460  Biso   1.000  C
  C294     1.0000 0.81290  0.48570  0.35540  Biso   1.000  C
  C295     1.0000 0.81290  0.01430  0.85540  Biso   1.000  C
  C296     1.0000 0.18710  0.51430  0.64460  Biso   1.000  C
  C297     1.0000 0.21000  0.96470  0.08630  Biso   1.000  C
  C298     1.0000 0.79000  0.46470  0.41370  Biso   1.000  C
  C299     1.0000 0.79000  0.03530  0.91370  Biso   1.000  C
  C300     1.0000 0.21000  0.53530  0.58630  Biso   1.000  C
  C301     1.0000 0.30990  0.96710  0.98010  Biso   1.000  C
  C302     1.0000 0.69010  0.46710  0.51990  Biso   1.000  C
  C303     1.0000 0.69010  0.03290  0.01990  Biso   1.000  C
  C304     1.0000 0.30990  0.53290  0.48010  Biso   1.000  C
  C305     1.0000 0.31650  0.01730  0.01950  Biso   1.000  C
  C306     1.0000 0.68350  0.51730  0.48050  Biso   1.000  C
  C307     1.0000 0.68350  0.98270  0.98050  Biso   1.000  C
  C308     1.0000 0.31650  0.48270  0.51950  Biso   1.000  C
  C309     1.0000 0.33770  0.06470  0.98980  Biso   1.000  C
  C310     1.0000 0.66230  0.56470  0.51020  Biso   1.000  C
  C311     1.0000 0.66230  0.93530  0.01020  Biso   1.000  C
  C312     1.0000 0.33770  0.43530  0.48980  Biso   1.000  C
  C313     1.0000 0.35290  0.06290  0.92230  Biso   1.000  C
  C314     1.0000 0.64710  0.56290  0.57770  Biso   1.000  C
  C315     1.0000 0.64710  0.93710  0.07770  Biso   1.000  C
  C316     1.0000 0.35290  0.43710  0.42230  Biso   1.000  C
  C317     1.0000 0.34660  0.01360  0.88290  Biso   1.000  C
  C318     1.0000 0.65340  0.51360  0.61710  Biso   1.000  C
  C319     1.0000 0.65340  0.98640  0.11710  Biso   1.000  C
  C320     1.0000 0.34660  0.48640  0.38290  Biso   1.000  C
  C321     1.0000 0.32500  0.96610  0.91310  Biso   1.000  C
  C322     1.0000 0.67500  0.46610  0.58690  Biso   1.000  C
  C323     1.0000 0.67500  0.03390  0.08690  Biso   1.000  C
  C324     1.0000 0.32500  0.53390  0.41310  Biso   1.000  C
  C325     1.0000 0.58250  0.49060  0.82210  Biso   1.000  C
  C326     1.0000 0.41750  0.99060  0.67790  Biso   1.000  C
  C327     1.0000 0.41750  0.50940  0.17790  Biso   1.000  C
  C328     1.0000 0.58250  0.00940  0.32210  Biso   1.000  C
  C329     1.0000 0.63180  0.46620  0.82730  Biso   1.000  C
  C330     1.0000 0.36820  0.96620  0.67270  Biso   1.000  C
  C331     1.0000 0.36820  0.53380  0.17270  Biso   1.000  C
  C332     1.0000 0.63180  0.03380  0.32730  Biso   1.000  C
  C333     1.0000 0.67400  0.49900  0.82620  Biso   1.000  C
  C334     1.0000 0.32600  0.99900  0.67380  Biso   1.000  C
  C335     1.0000 0.32600  0.50100  0.17380  Biso   1.000  C
  C336     1.0000 0.67400  0.00100  0.32620  Biso   1.000  C
  C337     1.0000 0.67020  0.55670  0.81630  Biso   1.000  C
  C338     1.0000 0.32980  0.05670  0.68370  Biso   1.000  C
  C339     1.0000 0.32980  0.44330  0.18370  Biso   1.000  C
  C340     1.0000 0.67020  0.94330  0.31630  Biso   1.000  C
  C341     1.0000 0.62230  0.58260  0.81140  Biso   1.000  C
  C342     1.0000 0.37770  0.08260  0.68860  Biso   1.000  C
  C343     1.0000 0.37770  0.41740  0.18860  Biso   1.000  C
  C344     1.0000 0.62230  0.91740  0.31140  Biso   1.000  C
  C345     1.0000 0.57820  0.54920  0.81470  Biso   1.000  C
  C346     1.0000 0.42180  0.04920  0.68530  Biso   1.000  C
  C347     1.0000 0.42180  0.45080  0.18530  Biso   1.000  C
  C348     1.0000 0.57820  0.95080  0.31470  Biso   1.000  C
  C349     1.0000 0.54090  0.39030  0.75930  Biso   1.000  C
  C350     1.0000 0.45910  0.89030  0.74070  Biso   1.000  C
  C351     1.0000 0.45910  0.60970  0.24070  Biso   1.000  C
  C352     1.0000 0.54090  0.10970  0.25930  Biso   1.000  C
  C353     1.0000 0.56170  0.40610  0.69730  Biso   1.000  C
  C354     1.0000 0.43830  0.90610  0.80270  Biso   1.000  C
  C355     1.0000 0.43830  0.59390  0.30270  Biso   1.000  C
  C356     1.0000 0.56170  0.09390  0.19730  Biso   1.000  C
  C357     1.0000 0.57110  0.36480  0.64670  Biso   1.000  C
  C358     1.0000 0.42890  0.86480  0.85330  Biso   1.000  C
  C359     1.0000 0.42890  0.63520  0.35330  Biso   1.000  C
  C360     1.0000 0.57110  0.13520  0.14670  Biso   1.000  C
  C361     1.0000 0.55960  0.30950  0.65840  Biso   1.000  C
  C362     1.0000 0.44040  0.80950  0.84160  Biso   1.000  C
  C363     1.0000 0.44040  0.69050  0.34160  Biso   1.000  C
  C364     1.0000 0.55960  0.19050  0.15840  Biso   1.000  C
  C365     1.0000 0.53900  0.29330  0.71870  Biso   1.000  C
  C366     1.0000 0.46100  0.79330  0.78130  Biso   1.000  C
  C367     1.0000 0.46100  0.70670  0.28130  Biso   1.000  C
  C368     1.0000 0.53900  0.20670  0.21870  Biso   1.000  C
  C369     1.0000 0.52980  0.33420  0.76970  Biso   1.000  C
  C370     1.0000 0.47020  0.83420  0.73030  Biso   1.000  C
  C371     1.0000 0.47020  0.66580  0.23030  Biso   1.000  C
  C372     1.0000 0.52980  0.16580  0.26970  Biso   1.000  C
  C373     1.0000 0.52540  0.41410  0.90580  Biso   1.000  C
  C374     1.0000 0.47460  0.91410  0.59420  Biso   1.000  C
  C375     1.0000 0.47460  0.58590  0.09420  Biso   1.000  C
  C376     1.0000 0.52540  0.08590  0.40580  Biso   1.000  C
  C377     1.0000 0.56200  0.37450  0.93150  Biso   1.000  C
  C378     1.0000 0.43800  0.87450  0.56850  Biso   1.000  C
  C379     1.0000 0.43800  0.62550  0.06850  Biso   1.000  C
  C380     1.0000 0.56200  0.12550  0.43150  Biso   1.000  C
  C381     1.0000 0.55950  0.35110  0.99820  Biso   1.000  C
  C382     1.0000 0.44050  0.85110  0.50180  Biso   1.000  C
  C383     1.0000 0.44050  0.64890  0.00180  Biso   1.000  C
  C384     1.0000 0.55950  0.14890  0.49820  Biso   1.000  C
  C385     1.0000 0.52230  0.36820  0.04120  Biso   1.000  C
  C386     1.0000 0.47770  0.86820  0.45880  Biso   1.000  C
  C387     1.0000 0.47770  0.63180  0.95880  Biso   1.000  C
  C388     1.0000 0.52230  0.13180  0.54120  Biso   1.000  C
  C389     1.0000 0.48630  0.40780  0.01690  Biso   1.000  C
  C390     1.0000 0.51370  0.90780  0.48310  Biso   1.000  C
  C391     1.0000 0.51370  0.59220  0.98310  Biso   1.000  C
  C392     1.0000 0.48630  0.09220  0.51690  Biso   1.000  C
  C393     1.0000 0.48710  0.43000  0.94890  Biso   1.000  C
  C394     1.0000 0.51290  0.93000  0.55110  Biso   1.000  C
  C395     1.0000 0.51290  0.57000  0.05110  Biso   1.000  C
  C396     1.0000 0.48710  0.07000  0.44890  Biso   1.000  C
  C397     1.0000 0.03740  0.51290  0.34870  Biso   1.000  C
  C398     1.0000 0.96260  0.01290  0.15130  Biso   1.000  C
  C399     1.0000 0.96260  0.48710  0.65130  Biso   1.000  C
  C400     1.0000 0.03740  0.98710  0.84870  Biso   1.000  C
  C401     1.0000 0.45580  0.26640  0.53760  Biso   1.000  C
  C402     1.0000 0.54420  0.76640  0.96240  Biso   1.000  C
  C403     1.0000 0.54420  0.73360  0.46240  Biso   1.000  C
  C404     1.0000 0.45580  0.23360  0.03760  Biso   1.000  C
  C405     1.0000 0.43530  0.30460  0.58170  Biso   1.000  C
  C406     1.0000 0.56470  0.80460  0.91830  Biso   1.000  C
  C407     1.0000 0.56470  0.69540  0.41830  Biso   1.000  C
  C408     1.0000 0.43530  0.19540  0.08170  Biso   1.000  C
  C409     1.0000 0.38790  0.31730  0.56380  Biso   1.000  C
  C410     1.0000 0.61210  0.81730  0.93620  Biso   1.000  C
  C411     1.0000 0.61210  0.68270  0.43620  Biso   1.000  C
  C412     1.0000 0.38790  0.18270  0.06380  Biso   1.000  C
  C413     1.0000 0.36370  0.27600  0.51600  Biso   1.000  C
  C414     1.0000 0.63630  0.77600  0.98400  Biso   1.000  C
  C415     1.0000 0.63630  0.72400  0.48400  Biso   1.000  C
  C416     1.0000 0.36370  0.22400  0.01600  Biso   1.000  C
  C417     1.0000 0.40570  0.23240  0.50260  Biso   1.000  C
  C418     1.0000 0.59430  0.73240  0.99740  Biso   1.000  C
  C419     1.0000 0.59430  0.76760  0.49740  Biso   1.000  C
  C420     1.0000 0.40570  0.26760  0.00260  Biso   1.000  C
  C421     1.0000 0.04510  0.24000  0.70950  Biso   1.000  C
  C422     1.0000 0.95490  0.74000  0.79050  Biso   1.000  C
  C423     1.0000 0.95490  0.76000  0.29050  Biso   1.000  C
  C424     1.0000 0.04510  0.26000  0.20950  Biso   1.000  C
  C425     1.0000 0.07160  0.19810  0.75420  Biso   1.000  C
  C426     1.0000 0.92840  0.69810  0.74580  Biso   1.000  C
  C427     1.0000 0.92840  0.80190  0.24580  Biso   1.000  C
  C428     1.0000 0.07160  0.30190  0.25420  Biso   1.000  C
  C429     1.0000 0.05210  0.18690  0.82080  Biso   1.000  C
  C430     1.0000 0.94790  0.68690  0.67920  Biso   1.000  C
  C431     1.0000 0.94790  0.81310  0.17920  Biso   1.000  C
  C432     1.0000 0.05210  0.31310  0.32080  Biso   1.000  C
  C433     1.0000 0.01650  0.23230  0.83000  Biso   1.000  C
  C434     1.0000 0.98350  0.73230  0.67000  Biso   1.000  C
  C435     1.0000 0.98350  0.76770  0.17000  Biso   1.000  C
  C436     1.0000 0.01650  0.26770  0.33000  Biso   1.000  C
  C437     1.0000 0.01200  0.25900  0.76100  Biso   1.000  C
  C438     1.0000 0.98800  0.75900  0.73900  Biso   1.000  C
  C439     1.0000 0.98800  0.74100  0.23900  Biso   1.000  C
  C440     1.0000 0.01200  0.24100  0.26100  Biso   1.000  C
  C441     1.0000 0.13620  0.74980  0.13140  Biso   1.000  C
  C442     1.0000 0.86380  0.24980  0.36860  Biso   1.000  C
  C443     1.0000 0.86380  0.25020  0.86860  Biso   1.000  C
  C444     1.0000 0.13620  0.75020  0.63140  Biso   1.000  C
  C445     1.0000 0.13530  0.71920  0.20000  Biso   1.000  C
  C446     1.0000 0.86470  0.21920  0.30000  Biso   1.000  C
  C447     1.0000 0.86470  0.28080  0.80000  Biso   1.000  C
  C448     1.0000 0.13530  0.78080  0.70000  Biso   1.000  C
  C449     1.0000 0.17350  0.74350  0.24840  Biso   1.000  C
  C450     1.0000 0.82650  0.24350  0.25160  Biso   1.000  C
  C451     1.0000 0.82650  0.25650  0.75160  Biso   1.000  C
  C452     1.0000 0.17350  0.75650  0.74840  Biso   1.000  C
  C453     1.0000 0.20660  0.77160  0.20240  Biso   1.000  C
  C454     1.0000 0.79340  0.27160  0.29760  Biso   1.000  C
  C455     1.0000 0.79340  0.22840  0.79760  Biso   1.000  C
  C456     1.0000 0.20660  0.72840  0.70240  Biso   1.000  C
  C457     1.0000 0.17450  0.79530  0.14070  Biso   1.000  C
  C458     1.0000 0.82550  0.29530  0.35930  Biso   1.000  C
  C459     1.0000 0.82550  0.20470  0.85930  Biso   1.000  C
  C460     1.0000 0.17450  0.70470  0.64070  Biso   1.000  C
  C461     1.0000 0.91400  0.08760  0.64010  Biso   1.000  C
  C462     1.0000 0.08600  0.58760  0.85990  Biso   1.000  C
  C463     1.0000 0.08600  0.91240  0.35990  Biso   1.000  C
  C464     1.0000 0.91400  0.41240  0.14010  Biso   1.000  C
  C465     1.0000 0.91370  0.12120  0.57650  Biso   1.000  C
  C466     1.0000 0.08630  0.62120  0.92350  Biso   1.000  C
  C467     1.0000 0.08630  0.87880  0.42350  Biso   1.000  C
  C468     1.0000 0.91370  0.37880  0.07650  Biso   1.000  C
  C469     1.0000 0.86100  0.11560  0.54210  Biso   1.000  C
  C470     1.0000 0.13900  0.61560  0.95790  Biso   1.000  C
  C471     1.0000 0.13900  0.88440  0.45790  Biso   1.000  C
  C472     1.0000 0.86100  0.38440  0.04210  Biso   1.000  C
  C473     1.0000 0.83540  0.10850  0.60700  Biso   1.000  C
  C474     1.0000 0.16460  0.60850  0.89300  Biso   1.000  C
  C475     1.0000 0.16460  0.89150  0.39300  Biso   1.000  C
  C476     1.0000 0.83540  0.39150  0.10700  Biso   1.000  C
  C477     1.0000 0.86600  0.05460  0.61300  Biso   1.000  C
  C478     1.0000 0.13400  0.55460  0.88700  Biso   1.000  C
  C479     1.0000 0.13400  0.94540  0.38700  Biso   1.000  C
  C480     1.0000 0.86600  0.44540  0.11300  Biso   1.000  C
  H1       1.0000 0.38640  0.52830  0.89090  Biso   1.000  H
  H2       1.0000 0.61360  0.02830  0.60910  Biso   1.000  H
  H3       1.0000 0.61360  0.47170  0.10910  Biso   1.000  H
  H4       1.0000 0.38640  0.97170  0.39090  Biso   1.000  H
  H5       1.0000 0.33450  0.60440  0.91630  Biso   1.000  H
  H6       1.0000 0.66550  0.10440  0.58370  Biso   1.000  H
  H7       1.0000 0.66550  0.39560  0.08370  Biso   1.000  H
  H8       1.0000 0.33450  0.89560  0.41630  Biso   1.000  H
  H9       1.0000 0.38040  0.68340  0.74410  Biso   1.000  H
  H10      1.0000 0.61960  0.18340  0.75590  Biso   1.000  H
  H11      1.0000 0.61960  0.31660  0.25590  Biso   1.000  H
  H12      1.0000 0.38040  0.81660  0.24410  Biso   1.000  H
  H13      1.0000 0.42920  0.60430  0.72270  Biso   1.000  H
  H14      1.0000 0.57080  0.10430  0.77730  Biso   1.000  H
  H15      1.0000 0.57080  0.39570  0.27730  Biso   1.000  H
  H16      1.0000 0.42920  0.89570  0.22270  Biso   1.000  H
  H17      1.0000 0.34170  0.75750  0.77450  Biso   1.000  H
  H18      1.0000 0.65830  0.25750  0.72550  Biso   1.000  H
  H19      1.0000 0.65830  0.24250  0.22550  Biso   1.000  H
  H20      1.0000 0.34170  0.74250  0.27450  Biso   1.000  H
  H21      1.0000 0.29180  0.83300  0.80500  Biso   1.000  H
  H22      1.0000 0.70820  0.33300  0.69500  Biso   1.000  H
  H23      1.0000 0.70820  0.16700  0.19500  Biso   1.000  H
  H24      1.0000 0.29180  0.66700  0.30500  Biso   1.000  H
  H25      1.0000 0.23720  0.74580  0.95620  Biso   1.000  H
  H26      1.0000 0.76280  0.24580  0.54380  Biso   1.000  H
  H27      1.0000 0.76280  0.25420  0.04380  Biso   1.000  H
  H28      1.0000 0.23720  0.75420  0.45620  Biso   1.000  H
  H29      1.0000 0.28360  0.66740  0.93070  Biso   1.000  H
  H30      1.0000 0.71640  0.16740  0.56930  Biso   1.000  H
  H31      1.0000 0.71640  0.33260  0.06930  Biso   1.000  H
  H32      1.0000 0.28360  0.83260  0.43070  Biso   1.000  H
  H33      1.0000 0.50560  0.56450  0.68650  Biso   1.000  H
  H34      1.0000 0.49440  0.06450  0.81350  Biso   1.000  H
  H35      1.0000 0.49440  0.43550  0.31350  Biso   1.000  H
  H36      1.0000 0.50560  0.93550  0.18650  Biso   1.000  H
  H37      1.0000 0.53210  0.56910  0.57410  Biso   1.000  H
  H38      1.0000 0.46790  0.06910  0.92590  Biso   1.000  H
  H39      1.0000 0.46790  0.43090  0.42590  Biso   1.000  H
  H40      1.0000 0.53210  0.93090  0.07410  Biso   1.000  H
  H41      1.0000 0.44590  0.43010  0.52540  Biso   1.000  H
  H42      1.0000 0.55410  0.93010  0.97460  Biso   1.000  H
  H43      1.0000 0.55410  0.56990  0.47460  Biso   1.000  H
  H44      1.0000 0.44590  0.06990  0.02540  Biso   1.000  H
  H45      1.0000 0.42130  0.43080  0.63970  Biso   1.000  H
  H46      1.0000 0.57870  0.93080  0.86030  Biso   1.000  H
  H47      1.0000 0.57870  0.56920  0.36030  Biso   1.000  H
  H48      1.0000 0.42130  0.06920  0.13970  Biso   1.000  H
  H49      1.0000 0.33580  0.48890  0.74220  Biso   1.000  H
  H50      1.0000 0.66420  0.98890  0.75780  Biso   1.000  H
  H51      1.0000 0.66420  0.51110  0.25780  Biso   1.000  H
  H52      1.0000 0.33580  0.01110  0.24220  Biso   1.000  H
  H53      1.0000 0.27760  0.43240  0.68000  Biso   1.000  H
  H54      1.0000 0.72240  0.93240  0.82000  Biso   1.000  H
  H55      1.0000 0.72240  0.56760  0.32000  Biso   1.000  H
  H56      1.0000 0.27760  0.06760  0.18000  Biso   1.000  H
  H57      1.0000 0.37170  0.29880  0.72560  Biso   1.000  H
  H58      1.0000 0.62830  0.79880  0.77440  Biso   1.000  H
  H59      1.0000 0.62830  0.70120  0.27440  Biso   1.000  H
  H60      1.0000 0.37170  0.20120  0.22560  Biso   1.000  H
  H61      1.0000 0.42500  0.35950  0.79100  Biso   1.000  H
  H62      1.0000 0.57500  0.85950  0.70900  Biso   1.000  H
  H63      1.0000 0.57500  0.64050  0.20900  Biso   1.000  H
  H64      1.0000 0.42500  0.14050  0.29100  Biso   1.000  H
  H65      1.0000 0.25410  0.37960  0.58200  Biso   1.000  H
  H66      1.0000 0.74590  0.87960  0.91800  Biso   1.000  H
  H67      1.0000 0.74590  0.62040  0.41800  Biso   1.000  H
  H68      1.0000 0.25410  0.12040  0.08200  Biso   1.000  H
  H69      1.0000 0.20010  0.31990  0.51390  Biso   1.000  H
  H70      1.0000 0.79990  0.81990  0.98610  Biso   1.000  H
  H71      1.0000 0.79990  0.68010  0.48610  Biso   1.000  H
  H72      1.0000 0.20010  0.18010  0.01390  Biso   1.000  H
  H73      1.0000 0.24340  0.19060  0.63530  Biso   1.000  H
  H74      1.0000 0.75660  0.69060  0.86470  Biso   1.000  H
  H75      1.0000 0.75660  0.80940  0.36470  Biso   1.000  H
  H76      1.0000 0.24340  0.30940  0.13530  Biso   1.000  H
  H77      1.0000 0.29990  0.24610  0.70130  Biso   1.000  H
  H78      1.0000 0.70010  0.74610  0.79870  Biso   1.000  H
  H79      1.0000 0.70010  0.75390  0.29870  Biso   1.000  H
  H80      1.0000 0.29990  0.25390  0.20130  Biso   1.000  H
  H81      1.0000 0.20490  0.86720  0.77020  Biso   1.000  H
  H82      1.0000 0.79510  0.36720  0.72980  Biso   1.000  H
  H83      1.0000 0.79510  0.13280  0.22980  Biso   1.000  H
  H84      1.0000 0.20490  0.63280  0.27020  Biso   1.000  H
  H85      1.0000 0.18300  0.92910  0.67950  Biso   1.000  H
  H86      1.0000 0.81700  0.42910  0.82050  Biso   1.000  H
  H87      1.0000 0.81700  0.07090  0.32050  Biso   1.000  H
  H88      1.0000 0.18300  0.57090  0.17950  Biso   1.000  H
  H89      1.0000 0.17510  0.05340  0.82310  Biso   1.000  H
  H90      1.0000 0.82490  0.55340  0.67690  Biso   1.000  H
  H91      1.0000 0.82490  0.94660  0.17690  Biso   1.000  H
  H92      1.0000 0.17510  0.44660  0.32310  Biso   1.000  H
  H93      1.0000 0.19870  0.98820  0.90960  Biso   1.000  H
  H94      1.0000 0.80130  0.48820  0.59040  Biso   1.000  H
  H95      1.0000 0.80130  0.01180  0.09040  Biso   1.000  H
  H96      1.0000 0.19870  0.51180  0.40960  Biso   1.000  H
  H97      1.0000 0.13530  0.89570  0.01180  Biso   1.000  H
  H98      1.0000 0.86470  0.39570  0.48820  Biso   1.000  H
  H99      1.0000 0.86470  0.10430  0.98820  Biso   1.000  H
  H100     1.0000 0.13530  0.60430  0.51180  Biso   1.000  H
  H101     1.0000 0.05270  0.86320  0.02720  Biso   1.000  H
  H102     1.0000 0.94730  0.36320  0.47280  Biso   1.000  H
  H103     1.0000 0.94730  0.13680  0.97280  Biso   1.000  H
  H104     1.0000 0.05270  0.63680  0.52720  Biso   1.000  H
  H105     1.0000 0.07690  0.73820  0.89060  Biso   1.000  H
  H106     1.0000 0.92310  0.23820  0.60940  Biso   1.000  H
  H107     1.0000 0.92310  0.26180  0.10940  Biso   1.000  H
  H108     1.0000 0.07690  0.76180  0.39060  Biso   1.000  H
  H109     1.0000 0.15660  0.77360  0.87880  Biso   1.000  H
  H110     1.0000 0.84340  0.27360  0.62120  Biso   1.000  H
  H111     1.0000 0.84340  0.22640  0.12120  Biso   1.000  H
  H112     1.0000 0.15660  0.72640  0.37880  Biso   1.000  H
  H113     1.0000 0.12870  0.16980  0.65040  Biso   1.000  H
  H114     1.0000 0.87130  0.66980  0.84960  Biso   1.000  H
  H115     1.0000 0.87130  0.83020  0.34960  Biso   1.000  H
  H116     1.0000 0.12870  0.33020  0.15040  Biso   1.000  H
  H117     1.0000 0.13230  0.10150  0.73740  Biso   1.000  H
  H118     1.0000 0.86770  0.60150  0.76260  Biso   1.000  H
  H119     1.0000 0.86770  0.89850  0.26260  Biso   1.000  H
  H120     1.0000 0.13230  0.39850  0.23740  Biso   1.000  H
  H121     1.0000 0.19930  0.99680  0.60480  Biso   1.000  H
  H122     1.0000 0.80070  0.49680  0.89520  Biso   1.000  H
  H123     1.0000 0.80070  0.00320  0.39520  Biso   1.000  H
  H124     1.0000 0.19930  0.50320  0.10480  Biso   1.000  H
  H125     1.0000 0.19210  0.06830  0.52180  Biso   1.000  H
  H126     1.0000 0.80790  0.56830  0.97820  Biso   1.000  H
  H127     1.0000 0.80790  0.93170  0.47820  Biso   1.000  H
  H128     1.0000 0.19210  0.43170  0.02180  Biso   1.000  H
  H129     1.0000 0.11300  0.30780  0.51350  Biso   1.000  H
  H130     1.0000 0.88700  0.80780  0.98650  Biso   1.000  H
  H131     1.0000 0.88700  0.69220  0.48650  Biso   1.000  H
  H132     1.0000 0.11300  0.19220  0.01350  Biso   1.000  H
  H133     1.0000 0.03370  0.34680  0.52100  Biso   1.000  H
  H134     1.0000 0.96630  0.84680  0.97900  Biso   1.000  H
  H135     1.0000 0.96630  0.65320  0.47900  Biso   1.000  H
  H136     1.0000 0.03370  0.15320  0.02100  Biso   1.000  H
  H137     1.0000 0.02210  0.68840  0.96900  Biso   1.000  H
  H138     1.0000 0.97790  0.18840  0.53100  Biso   1.000  H
  H139     1.0000 0.97790  0.31160  0.03100  Biso   1.000  H
  H140     1.0000 0.02210  0.81160  0.46900  Biso   1.000  H
  H141     1.0000 0.05780  0.15490  0.51850  Biso   1.000  H
  H142     1.0000 0.94220  0.65490  0.98150  Biso   1.000  H
  H143     1.0000 0.94220  0.84510  0.48150  Biso   1.000  H
  H144     1.0000 0.05780  0.34510  0.01850  Biso   1.000  H
  H145     1.0000 0.20710  0.17120  0.25660  Biso   1.000  H
  H146     1.0000 0.79290  0.67120  0.24340  Biso   1.000  H
  H147     1.0000 0.79290  0.82880  0.74340  Biso   1.000  H
  H148     1.0000 0.20710  0.32880  0.75660  Biso   1.000  H
  H149     1.0000 0.15450  0.13650  0.16430  Biso   1.000  H
  H150     1.0000 0.84550  0.63650  0.33570  Biso   1.000  H
  H151     1.0000 0.84550  0.86350  0.83570  Biso   1.000  H
  H152     1.0000 0.15450  0.36350  0.66430  Biso   1.000  H
  H153     1.0000 0.08080  0.08620  0.18320  Biso   1.000  H
  H154     1.0000 0.91920  0.58620  0.31680  Biso   1.000  H
  H155     1.0000 0.91920  0.91380  0.81680  Biso   1.000  H
  H156     1.0000 0.08080  0.41380  0.68320  Biso   1.000  H
  H157     1.0000 0.05830  0.07390  0.29460  Biso   1.000  H
  H158     1.0000 0.94170  0.57390  0.20540  Biso   1.000  H
  H159     1.0000 0.94170  0.92610  0.70540  Biso   1.000  H
  H160     1.0000 0.05830  0.42610  0.79460  Biso   1.000  H
  H161     1.0000 0.10830  0.11210  0.39170  Biso   1.000  H
  H162     1.0000 0.89170  0.61210  0.10830  Biso   1.000  H
  H163     1.0000 0.89170  0.88790  0.60830  Biso   1.000  H
  H164     1.0000 0.10830  0.38790  0.89170  Biso   1.000  H
  H165     1.0000 0.17700  0.28570  0.38000  Biso   1.000  H
  H166     1.0000 0.82300  0.78570  0.12000  Biso   1.000  H
  H167     1.0000 0.82300  0.71430  0.62000  Biso   1.000  H
  H168     1.0000 0.17700  0.21430  0.88000  Biso   1.000  H
  H169     1.0000 0.21930  0.36640  0.33510  Biso   1.000  H
  H170     1.0000 0.78070  0.86640  0.16490  Biso   1.000  H
  H171     1.0000 0.78070  0.63360  0.66490  Biso   1.000  H
  H172     1.0000 0.21930  0.13360  0.83510  Biso   1.000  H
  H173     1.0000 0.30670  0.35770  0.31220  Biso   1.000  H
  H174     1.0000 0.69330  0.85770  0.18780  Biso   1.000  H
  H175     1.0000 0.69330  0.64230  0.68780  Biso   1.000  H
  H176     1.0000 0.30670  0.14230  0.81220  Biso   1.000  H
  H177     1.0000 0.34720  0.27370  0.32980  Biso   1.000  H
  H178     1.0000 0.65280  0.77370  0.17020  Biso   1.000  H
  H179     1.0000 0.65280  0.72630  0.67020  Biso   1.000  H
  H180     1.0000 0.34720  0.22630  0.82980  Biso   1.000  H
  H181     1.0000 0.30590  0.19480  0.36920  Biso   1.000  H
  H182     1.0000 0.69410  0.69480  0.13080  Biso   1.000  H
  H183     1.0000 0.69410  0.80520  0.63080  Biso   1.000  H
  H184     1.0000 0.30590  0.30520  0.86920  Biso   1.000  H
  H185     1.0000 0.29250  0.16210  0.50120  Biso   1.000  H
  H186     1.0000 0.70750  0.66210  0.99880  Biso   1.000  H
  H187     1.0000 0.70750  0.83790  0.49880  Biso   1.000  H
  H188     1.0000 0.29250  0.33790  0.00120  Biso   1.000  H
  H189     1.0000 0.34800  0.08780  0.53470  Biso   1.000  H
  H190     1.0000 0.65200  0.58780  0.96530  Biso   1.000  H
  H191     1.0000 0.65200  0.91220  0.46530  Biso   1.000  H
  H192     1.0000 0.34800  0.41220  0.03470  Biso   1.000  H
  H193     1.0000 0.33350  0.99700  0.48920  Biso   1.000  H
  H194     1.0000 0.66650  0.49700  0.01080  Biso   1.000  H
  H195     1.0000 0.66650  0.00300  0.51080  Biso   1.000  H
  H196     1.0000 0.33350  0.50300  0.98920  Biso   1.000  H
  H197     1.0000 0.27220  0.98460  0.39880  Biso   1.000  H
  H198     1.0000 0.72780  0.48460  0.10120  Biso   1.000  H
  H199     1.0000 0.72780  0.01540  0.60120  Biso   1.000  H
  H200     1.0000 0.27220  0.51540  0.89880  Biso   1.000  H
  H201     1.0000 0.21990  0.05750  0.35610  Biso   1.000  H
  H202     1.0000 0.78010  0.55750  0.14390  Biso   1.000  H
  H203     1.0000 0.78010  0.94250  0.64390  Biso   1.000  H
  H204     1.0000 0.21990  0.44250  0.85610  Biso   1.000  H
  H205     1.0000 0.28590  0.79190  0.06510  Biso   1.000  H
  H206     1.0000 0.71410  0.29190  0.43490  Biso   1.000  H
  H207     1.0000 0.71410  0.20810  0.93490  Biso   1.000  H
  H208     1.0000 0.28590  0.70810  0.56510  Biso   1.000  H
  H209     1.0000 0.35010  0.72940  0.10890  Biso   1.000  H
  H210     1.0000 0.64990  0.22940  0.39110  Biso   1.000  H
  H211     1.0000 0.64990  0.27060  0.89110  Biso   1.000  H
  H212     1.0000 0.35010  0.77060  0.60890  Biso   1.000  H
  H213     1.0000 0.43510  0.75830  0.11490  Biso   1.000  H
  H214     1.0000 0.56490  0.25830  0.38510  Biso   1.000  H
  H215     1.0000 0.56490  0.24170  0.88510  Biso   1.000  H
  H216     1.0000 0.43510  0.74170  0.61490  Biso   1.000  H
  H217     1.0000 0.45520  0.84980  0.07900  Biso   1.000  H
  H218     1.0000 0.54480  0.34980  0.42100  Biso   1.000  H
  H219     1.0000 0.54480  0.15020  0.92100  Biso   1.000  H
  H220     1.0000 0.45520  0.65020  0.57900  Biso   1.000  H
  H221     1.0000 0.39150  0.91260  0.03690  Biso   1.000  H
  H222     1.0000 0.60850  0.41260  0.46310  Biso   1.000  H
  H223     1.0000 0.60850  0.08740  0.96310  Biso   1.000  H
  H224     1.0000 0.39150  0.58740  0.53690  Biso   1.000  H
  H225     1.0000 0.30030  0.89000  0.16770  Biso   1.000  H
  H226     1.0000 0.69970  0.39000  0.33230  Biso   1.000  H
  H227     1.0000 0.69970  0.11000  0.83230  Biso   1.000  H
  H228     1.0000 0.30030  0.61000  0.66770  Biso   1.000  H
  H229     1.0000 0.26070  0.92450  0.26530  Biso   1.000  H
  H230     1.0000 0.73930  0.42450  0.23470  Biso   1.000  H
  H231     1.0000 0.73930  0.07550  0.73470  Biso   1.000  H
  H232     1.0000 0.26070  0.57550  0.76530  Biso   1.000  H
  H233     1.0000 0.19070  0.98510  0.25160  Biso   1.000  H
  H234     1.0000 0.80930  0.48510  0.24840  Biso   1.000  H
  H235     1.0000 0.80930  0.01490  0.74840  Biso   1.000  H
  H236     1.0000 0.19070  0.51490  0.75160  Biso   1.000  H
  H237     1.0000 0.15830  0.01020  0.13820  Biso   1.000  H
  H238     1.0000 0.84170  0.51020  0.36180  Biso   1.000  H
  H239     1.0000 0.84170  0.98980  0.86180  Biso   1.000  H
  H240     1.0000 0.15830  0.48980  0.63820  Biso   1.000  H
  H241     1.0000 0.19620  0.97450  0.04040  Biso   1.000  H
  H242     1.0000 0.80380  0.47450  0.45960  Biso   1.000  H
  H243     1.0000 0.80380  0.02550  0.95960  Biso   1.000  H
  H244     1.0000 0.19620  0.52550  0.54040  Biso   1.000  H
  H245     1.0000 0.30650  0.01880  0.06630  Biso   1.000  H
  H246     1.0000 0.69350  0.51880  0.43370  Biso   1.000  H
  H247     1.0000 0.69350  0.98120  0.93370  Biso   1.000  H
  H248     1.0000 0.30650  0.48120  0.56630  Biso   1.000  H
  H249     1.0000 0.34180  0.09880  0.01630  Biso   1.000  H
  H250     1.0000 0.65820  0.59880  0.48370  Biso   1.000  H
  H251     1.0000 0.65820  0.90120  0.98370  Biso   1.000  H
  H252     1.0000 0.34180  0.40120  0.51630  Biso   1.000  H
  H253     1.0000 0.36760  0.09550  0.90270  Biso   1.000  H
  H254     1.0000 0.63240  0.59550  0.59730  Biso   1.000  H
  H255     1.0000 0.63240  0.90450  0.09730  Biso   1.000  H
  H256     1.0000 0.36760  0.40450  0.40270  Biso   1.000  H
  H257     1.0000 0.35680  0.01210  0.83620  Biso   1.000  H
  H258     1.0000 0.64320  0.51210  0.66380  Biso   1.000  H
  H259     1.0000 0.64320  0.98790  0.16380  Biso   1.000  H
  H260     1.0000 0.35680  0.48790  0.33620  Biso   1.000  H
  H261     1.0000 0.32060  0.93220  0.88630  Biso   1.000  H
  H262     1.0000 0.67940  0.43220  0.61370  Biso   1.000  H
  H263     1.0000 0.67940  0.06780  0.11370  Biso   1.000  H
  H264     1.0000 0.32060  0.56780  0.38630  Biso   1.000  H
  H265     1.0000 0.63540  0.42620  0.83170  Biso   1.000  H
  H266     1.0000 0.36460  0.92620  0.66830  Biso   1.000  H
  H267     1.0000 0.36460  0.57380  0.16830  Biso   1.000  H
  H268     1.0000 0.63540  0.07380  0.33170  Biso   1.000  H
  H269     1.0000 0.70690  0.48200  0.83240  Biso   1.000  H
  H270     1.0000 0.29310  0.98200  0.66760  Biso   1.000  H
  H271     1.0000 0.29310  0.51800  0.16760  Biso   1.000  H
  H272     1.0000 0.70690  0.01800  0.33240  Biso   1.000  H
  H273     1.0000 0.70020  0.57880  0.81270  Biso   1.000  H
  H274     1.0000 0.29980  0.07880  0.68730  Biso   1.000  H
  H275     1.0000 0.29980  0.42120  0.18730  Biso   1.000  H
  H276     1.0000 0.70020  0.92120  0.31270  Biso   1.000  H
  H277     1.0000 0.61940  0.62250  0.80600  Biso   1.000  H
  H278     1.0000 0.38060  0.12250  0.69400  Biso   1.000  H
  H279     1.0000 0.38060  0.37750  0.19400  Biso   1.000  H
  H280     1.0000 0.61940  0.87750  0.30600  Biso   1.000  H
  H281     1.0000 0.54540  0.56660  0.81180  Biso   1.000  H
  H282     1.0000 0.45460  0.06660  0.68820  Biso   1.000  H
  H283     1.0000 0.45460  0.43340  0.18820  Biso   1.000  H
  H284     1.0000 0.54540  0.93340  0.31180  Biso   1.000  H
  H285     1.0000 0.56960  0.44470  0.68910  Biso   1.000  H
  H286     1.0000 0.43040  0.94470  0.81090  Biso   1.000  H
  H287     1.0000 0.43040  0.55530  0.31090  Biso   1.000  H
  H288     1.0000 0.56960  0.05530  0.18910  Biso   1.000  H
  H289     1.0000 0.58540  0.37560  0.60440  Biso   1.000  H
  H290     1.0000 0.41460  0.87560  0.89560  Biso   1.000  H
  H291     1.0000 0.41460  0.62440  0.39560  Biso   1.000  H
  H292     1.0000 0.58540  0.12440  0.10440  Biso   1.000  H
  H293     1.0000 0.56610  0.28180  0.62400  Biso   1.000  H
  H294     1.0000 0.43390  0.78180  0.87600  Biso   1.000  H
  H295     1.0000 0.43390  0.71820  0.37600  Biso   1.000  H
  H296     1.0000 0.56610  0.21820  0.12400  Biso   1.000  H
  H297     1.0000 0.53090  0.25460  0.72620  Biso   1.000  H
  H298     1.0000 0.46910  0.75460  0.77380  Biso   1.000  H
  H299     1.0000 0.46910  0.74540  0.27380  Biso   1.000  H
  H300     1.0000 0.53090  0.24540  0.22620  Biso   1.000  H
  H301     1.0000 0.51580  0.32280  0.81200  Biso   1.000  H
  H302     1.0000 0.48420  0.82280  0.68800  Biso   1.000  H
  H303     1.0000 0.48420  0.67720  0.18800  Biso   1.000  H
  H304     1.0000 0.51580  0.17720  0.31200  Biso   1.000  H
  H305     1.0000 0.58860  0.36360  0.90340  Biso   1.000  H
  H306     1.0000 0.41140  0.86360  0.59660  Biso   1.000  H
  H307     1.0000 0.41140  0.63640  0.09660  Biso   1.000  H
  H308     1.0000 0.58860  0.13640  0.40340  Biso   1.000  H
  H309     1.0000 0.58370  0.32300  0.01420  Biso   1.000  H
  H310     1.0000 0.41630  0.82300  0.48580  Biso   1.000  H
  H311     1.0000 0.41630  0.67700  0.98580  Biso   1.000  H
  H312     1.0000 0.58370  0.17700  0.51420  Biso   1.000  H
  H313     1.0000 0.52150  0.35280  0.08710  Biso   1.000  H
  H314     1.0000 0.47850  0.85280  0.41290  Biso   1.000  H
  H315     1.0000 0.47850  0.64720  0.91290  Biso   1.000  H
  H316     1.0000 0.52150  0.14720  0.58710  Biso   1.000  H
  H317     1.0000 0.46090  0.42000  0.04640  Biso   1.000  H
  H318     1.0000 0.53910  0.92000  0.45360  Biso   1.000  H
  H319     1.0000 0.53910  0.58000  0.95360  Biso   1.000  H
  H320     1.0000 0.46090  0.08000  0.54640  Biso   1.000  H
  H321     1.0000 0.46140  0.45600  0.93190  Biso   1.000  H
  H322     1.0000 0.53860  0.95600  0.56810  Biso   1.000  H
  H323     1.0000 0.53860  0.54400  0.06810  Biso   1.000  H
  H324     1.0000 0.46140  0.04400  0.43190  Biso   1.000  H
