data_image0
_cell_length_a       12.2904
_cell_length_b       44.6752
_cell_length_c       14.6413
_cell_angle_alpha    90
_cell_angle_beta     93.004
_cell_angle_gamma    90

_symmetry_space_group_name_H-M    "P 1"
_symmetry_int_tables_number       1

loop_
  _symmetry_equiv_pos_as_xyz
  'x, y, z'

loop_
  _atom_site_label
  _atom_site_occupancy
  _atom_site_fract_x
  _atom_site_fract_y
  _atom_site_fract_z
  _atom_site_thermal_displace_type
  _atom_site_B_iso_or_equiv
  _atom_site_type_symbol
  Cu1      1.0000 0.11257  0.85344  0.72025  Biso   1.000  Cu
  Cu2      1.0000 0.11257  0.14656  0.22025  Biso   1.000  Cu
  Cu3      1.0000 0.61257  0.35344  0.72025  Biso   1.000  Cu
  Cu4      1.0000 0.61257  0.64656  0.22025  Biso   1.000  Cu
  Cu5      1.0000 0.14955  0.69253  0.98153  Biso   1.000  Cu
  Cu6      1.0000 0.14955  0.30747  0.48153  Biso   1.000  Cu
  Cu7      1.0000 0.64955  0.19253  0.98153  Biso   1.000  Cu
  Cu8      1.0000 0.64955  0.80747  0.48153  Biso   1.000  Cu
  Cu9      1.0000 0.11526  0.52598  0.77008  Biso   1.000  Cu
  Cu10     1.0000 0.11526  0.47402  0.27008  Biso   1.000  Cu
  Cu11     1.0000 0.61526  0.02598  0.77008  Biso   1.000  Cu
  Cu12     1.0000 0.61526  0.97402  0.27008  Biso   1.000  Cu
  Cu13     1.0000 0.16421  0.01411  0.99756  Biso   1.000  Cu
  Cu14     1.0000 0.16421  0.98589  0.49756  Biso   1.000  Cu
  Cu15     1.0000 0.66421  0.51411  0.99756  Biso   1.000  Cu
  Cu16     1.0000 0.66421  0.48589  0.49756  Biso   1.000  Cu
  Cu17     1.0000 0.09890  0.18066  0.75231  Biso   1.000  Cu
  Cu18     1.0000 0.09890  0.81934  0.25231  Biso   1.000  Cu
  Cu19     1.0000 0.59890  0.68066  0.75231  Biso   1.000  Cu
  Cu20     1.0000 0.59890  0.31934  0.25231  Biso   1.000  Cu
  Cu21     1.0000 0.66115  0.85333  0.94635  Biso   1.000  Cu
  Cu22     1.0000 0.66115  0.14667  0.44635  Biso   1.000  Cu
  Cu23     1.0000 0.16115  0.35333  0.94635  Biso   1.000  Cu
  Cu24     1.0000 0.16115  0.64667  0.44635  Biso   1.000  Cu
  N1       1.0000 0.08940  0.82035  0.80280  Biso   1.000  N
  N2       1.0000 0.08940  0.17965  0.30280  Biso   1.000  N
  N3       1.0000 0.58940  0.32035  0.80280  Biso   1.000  N
  N4       1.0000 0.58940  0.67965  0.30280  Biso   1.000  N
  C1       1.0000 0.06360  0.80132  0.84950  Biso   1.000  C
  C2       1.0000 0.06360  0.19868  0.34950  Biso   1.000  C
  C3       1.0000 0.56360  0.30132  0.84950  Biso   1.000  C
  C4       1.0000 0.56360  0.69868  0.34950  Biso   1.000  C
  N5       1.0000 0.02730  0.78106  0.90380  Biso   1.000  N
  N6       1.0000 0.02730  0.21894  0.40380  Biso   1.000  N
  N7       1.0000 0.52730  0.28106  0.90380  Biso   1.000  N
  N8       1.0000 0.52730  0.71894  0.40380  Biso   1.000  N
  C5       1.0000 0.07170  0.75507  0.91290  Biso   1.000  C
  C6       1.0000 0.07170  0.24493  0.41290  Biso   1.000  C
  C7       1.0000 0.57170  0.25507  0.91290  Biso   1.000  C
  C8       1.0000 0.57170  0.74493  0.41290  Biso   1.000  C
  N9       1.0000 0.10390  0.73138  0.92580  Biso   1.000  N
  N10      1.0000 0.10390  0.26862  0.42580  Biso   1.000  N
  N11      1.0000 0.60390  0.23138  0.92580  Biso   1.000  N
  N12      1.0000 0.60390  0.76862  0.42580  Biso   1.000  N
  N13      1.0000 0.17670  0.65898  0.90260  Biso   1.000  N
  N14      1.0000 0.17670  0.34102  0.40260  Biso   1.000  N
  N15      1.0000 0.67670  0.15898  0.90260  Biso   1.000  N
  N16      1.0000 0.67670  0.84102  0.40260  Biso   1.000  N
  C9       1.0000 0.20010  0.63786  0.86140  Biso   1.000  C
  C10      1.0000 0.20010  0.36214  0.36140  Biso   1.000  C
  C11      1.0000 0.70010  0.13786  0.86140  Biso   1.000  C
  C12      1.0000 0.70010  0.86214  0.36140  Biso   1.000  C
  N17      1.0000 0.23820  0.61618  0.81250  Biso   1.000  N
  N18      1.0000 0.23820  0.38382  0.31250  Biso   1.000  N
  N19      1.0000 0.73820  0.11618  0.81250  Biso   1.000  N
  N20      1.0000 0.73820  0.88382  0.31250  Biso   1.000  N
  C13      1.0000 0.19810  0.58930  0.82050  Biso   1.000  C
  C14      1.0000 0.19810  0.41070  0.32050  Biso   1.000  C
  C15      1.0000 0.69810  0.08930  0.82050  Biso   1.000  C
  C16      1.0000 0.69810  0.91070  0.32050  Biso   1.000  C
  N21      1.0000 0.17200  0.56449  0.82310  Biso   1.000  N
  N22      1.0000 0.17200  0.43551  0.32310  Biso   1.000  N
  N23      1.0000 0.67200  0.06449  0.82310  Biso   1.000  N
  N24      1.0000 0.67200  0.93551  0.32310  Biso   1.000  N
  N25      1.0000 0.15200  0.89126  0.78730  Biso   1.000  N
  N26      1.0000 0.15200  0.10874  0.28730  Biso   1.000  N
  N27      1.0000 0.65200  0.39126  0.78730  Biso   1.000  N
  N28      1.0000 0.65200  0.60874  0.28730  Biso   1.000  N
  C17      1.0000 0.19260  0.91307  0.81430  Biso   1.000  C
  C18      1.0000 0.19260  0.08693  0.31430  Biso   1.000  C
  C19      1.0000 0.69260  0.41307  0.81430  Biso   1.000  C
  C20      1.0000 0.69260  0.58693  0.31430  Biso   1.000  C
  N29      1.0000 0.24810  0.93610  0.84010  Biso   1.000  N
  N30      1.0000 0.24810  0.06390  0.34010  Biso   1.000  N
  N31      1.0000 0.74810  0.43610  0.84010  Biso   1.000  N
  N32      1.0000 0.74810  0.56390  0.34010  Biso   1.000  N
  C21      1.0000 0.20710  0.95874  0.88220  Biso   1.000  C
  C22      1.0000 0.20710  0.04126  0.38220  Biso   1.000  C
  C23      1.0000 0.70710  0.45874  0.88220  Biso   1.000  C
  C24      1.0000 0.70710  0.54126  0.38220  Biso   1.000  C
  N33      1.0000 0.18300  0.97978  0.92170  Biso   1.000  N
  N34      1.0000 0.18300  0.02022  0.42170  Biso   1.000  N
  N35      1.0000 0.68300  0.47978  0.92170  Biso   1.000  N
  N36      1.0000 0.68300  0.52022  0.42170  Biso   1.000  N
  N37      1.0000 0.12460  0.05178  0.92650  Biso   1.000  N
  N38      1.0000 0.12460  0.94822  0.42650  Biso   1.000  N
  N39      1.0000 0.62460  0.55178  0.92650  Biso   1.000  N
  N40      1.0000 0.62460  0.44822  0.42650  Biso   1.000  N
  C25      1.0000 0.07950  0.07262  0.89840  Biso   1.000  C
  C26      1.0000 0.07950  0.92738  0.39840  Biso   1.000  C
  C27      1.0000 0.57950  0.57262  0.89840  Biso   1.000  C
  C28      1.0000 0.57950  0.42738  0.39840  Biso   1.000  C
  N41      1.0000 0.01630  0.09437  0.86730  Biso   1.000  N
  N42      1.0000 0.01630  0.90563  0.36730  Biso   1.000  N
  N43      1.0000 0.51630  0.59437  0.86730  Biso   1.000  N
  N44      1.0000 0.51630  0.40563  0.36730  Biso   1.000  N
  C29      1.0000 0.05620  0.12004  0.84040  Biso   1.000  C
  C30      1.0000 0.05620  0.87996  0.34040  Biso   1.000  C
  C31      1.0000 0.55620  0.62004  0.84040  Biso   1.000  C
  C32      1.0000 0.55620  0.37996  0.34040  Biso   1.000  C
  N45      1.0000 0.07970  0.14284  0.81430  Biso   1.000  N
  N46      1.0000 0.07970  0.85716  0.31430  Biso   1.000  N
  N47      1.0000 0.57970  0.64284  0.81430  Biso   1.000  N
  N48      1.0000 0.57970  0.35716  0.31430  Biso   1.000  N
  N49      1.0000 0.64140  0.71774  0.82550  Biso   1.000  N
  N50      1.0000 0.64140  0.28226  0.32550  Biso   1.000  N
  N51      1.0000 0.14140  0.21774  0.82550  Biso   1.000  N
  N52      1.0000 0.14140  0.78226  0.32550  Biso   1.000  N
  C33      1.0000 0.68530  0.74036  0.83980  Biso   1.000  C
  C34      1.0000 0.68530  0.25964  0.33980  Biso   1.000  C
  C35      1.0000 0.18530  0.24036  0.83980  Biso   1.000  C
  C36      1.0000 0.18530  0.75964  0.33980  Biso   1.000  C
  N53      1.0000 0.74540  0.76364  0.85340  Biso   1.000  N
  N54      1.0000 0.74540  0.23636  0.35340  Biso   1.000  N
  N55      1.0000 0.24540  0.26364  0.85340  Biso   1.000  N
  N56      1.0000 0.24540  0.73636  0.35340  Biso   1.000  N
  C37      1.0000 0.70690  0.79016  0.87160  Biso   1.000  C
  C38      1.0000 0.70690  0.20984  0.37160  Biso   1.000  C
  C39      1.0000 0.20690  0.29016  0.87160  Biso   1.000  C
  C40      1.0000 0.20690  0.70984  0.37160  Biso   1.000  C
  N57      1.0000 0.68370  0.81483  0.88900  Biso   1.000  N
  N58      1.0000 0.68370  0.18517  0.38900  Biso   1.000  N
  N59      1.0000 0.18370  0.31483  0.88900  Biso   1.000  N
  N60      1.0000 0.18370  0.68517  0.38900  Biso   1.000  N
  N61      1.0000 0.60750  0.89127  0.88540  Biso   1.000  N
  N62      1.0000 0.60750  0.10873  0.38540  Biso   1.000  N
  N63      1.0000 0.10750  0.39127  0.88540  Biso   1.000  N
  N64      1.0000 0.10750  0.60873  0.38540  Biso   1.000  N
  C41      1.0000 0.57520  0.91564  0.88990  Biso   1.000  C
  C42      1.0000 0.57520  0.08436  0.38990  Biso   1.000  C
  C43      1.0000 0.07520  0.41564  0.88990  Biso   1.000  C
  C44      1.0000 0.07520  0.58436  0.38990  Biso   1.000  C
  N65      1.0000 0.53020  0.94151  0.90190  Biso   1.000  N
  N66      1.0000 0.53020  0.05849  0.40190  Biso   1.000  N
  N67      1.0000 0.03020  0.44151  0.90190  Biso   1.000  N
  N68      1.0000 0.03020  0.55849  0.40190  Biso   1.000  N
  C45      1.0000 0.56540  0.96678  0.86680  Biso   1.000  C
  C46      1.0000 0.56540  0.03322  0.36680  Biso   1.000  C
  C47      1.0000 0.06540  0.46678  0.86680  Biso   1.000  C
  C48      1.0000 0.06540  0.53322  0.36680  Biso   1.000  C
  N69      1.0000 0.58930  0.98984  0.83940  Biso   1.000  N
  N70      1.0000 0.58930  0.01016  0.33940  Biso   1.000  N
  N71      1.0000 0.08930  0.48984  0.83940  Biso   1.000  N
  N72      1.0000 0.08930  0.51016  0.33940  Biso   1.000  N
  N73      1.0000 0.95790  0.86209  0.65460  Biso   1.000  N
  N74      1.0000 0.95790  0.13791  0.15460  Biso   1.000  N
  N75      1.0000 0.45790  0.36209  0.65460  Biso   1.000  N
  N76      1.0000 0.45790  0.63791  0.15460  Biso   1.000  N
  C49      1.0000 0.86950  0.86171  0.70460  Biso   1.000  C
  C50      1.0000 0.86950  0.13829  0.20460  Biso   1.000  C
  C51      1.0000 0.36950  0.36171  0.70460  Biso   1.000  C
  C52      1.0000 0.36950  0.63829  0.20460  Biso   1.000  C
  H1       1.0000 0.87250  0.84980  0.75830  Biso   1.000  H
  H2       1.0000 0.87250  0.15020  0.25830  Biso   1.000  H
  H3       1.0000 0.37250  0.34980  0.75830  Biso   1.000  H
  H4       1.0000 0.37250  0.65020  0.25830  Biso   1.000  H
  C53      1.0000 0.77590  0.87708  0.68440  Biso   1.000  C
  C54      1.0000 0.77590  0.12292  0.18440  Biso   1.000  C
  C55      1.0000 0.27590  0.37708  0.68440  Biso   1.000  C
  C56      1.0000 0.27590  0.62292  0.18440  Biso   1.000  C
  H5       1.0000 0.71750  0.87660  0.72430  Biso   1.000  H
  H6       1.0000 0.71750  0.12340  0.22430  Biso   1.000  H
  H7       1.0000 0.21750  0.37660  0.72430  Biso   1.000  H
  H8       1.0000 0.21750  0.62340  0.22430  Biso   1.000  H
  C57      1.0000 0.76770  0.89381  0.60270  Biso   1.000  C
  C58      1.0000 0.76770  0.10619  0.10270  Biso   1.000  C
  C59      1.0000 0.26770  0.39381  0.60270  Biso   1.000  C
  C60      1.0000 0.26770  0.60619  0.10270  Biso   1.000  C
  C61      1.0000 0.85510  0.89243  0.54610  Biso   1.000  C
  C62      1.0000 0.85510  0.10757  0.04610  Biso   1.000  C
  C63      1.0000 0.35510  0.39243  0.54610  Biso   1.000  C
  C64      1.0000 0.35510  0.60757  0.04610  Biso   1.000  C
  H9       1.0000 0.85130  0.90220  0.48840  Biso   1.000  H
  H10      1.0000 0.85130  0.09780  0.98840  Biso   1.000  H
  H11      1.0000 0.35130  0.40220  0.48840  Biso   1.000  H
  H12      1.0000 0.35130  0.59780  0.98840  Biso   1.000  H
  C65      1.0000 0.94700  0.87680  0.57470  Biso   1.000  C
  C66      1.0000 0.94700  0.12320  0.07470  Biso   1.000  C
  C67      1.0000 0.44700  0.37680  0.57470  Biso   1.000  C
  C68      1.0000 0.44700  0.62320  0.07470  Biso   1.000  C
  H13      1.0000 0.00630  0.87640  0.53560  Biso   1.000  H
  H14      1.0000 0.00630  0.12360  0.03560  Biso   1.000  H
  H15      1.0000 0.50630  0.37640  0.53560  Biso   1.000  H
  H16      1.0000 0.50630  0.62360  0.03560  Biso   1.000  H
  C69      1.0000 0.67290  0.91270  0.57760  Biso   1.000  C
  C70      1.0000 0.67290  0.08730  0.07760  Biso   1.000  C
  C71      1.0000 0.17290  0.41270  0.57760  Biso   1.000  C
  C72      1.0000 0.17290  0.58730  0.07760  Biso   1.000  C
  H17      1.0000 0.66660  0.91940  0.51600  Biso   1.000  H
  H18      1.0000 0.66660  0.08060  0.01600  Biso   1.000  H
  H19      1.0000 0.16660  0.41940  0.51600  Biso   1.000  H
  H20      1.0000 0.16660  0.58060  0.01600  Biso   1.000  H
  C73      1.0000 0.32960  0.96089  0.63710  Biso   1.000  C
  C74      1.0000 0.32960  0.03911  0.13710  Biso   1.000  C
  C75      1.0000 0.82960  0.46089  0.63710  Biso   1.000  C
  C76      1.0000 0.82960  0.53911  0.13710  Biso   1.000  C
  H21      1.0000 0.27170  0.96200  0.67750  Biso   1.000  H
  H22      1.0000 0.27170  0.03800  0.17750  Biso   1.000  H
  H23      1.0000 0.77170  0.46200  0.67750  Biso   1.000  H
  H24      1.0000 0.77170  0.53800  0.17750  Biso   1.000  H
  C77      1.0000 0.41870  0.94367  0.66430  Biso   1.000  C
  C78      1.0000 0.41870  0.05633  0.16430  Biso   1.000  C
  C79      1.0000 0.91870  0.44367  0.66430  Biso   1.000  C
  C80      1.0000 0.91870  0.55633  0.16430  Biso   1.000  C
  H25      1.0000 0.42170  0.93370  0.72180  Biso   1.000  H
  H26      1.0000 0.42170  0.06630  0.22180  Biso   1.000  H
  H27      1.0000 0.92170  0.43370  0.72180  Biso   1.000  H
  H28      1.0000 0.92170  0.56630  0.22180  Biso   1.000  H
  C81      1.0000 0.50340  0.94114  0.60660  Biso   1.000  C
  C82      1.0000 0.50340  0.05886  0.10660  Biso   1.000  C
  C83      1.0000 0.00340  0.44114  0.60660  Biso   1.000  C
  C84      1.0000 0.00340  0.55886  0.10660  Biso   1.000  C
  C85      1.0000 0.49670  0.95801  0.52660  Biso   1.000  C
  C86      1.0000 0.49670  0.04199  0.02660  Biso   1.000  C
  C87      1.0000 0.99670  0.45801  0.52660  Biso   1.000  C
  C88      1.0000 0.99670  0.54199  0.02660  Biso   1.000  C
  H29      1.0000 0.55470  0.95780  0.48610  Biso   1.000  H
  H30      1.0000 0.55470  0.04220  0.98610  Biso   1.000  H
  H31      1.0000 0.05470  0.45780  0.48610  Biso   1.000  H
  H32      1.0000 0.05470  0.54220  0.98610  Biso   1.000  H
  C89      1.0000 0.40390  0.97514  0.50670  Biso   1.000  C
  C90      1.0000 0.40390  0.02486  0.00670  Biso   1.000  C
  C91      1.0000 0.90390  0.47514  0.50670  Biso   1.000  C
  C92      1.0000 0.90390  0.52486  0.00670  Biso   1.000  C
  H33      1.0000 0.40120  0.98690  0.45270  Biso   1.000  H
  H34      1.0000 0.40120  0.01310  0.95270  Biso   1.000  H
  H35      1.0000 0.90120  0.48690  0.45270  Biso   1.000  H
  H36      1.0000 0.90120  0.51310  0.95270  Biso   1.000  H
  C93      1.0000 0.59570  0.92138  0.63090  Biso   1.000  C
  C94      1.0000 0.59570  0.07862  0.13090  Biso   1.000  C
  C95      1.0000 0.09570  0.42138  0.63090  Biso   1.000  C
  C96      1.0000 0.09570  0.57862  0.13090  Biso   1.000  C
  H37      1.0000 0.60040  0.91400  0.69190  Biso   1.000  H
  H38      1.0000 0.60040  0.08600  0.19190  Biso   1.000  H
  H39      1.0000 0.10040  0.41400  0.69190  Biso   1.000  H
  H40      1.0000 0.10040  0.58600  0.19190  Biso   1.000  H
  N77      1.0000 0.31810  0.97595  0.55950  Biso   1.000  N
  N78      1.0000 0.31810  0.02405  0.05950  Biso   1.000  N
  N79      1.0000 0.81810  0.47595  0.55950  Biso   1.000  N
  N80      1.0000 0.81810  0.52405  0.05950  Biso   1.000  N
  N81      1.0000 0.46460  0.96232  0.20390  Biso   1.000  N
  N82      1.0000 0.46460  0.03768  0.70390  Biso   1.000  N
  N83      1.0000 0.96460  0.46232  0.20390  Biso   1.000  N
  N84      1.0000 0.96460  0.53768  0.70390  Biso   1.000  N
  C97      1.0000 0.37600  0.95743  0.25310  Biso   1.000  C
  C98      1.0000 0.37600  0.04257  0.75310  Biso   1.000  C
  C99      1.0000 0.87600  0.45743  0.25310  Biso   1.000  C
  C100     1.0000 0.87600  0.54257  0.75310  Biso   1.000  C
  H41      1.0000 0.38010  0.96270  0.31610  Biso   1.000  H
  H42      1.0000 0.38010  0.03730  0.81610  Biso   1.000  H
  H43      1.0000 0.88010  0.46270  0.31610  Biso   1.000  H
  H44      1.0000 0.88010  0.53730  0.81610  Biso   1.000  H
  C101     1.0000 0.28120  0.94535  0.21700  Biso   1.000  C
  C102     1.0000 0.28120  0.05465  0.71700  Biso   1.000  C
  C103     1.0000 0.78120  0.44535  0.21700  Biso   1.000  C
  C104     1.0000 0.78120  0.55465  0.71700  Biso   1.000  C
  H45      1.0000 0.22030  0.94340  0.25390  Biso   1.000  H
  H46      1.0000 0.22030  0.05660  0.75390  Biso   1.000  H
  H47      1.0000 0.72030  0.44340  0.25390  Biso   1.000  H
  H48      1.0000 0.72030  0.55660  0.75390  Biso   1.000  H
  C105     1.0000 0.27340  0.93585  0.12660  Biso   1.000  C
  C106     1.0000 0.27340  0.06415  0.62660  Biso   1.000  C
  C107     1.0000 0.77340  0.43585  0.12660  Biso   1.000  C
  C108     1.0000 0.77340  0.56415  0.62660  Biso   1.000  C
  C109     1.0000 0.36350  0.94170  0.07460  Biso   1.000  C
  C110     1.0000 0.36350  0.05830  0.57460  Biso   1.000  C
  C111     1.0000 0.86350  0.44170  0.07460  Biso   1.000  C
  C112     1.0000 0.86350  0.55830  0.57460  Biso   1.000  C
  H49      1.0000 0.36120  0.93660  0.01150  Biso   1.000  H
  H50      1.0000 0.36120  0.06340  0.51150  Biso   1.000  H
  H51      1.0000 0.86120  0.43660  0.01150  Biso   1.000  H
  H52      1.0000 0.86120  0.56340  0.51150  Biso   1.000  H
  C113     1.0000 0.45490  0.95471  0.11460  Biso   1.000  C
  C114     1.0000 0.45490  0.04529  0.61460  Biso   1.000  C
  C115     1.0000 0.95490  0.45471  0.11460  Biso   1.000  C
  C116     1.0000 0.95490  0.54529  0.61460  Biso   1.000  C
  H53      1.0000 0.51460  0.95860  0.07760  Biso   1.000  H
  H54      1.0000 0.51460  0.04140  0.57760  Biso   1.000  H
  H55      1.0000 0.01460  0.45860  0.07760  Biso   1.000  H
  H56      1.0000 0.01460  0.54140  0.57760  Biso   1.000  H
  C117     1.0000 0.17850  0.92073  0.08470  Biso   1.000  C
  C118     1.0000 0.17850  0.07927  0.58470  Biso   1.000  C
  C119     1.0000 0.67850  0.42073  0.08470  Biso   1.000  C
  C120     1.0000 0.67850  0.57927  0.58470  Biso   1.000  C
  H57      1.0000 0.18060  0.91610  0.02140  Biso   1.000  H
  H58      1.0000 0.18060  0.08390  0.52140  Biso   1.000  H
  H59      1.0000 0.68060  0.41610  0.02140  Biso   1.000  H
  H60      1.0000 0.68060  0.58390  0.52140  Biso   1.000  H
  C121     1.0000 0.81770  0.87513  0.09780  Biso   1.000  C
  C122     1.0000 0.81770  0.12487  0.59780  Biso   1.000  C
  C123     1.0000 0.31770  0.37513  0.09780  Biso   1.000  C
  C124     1.0000 0.31770  0.62487  0.59780  Biso   1.000  C
  H61      1.0000 0.75870  0.87100  0.13530  Biso   1.000  H
  H62      1.0000 0.75870  0.12900  0.63530  Biso   1.000  H
  H63      1.0000 0.25870  0.37100  0.13530  Biso   1.000  H
  H64      1.0000 0.25870  0.62900  0.63530  Biso   1.000  H
  C125     1.0000 0.90760  0.88967  0.13640  Biso   1.000  C
  C126     1.0000 0.90760  0.11033  0.63640  Biso   1.000  C
  C127     1.0000 0.40760  0.38967  0.13640  Biso   1.000  C
  C128     1.0000 0.40760  0.61033  0.63640  Biso   1.000  C
  H65      1.0000 0.90940  0.89510  0.19910  Biso   1.000  H
  H66      1.0000 0.90940  0.10490  0.69910  Biso   1.000  H
  H67      1.0000 0.40940  0.39510  0.19910  Biso   1.000  H
  H68      1.0000 0.40940  0.60490  0.69910  Biso   1.000  H
  C129     1.0000 0.99450  0.89639  0.08520  Biso   1.000  C
  C130     1.0000 0.99450  0.10361  0.58520  Biso   1.000  C
  C131     1.0000 0.49450  0.39639  0.08520  Biso   1.000  C
  C132     1.0000 0.49450  0.60361  0.58520  Biso   1.000  C
  C133     1.0000 0.98670  0.88778  0.99280  Biso   1.000  C
  C134     1.0000 0.98670  0.11222  0.49280  Biso   1.000  C
  C135     1.0000 0.48670  0.38778  0.99280  Biso   1.000  C
  C136     1.0000 0.48670  0.61222  0.49280  Biso   1.000  C
  H69      1.0000 0.04320  0.89230  0.95310  Biso   1.000  H
  H70      1.0000 0.04320  0.10770  0.45310  Biso   1.000  H
  H71      1.0000 0.54320  0.39230  0.95310  Biso   1.000  H
  H72      1.0000 0.54320  0.60770  0.45310  Biso   1.000  H
  C137     1.0000 0.89360  0.87250  0.96130  Biso   1.000  C
  C138     1.0000 0.89360  0.12750  0.46130  Biso   1.000  C
  C139     1.0000 0.39360  0.37250  0.96130  Biso   1.000  C
  C140     1.0000 0.39360  0.62750  0.46130  Biso   1.000  C
  H73      1.0000 0.89010  0.86570  0.89970  Biso   1.000  H
  H74      1.0000 0.89010  0.13430  0.39970  Biso   1.000  H
  H75      1.0000 0.39010  0.36570  0.89970  Biso   1.000  H
  H76      1.0000 0.39010  0.63430  0.39970  Biso   1.000  H
  C141     1.0000 0.08970  0.91277  0.12550  Biso   1.000  C
  C142     1.0000 0.08970  0.08723  0.62550  Biso   1.000  C
  C143     1.0000 0.58970  0.41277  0.12550  Biso   1.000  C
  C144     1.0000 0.58970  0.58723  0.62550  Biso   1.000  C
  H77      1.0000 0.08670  0.91820  0.18810  Biso   1.000  H
  H78      1.0000 0.08670  0.08180  0.68810  Biso   1.000  H
  H79      1.0000 0.58670  0.41820  0.18810  Biso   1.000  H
  H80      1.0000 0.58670  0.58180  0.68810  Biso   1.000  H
  N85      1.0000 0.80920  0.86667  0.01170  Biso   1.000  N
  N86      1.0000 0.80920  0.13333  0.51170  Biso   1.000  N
  N87      1.0000 0.30920  0.36667  0.01170  Biso   1.000  N
  N88      1.0000 0.30920  0.63333  0.51170  Biso   1.000  N
  N89      1.0000 0.30230  0.69996  0.05280  Biso   1.000  N
  N90      1.0000 0.30230  0.30004  0.55280  Biso   1.000  N
  N91      1.0000 0.80230  0.19996  0.05280  Biso   1.000  N
  N92      1.0000 0.80230  0.80004  0.55280  Biso   1.000  N
  C145     1.0000 0.31210  0.71129  0.13630  Biso   1.000  C
  C146     1.0000 0.31210  0.28871  0.63630  Biso   1.000  C
  C147     1.0000 0.81210  0.21129  0.13630  Biso   1.000  C
  C148     1.0000 0.81210  0.78871  0.63630  Biso   1.000  C
  H81      1.0000 0.25140  0.71000  0.17370  Biso   1.000  H
  H82      1.0000 0.25140  0.29000  0.67370  Biso   1.000  H
  H83      1.0000 0.75140  0.21000  0.17370  Biso   1.000  H
  H84      1.0000 0.75140  0.79000  0.67370  Biso   1.000  H
  C149     1.0000 0.40690  0.72503  0.17230  Biso   1.000  C
  C150     1.0000 0.40690  0.27497  0.67230  Biso   1.000  C
  C151     1.0000 0.90690  0.22503  0.17230  Biso   1.000  C
  C152     1.0000 0.90690  0.77497  0.67230  Biso   1.000  C
  H85      1.0000 0.41000  0.73250  0.23310  Biso   1.000  H
  H86      1.0000 0.41000  0.26750  0.73310  Biso   1.000  H
  H87      1.0000 0.91000  0.23250  0.23310  Biso   1.000  H
  H88      1.0000 0.91000  0.76750  0.73310  Biso   1.000  H
  C153     1.0000 0.49680  0.72773  0.11900  Biso   1.000  C
  C154     1.0000 0.49680  0.27227  0.61900  Biso   1.000  C
  C155     1.0000 0.99680  0.22773  0.11900  Biso   1.000  C
  C156     1.0000 0.99680  0.77227  0.61900  Biso   1.000  C
  C157     1.0000 0.48770  0.71470  0.03360  Biso   1.000  C
  C158     1.0000 0.48770  0.28530  0.53360  Biso   1.000  C
  C159     1.0000 0.98770  0.21470  0.03360  Biso   1.000  C
  C160     1.0000 0.98770  0.78530  0.53360  Biso   1.000  C
  H89      1.0000 0.54760  0.71530  0.99520  Biso   1.000  H
  H90      1.0000 0.54760  0.28470  0.49520  Biso   1.000  H
  H91      1.0000 0.04760  0.21530  0.99520  Biso   1.000  H
  H92      1.0000 0.04760  0.78470  0.49520  Biso   1.000  H
  C161     1.0000 0.39080  0.70051  0.00310  Biso   1.000  C
  C162     1.0000 0.39080  0.29949  0.50310  Biso   1.000  C
  C163     1.0000 0.89080  0.20051  0.00310  Biso   1.000  C
  C164     1.0000 0.89080  0.79949  0.50310  Biso   1.000  C
  H93      1.0000 0.38780  0.69090  0.94500  Biso   1.000  H
  H94      1.0000 0.38780  0.30910  0.44500  Biso   1.000  H
  H95      1.0000 0.88780  0.19090  0.94500  Biso   1.000  H
  H96      1.0000 0.88780  0.80910  0.44500  Biso   1.000  H
  C165     1.0000 0.59200  0.74466  0.15430  Biso   1.000  C
  C166     1.0000 0.59200  0.25534  0.65430  Biso   1.000  C
  C167     1.0000 0.09200  0.24466  0.15430  Biso   1.000  C
  C168     1.0000 0.09200  0.75534  0.65430  Biso   1.000  C
  H97      1.0000 0.59590  0.74970  0.21750  Biso   1.000  H
  H98      1.0000 0.59590  0.25030  0.71750  Biso   1.000  H
  H99      1.0000 0.09590  0.24970  0.21750  Biso   1.000  H
  H100     1.0000 0.09590  0.75030  0.71750  Biso   1.000  H
  C169     1.0000 0.86150  0.80470  0.24240  Biso   1.000  C
  C170     1.0000 0.86150  0.19530  0.74240  Biso   1.000  C
  C171     1.0000 0.36150  0.30470  0.24240  Biso   1.000  C
  C172     1.0000 0.36150  0.69530  0.74240  Biso   1.000  C
  H101     1.0000 0.86300  0.81510  0.29900  Biso   1.000  H
  H102     1.0000 0.86300  0.18490  0.79900  Biso   1.000  H
  H103     1.0000 0.36300  0.31510  0.29900  Biso   1.000  H
  H104     1.0000 0.36300  0.68490  0.79900  Biso   1.000  H
  C173     1.0000 0.77140  0.78769  0.21720  Biso   1.000  C
  C174     1.0000 0.77140  0.21231  0.71720  Biso   1.000  C
  C175     1.0000 0.27140  0.28769  0.21720  Biso   1.000  C
  C176     1.0000 0.27140  0.71231  0.71720  Biso   1.000  C
  H105     1.0000 0.71270  0.78660  0.25670  Biso   1.000  H
  H106     1.0000 0.71270  0.21340  0.75670  Biso   1.000  H
  H107     1.0000 0.21270  0.28660  0.25670  Biso   1.000  H
  H108     1.0000 0.21270  0.71340  0.75670  Biso   1.000  H
  C177     1.0000 0.76490  0.77216  0.13570  Biso   1.000  C
  C178     1.0000 0.76490  0.22784  0.63570  Biso   1.000  C
  C179     1.0000 0.26490  0.27216  0.13570  Biso   1.000  C
  C180     1.0000 0.26490  0.72784  0.63570  Biso   1.000  C
  C181     1.0000 0.85090  0.77717  0.07940  Biso   1.000  C
  C182     1.0000 0.85090  0.22283  0.57940  Biso   1.000  C
  C183     1.0000 0.35090  0.27717  0.07940  Biso   1.000  C
  C184     1.0000 0.35090  0.72283  0.57940  Biso   1.000  C
  H109     1.0000 0.84840  0.76880  0.01970  Biso   1.000  H
  H110     1.0000 0.84840  0.23120  0.51970  Biso   1.000  H
  H111     1.0000 0.34840  0.26880  0.01970  Biso   1.000  H
  H112     1.0000 0.34840  0.73120  0.51970  Biso   1.000  H
  C185     1.0000 0.93890  0.79403  0.10880  Biso   1.000  C
  C186     1.0000 0.93890  0.20597  0.60880  Biso   1.000  C
  C187     1.0000 0.43890  0.29403  0.10880  Biso   1.000  C
  C188     1.0000 0.43890  0.70597  0.60880  Biso   1.000  C
  H113     1.0000 0.99670  0.79640  0.06890  Biso   1.000  H
  H114     1.0000 0.99670  0.20360  0.56890  Biso   1.000  H
  H115     1.0000 0.49670  0.29640  0.06890  Biso   1.000  H
  H116     1.0000 0.49670  0.70360  0.56890  Biso   1.000  H
  C189     1.0000 0.67380  0.75354  0.10410  Biso   1.000  C
  C190     1.0000 0.67380  0.24646  0.60410  Biso   1.000  C
  C191     1.0000 0.17380  0.25354  0.10410  Biso   1.000  C
  C192     1.0000 0.17380  0.74646  0.60410  Biso   1.000  C
  H117     1.0000 0.67220  0.74710  0.04220  Biso   1.000  H
  H118     1.0000 0.67220  0.25290  0.54220  Biso   1.000  H
  H119     1.0000 0.17220  0.24710  0.04220  Biso   1.000  H
  H120     1.0000 0.17220  0.75290  0.54220  Biso   1.000  H
  N93      1.0000 0.94780  0.80714  0.18960  Biso   1.000  N
  N94      1.0000 0.94780  0.19286  0.68960  Biso   1.000  N
  N95      1.0000 0.44780  0.30714  0.18960  Biso   1.000  N
  N96      1.0000 0.44780  0.69286  0.68960  Biso   1.000  N
  N97      1.0000 0.05030  0.68717  0.08810  Biso   1.000  N
  N98      1.0000 0.05030  0.31283  0.58810  Biso   1.000  N
  N99      1.0000 0.55030  0.18717  0.08810  Biso   1.000  N
  N100     1.0000 0.55030  0.81283  0.58810  Biso   1.000  N
  C193     1.0000 0.01640  0.71103  0.13440  Biso   1.000  C
  C194     1.0000 0.01640  0.28897  0.63440  Biso   1.000  C
  C195     1.0000 0.51640  0.21103  0.13440  Biso   1.000  C
  C196     1.0000 0.51640  0.78897  0.63440  Biso   1.000  C
  H121     1.0000 0.03070  0.73040  0.11100  Biso   1.000  H
  H122     1.0000 0.03070  0.26960  0.61100  Biso   1.000  H
  H123     1.0000 0.53070  0.23040  0.11100  Biso   1.000  H
  H124     1.0000 0.53070  0.76960  0.61100  Biso   1.000  H
  C197     1.0000 0.96240  0.70894  0.21340  Biso   1.000  C
  C198     1.0000 0.96240  0.29106  0.71340  Biso   1.000  C
  C199     1.0000 0.46240  0.20894  0.21340  Biso   1.000  C
  C200     1.0000 0.46240  0.79106  0.71340  Biso   1.000  C
  H125     1.0000 0.93890  0.72650  0.24340  Biso   1.000  H
  H126     1.0000 0.93890  0.27350  0.74340  Biso   1.000  H
  H127     1.0000 0.43890  0.22650  0.24340  Biso   1.000  H
  H128     1.0000 0.43890  0.77350  0.74340  Biso   1.000  H
  C201     1.0000 0.94200  0.67992  0.25010  Biso   1.000  C
  C202     1.0000 0.94200  0.32008  0.75010  Biso   1.000  C
  C203     1.0000 0.44200  0.17992  0.25010  Biso   1.000  C
  C204     1.0000 0.44200  0.82008  0.75010  Biso   1.000  C
  C205     1.0000 0.97630  0.65550  0.20020  Biso   1.000  C
  C206     1.0000 0.97630  0.34450  0.70020  Biso   1.000  C
  C207     1.0000 0.47630  0.15550  0.20020  Biso   1.000  C
  C208     1.0000 0.47630  0.84450  0.70020  Biso   1.000  C
  H129     1.0000 0.96330  0.63570  0.22100  Biso   1.000  H
  H130     1.0000 0.96330  0.36430  0.72100  Biso   1.000  H
  H131     1.0000 0.46330  0.13570  0.22100  Biso   1.000  H
  H132     1.0000 0.46330  0.86430  0.72100  Biso   1.000  H
  C209     1.0000 0.02940  0.65991  0.12050  Biso   1.000  C
  C210     1.0000 0.02940  0.34009  0.62050  Biso   1.000  C
  C211     1.0000 0.52940  0.15991  0.12050  Biso   1.000  C
  C212     1.0000 0.52940  0.84009  0.62050  Biso   1.000  C
  H133     1.0000 0.05180  0.64290  0.08730  Biso   1.000  H
  H134     1.0000 0.05180  0.35710  0.58730  Biso   1.000  H
  H135     1.0000 0.55180  0.14290  0.08730  Biso   1.000  H
  H136     1.0000 0.55180  0.85710  0.58730  Biso   1.000  H
  C213     1.0000 0.88760  0.67490  0.33610  Biso   1.000  C
  C214     1.0000 0.88760  0.32510  0.83610  Biso   1.000  C
  C215     1.0000 0.38760  0.17490  0.33610  Biso   1.000  C
  C216     1.0000 0.38760  0.82510  0.83610  Biso   1.000  C
  H137     1.0000 0.87220  0.65480  0.35230  Biso   1.000  H
  H138     1.0000 0.87220  0.34520  0.85230  Biso   1.000  H
  H139     1.0000 0.37220  0.15480  0.35230  Biso   1.000  H
  H140     1.0000 0.37220  0.84520  0.85230  Biso   1.000  H
  C217     1.0000 0.73240  0.71039  0.61490  Biso   1.000  C
  C218     1.0000 0.73240  0.28961  0.11490  Biso   1.000  C
  C219     1.0000 0.23240  0.21039  0.61490  Biso   1.000  C
  C220     1.0000 0.23240  0.78961  0.11490  Biso   1.000  C
  H141     1.0000 0.71950  0.72750  0.65120  Biso   1.000  H
  H142     1.0000 0.71950  0.27250  0.15120  Biso   1.000  H
  H143     1.0000 0.21950  0.22750  0.65120  Biso   1.000  H
  H144     1.0000 0.21950  0.77250  0.15120  Biso   1.000  H
  C221     1.0000 0.78310  0.71446  0.53450  Biso   1.000  C
  C222     1.0000 0.78310  0.28554  0.03450  Biso   1.000  C
  C223     1.0000 0.28310  0.21446  0.53450  Biso   1.000  C
  C224     1.0000 0.28310  0.78554  0.03450  Biso   1.000  C
  H145     1.0000 0.80500  0.73400  0.51760  Biso   1.000  H
  H146     1.0000 0.80500  0.26600  0.01760  Biso   1.000  H
  H147     1.0000 0.30500  0.23400  0.51760  Biso   1.000  H
  H148     1.0000 0.30500  0.76600  0.01760  Biso   1.000  H
  C225     1.0000 0.80260  0.69069  0.47820  Biso   1.000  C
  C226     1.0000 0.80260  0.30931  0.97820  Biso   1.000  C
  C227     1.0000 0.30260  0.19069  0.47820  Biso   1.000  C
  C228     1.0000 0.30260  0.80931  0.97820  Biso   1.000  C
  C229     1.0000 0.76990  0.66274  0.50710  Biso   1.000  C
  C230     1.0000 0.76990  0.33726  0.00710  Biso   1.000  C
  C231     1.0000 0.26990  0.16274  0.50710  Biso   1.000  C
  C232     1.0000 0.26990  0.83726  0.00710  Biso   1.000  C
  H149     1.0000 0.78150  0.64550  0.47100  Biso   1.000  H
  H150     1.0000 0.78150  0.35450  0.97100  Biso   1.000  H
  H151     1.0000 0.28150  0.14550  0.47100  Biso   1.000  H
  H152     1.0000 0.28150  0.85450  0.97100  Biso   1.000  H
  C233     1.0000 0.72030  0.66037  0.58870  Biso   1.000  C
  C234     1.0000 0.72030  0.33963  0.08870  Biso   1.000  C
  C235     1.0000 0.22030  0.16037  0.58870  Biso   1.000  C
  C236     1.0000 0.22030  0.83963  0.08870  Biso   1.000  C
  H153     1.0000 0.69860  0.64100  0.60690  Biso   1.000  H
  H154     1.0000 0.69860  0.35900  0.10690  Biso   1.000  H
  H155     1.0000 0.19860  0.14100  0.60690  Biso   1.000  H
  H156     1.0000 0.19860  0.85900  0.10690  Biso   1.000  H
  C237     1.0000 0.85870  0.69614  0.39190  Biso   1.000  C
  C238     1.0000 0.85870  0.30386  0.89190  Biso   1.000  C
  C239     1.0000 0.35870  0.19614  0.39190  Biso   1.000  C
  C240     1.0000 0.35870  0.80386  0.89190  Biso   1.000  C
  H157     1.0000 0.87470  0.71630  0.37640  Biso   1.000  H
  H158     1.0000 0.87470  0.28370  0.87640  Biso   1.000  H
  H159     1.0000 0.37470  0.21630  0.37640  Biso   1.000  H
  H160     1.0000 0.37470  0.78370  0.87640  Biso   1.000  H
  N101     1.0000 0.69990  0.68357  0.64550  Biso   1.000  N
  N102     1.0000 0.69990  0.31643  0.14550  Biso   1.000  N
  N103     1.0000 0.19990  0.18357  0.64550  Biso   1.000  N
  N104     1.0000 0.19990  0.81643  0.14550  Biso   1.000  N
  N105     1.0000 0.06430  0.01780  0.10430  Biso   1.000  N
  N106     1.0000 0.06430  0.98220  0.60430  Biso   1.000  N
  N107     1.0000 0.56430  0.51780  0.10430  Biso   1.000  N
  N108     1.0000 0.56430  0.48220  0.60430  Biso   1.000  N
  C241     1.0000 0.04110  0.99404  0.15830  Biso   1.000  C
  C242     1.0000 0.04110  0.00596  0.65830  Biso   1.000  C
  C243     1.0000 0.54110  0.49404  0.15830  Biso   1.000  C
  C244     1.0000 0.54110  0.50596  0.65830  Biso   1.000  C
  H161     1.0000 0.06240  0.97460  0.13960  Biso   1.000  H
  H162     1.0000 0.06240  0.02540  0.63960  Biso   1.000  H
  H163     1.0000 0.56240  0.47460  0.13960  Biso   1.000  H
  H164     1.0000 0.56240  0.52540  0.63960  Biso   1.000  H
  C245     1.0000 0.98860  0.99671  0.23840  Biso   1.000  C
  C246     1.0000 0.98860  0.00329  0.73840  Biso   1.000  C
  C247     1.0000 0.48860  0.49671  0.23840  Biso   1.000  C
  C248     1.0000 0.48860  0.50329  0.73840  Biso   1.000  C
  H165     1.0000 0.97500  0.97940  0.27370  Biso   1.000  H
  H166     1.0000 0.97500  0.02060  0.77370  Biso   1.000  H
  H167     1.0000 0.47500  0.47940  0.27370  Biso   1.000  H
  H168     1.0000 0.47500  0.52060  0.77370  Biso   1.000  H
  C249     1.0000 0.95520  0.02457  0.26770  Biso   1.000  C
  C250     1.0000 0.95520  0.97543  0.76770  Biso   1.000  C
  C251     1.0000 0.45520  0.52457  0.26770  Biso   1.000  C
  C252     1.0000 0.45520  0.47543  0.76770  Biso   1.000  C
  C253     1.0000 0.97870  0.04910  0.21150  Biso   1.000  C
  C254     1.0000 0.97870  0.95090  0.71150  Biso   1.000  C
  C255     1.0000 0.47870  0.54910  0.21150  Biso   1.000  C
  C256     1.0000 0.47870  0.45090  0.71150  Biso   1.000  C
  H169     1.0000 0.95650  0.06870  0.22760  Biso   1.000  H
  H170     1.0000 0.95650  0.93130  0.72760  Biso   1.000  H
  H171     1.0000 0.45650  0.56870  0.22760  Biso   1.000  H
  H172     1.0000 0.45650  0.43130  0.72760  Biso   1.000  H
  C257     1.0000 0.03360  0.04464  0.13370  Biso   1.000  C
  C258     1.0000 0.03360  0.95536  0.63370  Biso   1.000  C
  C259     1.0000 0.53360  0.54464  0.13370  Biso   1.000  C
  C260     1.0000 0.53360  0.45536  0.63370  Biso   1.000  C
  H173     1.0000 0.05090  0.06170  0.09850  Biso   1.000  H
  H174     1.0000 0.05090  0.93830  0.59850  Biso   1.000  H
  H175     1.0000 0.55090  0.56170  0.09850  Biso   1.000  H
  H176     1.0000 0.55090  0.43830  0.59850  Biso   1.000  H
  C261     1.0000 0.90110  0.02963  0.35280  Biso   1.000  C
  C262     1.0000 0.90110  0.97037  0.85280  Biso   1.000  C
  C263     1.0000 0.40110  0.52963  0.35280  Biso   1.000  C
  C264     1.0000 0.40110  0.47037  0.85280  Biso   1.000  C
  H177     1.0000 0.88700  0.04980  0.36900  Biso   1.000  H
  H178     1.0000 0.88700  0.95020  0.86900  Biso   1.000  H
  H179     1.0000 0.38700  0.54980  0.36900  Biso   1.000  H
  H180     1.0000 0.38700  0.45020  0.86900  Biso   1.000  H
  C265     1.0000 0.73310  0.99296  0.62790  Biso   1.000  C
  C266     1.0000 0.73310  0.00704  0.12790  Biso   1.000  C
  C267     1.0000 0.23310  0.49296  0.62790  Biso   1.000  C
  C268     1.0000 0.23310  0.50704  0.12790  Biso   1.000  C
  H181     1.0000 0.71160  0.97590  0.66120  Biso   1.000  H
  H182     1.0000 0.71160  0.02410  0.16120  Biso   1.000  H
  H183     1.0000 0.21160  0.47590  0.66120  Biso   1.000  H
  H184     1.0000 0.21160  0.52410  0.16120  Biso   1.000  H
  C269     1.0000 0.78330  0.98886  0.54770  Biso   1.000  C
  C270     1.0000 0.78330  0.01114  0.04770  Biso   1.000  C
  C271     1.0000 0.28330  0.48886  0.54770  Biso   1.000  C
  C272     1.0000 0.28330  0.51114  0.04770  Biso   1.000  C
  H185     1.0000 0.79650  0.96910  0.52700  Biso   1.000  H
  H186     1.0000 0.79650  0.03090  0.02700  Biso   1.000  H
  H187     1.0000 0.29650  0.46910  0.52700  Biso   1.000  H
  H188     1.0000 0.29650  0.53090  0.02700  Biso   1.000  H
  C273     1.0000 0.81570  0.01328  0.49560  Biso   1.000  C
  C274     1.0000 0.81570  0.98672  0.99560  Biso   1.000  C
  C275     1.0000 0.31570  0.51328  0.49560  Biso   1.000  C
  C276     1.0000 0.31570  0.48672  0.99560  Biso   1.000  C
  C277     1.0000 0.79560  0.04155  0.53070  Biso   1.000  C
  C278     1.0000 0.79560  0.95845  0.03070  Biso   1.000  C
  C279     1.0000 0.29560  0.54155  0.53070  Biso   1.000  C
  C280     1.0000 0.29560  0.45845  0.03070  Biso   1.000  C
  H189     1.0000 0.81650  0.05900  0.49900  Biso   1.000  H
  H190     1.0000 0.81650  0.94100  0.99900  Biso   1.000  H
  H191     1.0000 0.31650  0.55900  0.49900  Biso   1.000  H
  H192     1.0000 0.31650  0.44100  0.99900  Biso   1.000  H
  C281     1.0000 0.74550  0.04381  0.61150  Biso   1.000  C
  C282     1.0000 0.74550  0.95619  0.11150  Biso   1.000  C
  C283     1.0000 0.24550  0.54381  0.61150  Biso   1.000  C
  C284     1.0000 0.24550  0.45619  0.11150  Biso   1.000  C
  H193     1.0000 0.73250  0.06330  0.63470  Biso   1.000  H
  H194     1.0000 0.73250  0.93670  0.13470  Biso   1.000  H
  H195     1.0000 0.23250  0.56330  0.63470  Biso   1.000  H
  H196     1.0000 0.23250  0.43670  0.13470  Biso   1.000  H
  C285     1.0000 0.86990  0.00830  0.40980  Biso   1.000  C
  C286     1.0000 0.86990  0.99170  0.90980  Biso   1.000  C
  C287     1.0000 0.36990  0.50830  0.40980  Biso   1.000  C
  C288     1.0000 0.36990  0.49170  0.90980  Biso   1.000  C
  H197     1.0000 0.88390  0.98810  0.39330  Biso   1.000  H
  H198     1.0000 0.88390  0.01190  0.89330  Biso   1.000  H
  H199     1.0000 0.38390  0.48810  0.39330  Biso   1.000  H
  H200     1.0000 0.38390  0.51190  0.89330  Biso   1.000  H
  N109     1.0000 0.71320  0.02003  0.66060  Biso   1.000  N
  N110     1.0000 0.71320  0.97997  0.16060  Biso   1.000  N
  N111     1.0000 0.21320  0.52003  0.66060  Biso   1.000  N
  N112     1.0000 0.21320  0.47997  0.16060  Biso   1.000  N
  N113     1.0000 0.56220  0.85097  0.05550  Biso   1.000  N
  N114     1.0000 0.56220  0.14903  0.55550  Biso   1.000  N
  N115     1.0000 0.06220  0.35097  0.05550  Biso   1.000  N
  N116     1.0000 0.06220  0.64903  0.55550  Biso   1.000  N
  C289     1.0000 0.54310  0.82452  0.09760  Biso   1.000  C
  C290     1.0000 0.54310  0.17548  0.59760  Biso   1.000  C
  C291     1.0000 0.04310  0.32452  0.09760  Biso   1.000  C
  C292     1.0000 0.04310  0.67548  0.59760  Biso   1.000  C
  H201     1.0000 0.56530  0.80670  0.06840  Biso   1.000  H
  H202     1.0000 0.56530  0.19330  0.56840  Biso   1.000  H
  H203     1.0000 0.06530  0.30670  0.06840  Biso   1.000  H
  H204     1.0000 0.06530  0.69330  0.56840  Biso   1.000  H
  C293     1.0000 0.49440  0.82178  0.17880  Biso   1.000  C
  C294     1.0000 0.49440  0.17822  0.67880  Biso   1.000  C
  C295     1.0000 0.99440  0.32178  0.17880  Biso   1.000  C
  C296     1.0000 0.99440  0.67822  0.67880  Biso   1.000  C
  H205     1.0000 0.48390  0.80250  0.20430  Biso   1.000  H
  H206     1.0000 0.48390  0.19750  0.70430  Biso   1.000  H
  H207     1.0000 0.98390  0.30250  0.20430  Biso   1.000  H
  H208     1.0000 0.98390  0.69750  0.70430  Biso   1.000  H
  C297     1.0000 0.46080  0.84674  0.22350  Biso   1.000  C
  C298     1.0000 0.46080  0.15326  0.72350  Biso   1.000  C
  C299     1.0000 0.96080  0.34674  0.22350  Biso   1.000  C
  C300     1.0000 0.96080  0.65326  0.72350  Biso   1.000  C
  C301     1.0000 0.48040  0.87439  0.18140  Biso   1.000  C
  C302     1.0000 0.48040  0.12561  0.68140  Biso   1.000  C
  C303     1.0000 0.98040  0.37439  0.18140  Biso   1.000  C
  C304     1.0000 0.98040  0.62561  0.68140  Biso   1.000  C
  H209     1.0000 0.45940  0.89250  0.20980  Biso   1.000  H
  H210     1.0000 0.45940  0.10750  0.70980  Biso   1.000  H
  H211     1.0000 0.95940  0.39250  0.20980  Biso   1.000  H
  H212     1.0000 0.95940  0.60750  0.70980  Biso   1.000  H
  C305     1.0000 0.52970  0.87543  0.09940  Biso   1.000  C
  C306     1.0000 0.52970  0.12457  0.59940  Biso   1.000  C
  C307     1.0000 0.02970  0.37543  0.09940  Biso   1.000  C
  C308     1.0000 0.02970  0.62457  0.59940  Biso   1.000  C
  H213     1.0000 0.54140  0.89440  0.07250  Biso   1.000  H
  H214     1.0000 0.54140  0.10560  0.57250  Biso   1.000  H
  H215     1.0000 0.04140  0.39440  0.07250  Biso   1.000  H
  H216     1.0000 0.04140  0.60560  0.57250  Biso   1.000  H
  C309     1.0000 0.40790  0.84264  0.31020  Biso   1.000  C
  C310     1.0000 0.40790  0.15736  0.81020  Biso   1.000  C
  C311     1.0000 0.90790  0.34264  0.31020  Biso   1.000  C
  C312     1.0000 0.90790  0.65736  0.81020  Biso   1.000  C
  H217     1.0000 0.39700  0.82260  0.32960  Biso   1.000  H
  H218     1.0000 0.39700  0.17740  0.82960  Biso   1.000  H
  H219     1.0000 0.89700  0.32260  0.32960  Biso   1.000  H
  H220     1.0000 0.89700  0.67740  0.82960  Biso   1.000  H
  C313     1.0000 0.23830  0.83065  0.56530  Biso   1.000  C
  C314     1.0000 0.23830  0.16935  0.06530  Biso   1.000  C
  C315     1.0000 0.73830  0.33065  0.56530  Biso   1.000  C
  C316     1.0000 0.73830  0.66935  0.06530  Biso   1.000  C
  H221     1.0000 0.21960  0.81150  0.58780  Biso   1.000  H
  H222     1.0000 0.21960  0.18850  0.08780  Biso   1.000  H
  H223     1.0000 0.71960  0.31150  0.58780  Biso   1.000  H
  H224     1.0000 0.71960  0.68850  0.08780  Biso   1.000  H
  C317     1.0000 0.29080  0.83221  0.48300  Biso   1.000  C
  C318     1.0000 0.29080  0.16779  0.98300  Biso   1.000  C
  C319     1.0000 0.79080  0.33221  0.48300  Biso   1.000  C
  C320     1.0000 0.79080  0.66779  0.98300  Biso   1.000  C
  H225     1.0000 0.30650  0.81450  0.45000  Biso   1.000  H
  H226     1.0000 0.30650  0.18550  0.95000  Biso   1.000  H
  H227     1.0000 0.80650  0.31450  0.45000  Biso   1.000  H
  H228     1.0000 0.80650  0.68550  0.95000  Biso   1.000  H
  C321     1.0000 0.31980  0.86053  0.45020  Biso   1.000  C
  C322     1.0000 0.31980  0.13947  0.95020  Biso   1.000  C
  C323     1.0000 0.81980  0.36053  0.45020  Biso   1.000  C
  C324     1.0000 0.81980  0.63947  0.95020  Biso   1.000  C
  C325     1.0000 0.29620  0.88486  0.50180  Biso   1.000  C
  C326     1.0000 0.29620  0.11514  0.00180  Biso   1.000  C
  C327     1.0000 0.79620  0.38486  0.50180  Biso   1.000  C
  C328     1.0000 0.79620  0.61514  0.00180  Biso   1.000  C
  H229     1.0000 0.31560  0.90430  0.48240  Biso   1.000  H
  H230     1.0000 0.31560  0.09570  0.98240  Biso   1.000  H
  H231     1.0000 0.81560  0.40430  0.48240  Biso   1.000  H
  H232     1.0000 0.81560  0.59570  0.98240  Biso   1.000  H
  C329     1.0000 0.24480  0.88114  0.58130  Biso   1.000  C
  C330     1.0000 0.24480  0.11886  0.08130  Biso   1.000  C
  C331     1.0000 0.74480  0.38114  0.58130  Biso   1.000  C
  C332     1.0000 0.74480  0.61886  0.08130  Biso   1.000  C
  H233     1.0000 0.23040  0.89850  0.61610  Biso   1.000  H
  H234     1.0000 0.23040  0.10150  0.11610  Biso   1.000  H
  H235     1.0000 0.73040  0.39850  0.61610  Biso   1.000  H
  H236     1.0000 0.73040  0.60150  0.11610  Biso   1.000  H
  C333     1.0000 0.37440  0.86382  0.36330  Biso   1.000  C
  C334     1.0000 0.37440  0.13618  0.86330  Biso   1.000  C
  C335     1.0000 0.87440  0.36382  0.36330  Biso   1.000  C
  C336     1.0000 0.87440  0.63618  0.86330  Biso   1.000  C
  H237     1.0000 0.38650  0.88380  0.34370  Biso   1.000  H
  H238     1.0000 0.38650  0.11620  0.84370  Biso   1.000  H
  H239     1.0000 0.88650  0.38380  0.34370  Biso   1.000  H
  H240     1.0000 0.88650  0.61620  0.84370  Biso   1.000  H
  N117     1.0000 0.21320  0.85461  0.61370  Biso   1.000  N
  N118     1.0000 0.21320  0.14539  0.11370  Biso   1.000  N
  N119     1.0000 0.71320  0.35461  0.61370  Biso   1.000  N
  N120     1.0000 0.71320  0.64539  0.11370  Biso   1.000  N
