data_image0
_cell_length_a       49.35
_cell_length_b       18.9378
_cell_length_c       30.529
_cell_angle_alpha    90
_cell_angle_beta     95.032
_cell_angle_gamma    90

_symmetry_space_group_name_H-M    "P 1"
_symmetry_int_tables_number       1

loop_
  _symmetry_equiv_pos_as_xyz
  'x, y, z'

loop_
  _atom_site_label
  _atom_site_occupancy
  _atom_site_fract_x
  _atom_site_fract_y
  _atom_site_fract_z
  _atom_site_thermal_displace_type
  _atom_site_B_iso_or_equiv
  _atom_site_type_symbol
  O1       1.0000 0.04964  0.84110  0.69760  Biso   1.000  O
  O2       1.0000 0.95036  0.84110  0.80240  Biso   1.000  O
  O3       1.0000 0.54964  0.34110  0.69760  Biso   1.000  O
  O4       1.0000 0.45036  0.34110  0.80240  Biso   1.000  O
  O5       1.0000 0.95036  0.15890  0.30240  Biso   1.000  O
  O6       1.0000 0.04964  0.15890  0.19760  Biso   1.000  O
  O7       1.0000 0.45036  0.65890  0.30240  Biso   1.000  O
  O8       1.0000 0.54964  0.65890  0.19760  Biso   1.000  O
  O9       1.0000 0.08454  0.75880  0.19641  Biso   1.000  O
  O10      1.0000 0.91546  0.75880  0.30359  Biso   1.000  O
  O11      1.0000 0.58454  0.25880  0.19641  Biso   1.000  O
  O12      1.0000 0.41546  0.25880  0.30359  Biso   1.000  O
  O13      1.0000 0.91546  0.24120  0.80359  Biso   1.000  O
  O14      1.0000 0.08454  0.24120  0.69641  Biso   1.000  O
  O15      1.0000 0.41546  0.74120  0.80359  Biso   1.000  O
  O16      1.0000 0.58454  0.74120  0.69641  Biso   1.000  O
  O17      1.0000 0.33912  0.00370  0.19277  Biso   1.000  O
  O18      1.0000 0.66088  0.00370  0.30723  Biso   1.000  O
  O19      1.0000 0.83912  0.50370  0.19277  Biso   1.000  O
  O20      1.0000 0.16088  0.50370  0.30723  Biso   1.000  O
  O21      1.0000 0.66088  0.99630  0.80723  Biso   1.000  O
  O22      1.0000 0.33912  0.99630  0.69277  Biso   1.000  O
  O23      1.0000 0.16088  0.49630  0.80723  Biso   1.000  O
  O24      1.0000 0.83912  0.49630  0.69277  Biso   1.000  O
  O25      1.0000 0.16861  0.99240  0.29184  Biso   1.000  O
  O26      1.0000 0.83139  0.99240  0.20816  Biso   1.000  O
  O27      1.0000 0.66861  0.49240  0.29184  Biso   1.000  O
  O28      1.0000 0.33139  0.49240  0.20816  Biso   1.000  O
  O29      1.0000 0.83139  0.00760  0.70816  Biso   1.000  O
  O30      1.0000 0.16861  0.00760  0.79184  Biso   1.000  O
  O31      1.0000 0.33139  0.50760  0.70816  Biso   1.000  O
  O32      1.0000 0.66861  0.50760  0.79184  Biso   1.000  O
  O33      1.0000 0.03763  0.88130  0.55887  Biso   1.000  O
  O34      1.0000 0.96237  0.88130  0.94113  Biso   1.000  O
  O35      1.0000 0.53763  0.38130  0.55887  Biso   1.000  O
  O36      1.0000 0.46237  0.38130  0.94113  Biso   1.000  O
  O37      1.0000 0.96237  0.11870  0.44113  Biso   1.000  O
  O38      1.0000 0.03763  0.11870  0.05887  Biso   1.000  O
  O39      1.0000 0.46237  0.61870  0.44113  Biso   1.000  O
  O40      1.0000 0.53763  0.61870  0.05887  Biso   1.000  O
  O41      1.0000 0.30388  0.91390  0.19346  Biso   1.000  O
  O42      1.0000 0.69612  0.91390  0.30654  Biso   1.000  O
  O43      1.0000 0.80388  0.41390  0.19346  Biso   1.000  O
  O44      1.0000 0.19612  0.41390  0.30654  Biso   1.000  O
  O45      1.0000 0.69612  0.08610  0.80654  Biso   1.000  O
  O46      1.0000 0.30388  0.08610  0.69346  Biso   1.000  O
  O47      1.0000 0.19612  0.58610  0.80654  Biso   1.000  O
  O48      1.0000 0.80388  0.58610  0.69346  Biso   1.000  O
  O49      1.0000 0.08550  0.75410  0.70200  Biso   1.000  O
  O50      1.0000 0.91450  0.75410  0.79800  Biso   1.000  O
  O51      1.0000 0.58550  0.25410  0.70200  Biso   1.000  O
  O52      1.0000 0.41450  0.25410  0.79800  Biso   1.000  O
  O53      1.0000 0.91450  0.24590  0.29800  Biso   1.000  O
  O54      1.0000 0.08550  0.24590  0.20200  Biso   1.000  O
  O55      1.0000 0.41450  0.74590  0.29800  Biso   1.000  O
  O56      1.0000 0.58550  0.74590  0.20200  Biso   1.000  O
  O57      1.0000 0.95274  0.55750  0.43601  Biso   1.000  O
  O58      1.0000 0.04726  0.55750  0.06399  Biso   1.000  O
  O59      1.0000 0.45274  0.05750  0.43601  Biso   1.000  O
  O60      1.0000 0.54726  0.05750  0.06399  Biso   1.000  O
  O61      1.0000 0.04726  0.44250  0.56399  Biso   1.000  O
  O62      1.0000 0.95274  0.44250  0.93601  Biso   1.000  O
  O63      1.0000 0.54726  0.94250  0.56399  Biso   1.000  O
  O64      1.0000 0.45274  0.94250  0.93601  Biso   1.000  O
  O65      1.0000 0.20618  0.90850  0.29870  Biso   1.000  O
  O66      1.0000 0.79382  0.90850  0.20130  Biso   1.000  O
  O67      1.0000 0.70618  0.40850  0.29870  Biso   1.000  O
  O68      1.0000 0.29382  0.40850  0.20130  Biso   1.000  O
  O69      1.0000 0.79382  0.09150  0.70130  Biso   1.000  O
  O70      1.0000 0.20618  0.09150  0.79870  Biso   1.000  O
  O71      1.0000 0.29382  0.59150  0.70130  Biso   1.000  O
  O72      1.0000 0.70618  0.59150  0.79870  Biso   1.000  O
  O73      1.0000 0.20431  0.80610  0.43250  Biso   1.000  O
  O74      1.0000 0.79569  0.80610  0.06750  Biso   1.000  O
  O75      1.0000 0.70431  0.30610  0.43250  Biso   1.000  O
  O76      1.0000 0.29569  0.30610  0.06750  Biso   1.000  O
  O77      1.0000 0.79569  0.19390  0.56750  Biso   1.000  O
  O78      1.0000 0.20431  0.19390  0.93250  Biso   1.000  O
  O79      1.0000 0.29569  0.69390  0.56750  Biso   1.000  O
  O80      1.0000 0.70431  0.69390  0.93250  Biso   1.000  O
  O81      1.0000 0.20390  0.93390  0.43220  Biso   1.000  O
  O82      1.0000 0.79610  0.93390  0.06780  Biso   1.000  O
  O83      1.0000 0.70390  0.43390  0.43220  Biso   1.000  O
  O84      1.0000 0.29610  0.43390  0.06780  Biso   1.000  O
  O85      1.0000 0.79610  0.06610  0.56780  Biso   1.000  O
  O86      1.0000 0.20390  0.06610  0.93220  Biso   1.000  O
  O87      1.0000 0.29610  0.56610  0.56780  Biso   1.000  O
  O88      1.0000 0.70390  0.56610  0.93220  Biso   1.000  O
  N1       1.0000 0.20830  0.86120  0.50830  Biso   1.000  N
  N2       1.0000 0.79170  0.86120  0.99170  Biso   1.000  N
  N3       1.0000 0.70830  0.36120  0.50830  Biso   1.000  N
  N4       1.0000 0.29170  0.36120  0.99170  Biso   1.000  N
  N5       1.0000 0.79170  0.13880  0.49170  Biso   1.000  N
  N6       1.0000 0.20830  0.13880  0.00830  Biso   1.000  N
  N7       1.0000 0.29170  0.63880  0.49170  Biso   1.000  N
  N8       1.0000 0.70830  0.63880  0.00830  Biso   1.000  N
  O89      1.0000 0.95209  0.68640  0.43732  Biso   1.000  O
  O90      1.0000 0.04791  0.68640  0.06268  Biso   1.000  O
  O91      1.0000 0.45209  0.18640  0.43732  Biso   1.000  O
  O92      1.0000 0.54791  0.18640  0.06268  Biso   1.000  O
  O93      1.0000 0.04791  0.31360  0.56268  Biso   1.000  O
  O94      1.0000 0.95209  0.31360  0.93732  Biso   1.000  O
  O95      1.0000 0.54791  0.81360  0.56268  Biso   1.000  O
  O96      1.0000 0.45209  0.81360  0.93732  Biso   1.000  O
  N9       1.0000 0.30911  0.11750  0.47680  Biso   1.000  N
  N10      1.0000 0.69089  0.11750  0.02320  Biso   1.000  N
  N11      1.0000 0.80911  0.61750  0.47680  Biso   1.000  N
  N12      1.0000 0.19089  0.61750  0.02320  Biso   1.000  N
  N13      1.0000 0.69089  0.88250  0.52320  Biso   1.000  N
  N14      1.0000 0.30911  0.88250  0.97680  Biso   1.000  N
  N15      1.0000 0.19089  0.38250  0.52320  Biso   1.000  N
  N16      1.0000 0.80911  0.38250  0.97680  Biso   1.000  N
  N17      1.0000 0.95714  0.60960  0.51170  Biso   1.000  N
  N18      1.0000 0.04286  0.60960  0.98830  Biso   1.000  N
  N19      1.0000 0.45714  0.10960  0.51170  Biso   1.000  N
  N20      1.0000 0.54286  0.10960  0.98830  Biso   1.000  N
  N21      1.0000 0.04286  0.39040  0.48830  Biso   1.000  N
  N22      1.0000 0.95714  0.39040  0.01170  Biso   1.000  N
  N23      1.0000 0.54286  0.89040  0.48830  Biso   1.000  N
  N24      1.0000 0.45714  0.89040  0.01170  Biso   1.000  N
  C1       1.0000 0.31730  0.84640  0.20320  Biso   1.000  C
  C2       1.0000 0.68270  0.84640  0.29680  Biso   1.000  C
  C3       1.0000 0.81730  0.34640  0.20320  Biso   1.000  C
  C4       1.0000 0.18270  0.34640  0.29680  Biso   1.000  C
  C5       1.0000 0.68270  0.15360  0.79680  Biso   1.000  C
  C6       1.0000 0.31730  0.15360  0.70320  Biso   1.000  C
  C7       1.0000 0.18270  0.65360  0.79680  Biso   1.000  C
  C8       1.0000 0.81730  0.65360  0.70320  Biso   1.000  C
  H1       1.0000 0.32650  0.84770  0.23300  Biso   1.000  H
  H2       1.0000 0.67350  0.84770  0.26700  Biso   1.000  H
  H3       1.0000 0.82650  0.34770  0.23300  Biso   1.000  H
  H4       1.0000 0.17350  0.34770  0.26700  Biso   1.000  H
  H5       1.0000 0.67350  0.15230  0.76700  Biso   1.000  H
  H6       1.0000 0.32650  0.15230  0.73300  Biso   1.000  H
  H7       1.0000 0.17350  0.65230  0.76700  Biso   1.000  H
  H8       1.0000 0.82650  0.65230  0.73300  Biso   1.000  H
  C9       1.0000 0.95820  0.48450  0.45230  Biso   1.000  C
  C10      1.0000 0.04180  0.48450  0.04770  Biso   1.000  C
  C11      1.0000 0.45820  0.98450  0.45230  Biso   1.000  C
  C12      1.0000 0.54180  0.98450  0.04770  Biso   1.000  C
  C13      1.0000 0.04180  0.51550  0.54770  Biso   1.000  C
  C14      1.0000 0.95820  0.51550  0.95230  Biso   1.000  C
  C15      1.0000 0.54180  0.01550  0.54770  Biso   1.000  C
  C16      1.0000 0.45820  0.01550  0.95230  Biso   1.000  C
  H9       1.0000 0.97350  0.48510  0.47500  Biso   1.000  H
  H10      1.0000 0.02650  0.48510  0.02500  Biso   1.000  H
  H11      1.0000 0.47350  0.98510  0.47500  Biso   1.000  H
  H12      1.0000 0.52650  0.98510  0.02500  Biso   1.000  H
  H13      1.0000 0.02650  0.51490  0.52500  Biso   1.000  H
  H14      1.0000 0.97350  0.51490  0.97500  Biso   1.000  H
  H15      1.0000 0.52650  0.01490  0.52500  Biso   1.000  H
  H16      1.0000 0.47350  0.01490  0.97500  Biso   1.000  H
  C17      1.0000 0.05720  0.60220  0.20810  Biso   1.000  C
  C18      1.0000 0.94280  0.60220  0.29190  Biso   1.000  C
  C19      1.0000 0.55720  0.10220  0.20810  Biso   1.000  C
  C20      1.0000 0.44280  0.10220  0.29190  Biso   1.000  C
  C21      1.0000 0.94280  0.39780  0.79190  Biso   1.000  C
  C22      1.0000 0.05720  0.39780  0.70810  Biso   1.000  C
  C23      1.0000 0.44280  0.89780  0.79190  Biso   1.000  C
  C24      1.0000 0.55720  0.89780  0.70810  Biso   1.000  C
  H17      1.0000 0.06320  0.60080  0.23960  Biso   1.000  H
  H18      1.0000 0.93680  0.60080  0.26040  Biso   1.000  H
  H19      1.0000 0.56320  0.10080  0.23960  Biso   1.000  H
  H20      1.0000 0.43680  0.10080  0.26040  Biso   1.000  H
  H21      1.0000 0.93680  0.39920  0.76040  Biso   1.000  H
  H22      1.0000 0.06320  0.39920  0.73960  Biso   1.000  H
  H23      1.0000 0.43680  0.89920  0.76040  Biso   1.000  H
  H24      1.0000 0.56320  0.89920  0.73960  Biso   1.000  H
  C25      1.0000 0.20810  0.86960  0.58520  Biso   1.000  C
  C26      1.0000 0.79190  0.86960  0.91480  Biso   1.000  C
  C27      1.0000 0.70810  0.36960  0.58520  Biso   1.000  C
  C28      1.0000 0.29190  0.36960  0.91480  Biso   1.000  C
  C29      1.0000 0.79190  0.13040  0.41480  Biso   1.000  C
  C30      1.0000 0.20810  0.13040  0.08520  Biso   1.000  C
  C31      1.0000 0.29190  0.63040  0.41480  Biso   1.000  C
  C32      1.0000 0.70810  0.63040  0.08520  Biso   1.000  C
  C33      1.0000 0.20909  0.73450  0.45000  Biso   1.000  C
  C34      1.0000 0.79091  0.73450  0.05000  Biso   1.000  C
  C35      1.0000 0.70909  0.23450  0.45000  Biso   1.000  C
  C36      1.0000 0.29091  0.23450  0.05000  Biso   1.000  C
  C37      1.0000 0.79091  0.26550  0.55000  Biso   1.000  C
  C38      1.0000 0.20909  0.26550  0.95000  Biso   1.000  C
  C39      1.0000 0.29091  0.76550  0.55000  Biso   1.000  C
  C40      1.0000 0.70909  0.76550  0.95000  Biso   1.000  C
  H25      1.0000 0.22360  0.73620  0.47410  Biso   1.000  H
  H26      1.0000 0.77640  0.73620  0.02590  Biso   1.000  H
  H27      1.0000 0.72360  0.23620  0.47410  Biso   1.000  H
  H28      1.0000 0.27640  0.23620  0.02590  Biso   1.000  H
  H29      1.0000 0.77640  0.26380  0.52590  Biso   1.000  H
  H30      1.0000 0.22360  0.26380  0.97410  Biso   1.000  H
  H31      1.0000 0.27640  0.76380  0.52590  Biso   1.000  H
  H32      1.0000 0.72360  0.76380  0.97410  Biso   1.000  H
  C41      1.0000 0.19770  0.83540  0.29090  Biso   1.000  C
  C42      1.0000 0.80230  0.83540  0.20910  Biso   1.000  C
  C43      1.0000 0.69770  0.33540  0.29090  Biso   1.000  C
  C44      1.0000 0.30230  0.33540  0.20910  Biso   1.000  C
  C45      1.0000 0.80230  0.16460  0.70910  Biso   1.000  C
  C46      1.0000 0.19770  0.16460  0.79090  Biso   1.000  C
  C47      1.0000 0.30230  0.66460  0.70910  Biso   1.000  C
  C48      1.0000 0.69770  0.66460  0.79090  Biso   1.000  C
  H33      1.0000 0.19160  0.82890  0.25970  Biso   1.000  H
  H34      1.0000 0.80840  0.82890  0.24030  Biso   1.000  H
  H35      1.0000 0.69160  0.32890  0.25970  Biso   1.000  H
  H36      1.0000 0.30840  0.32890  0.24030  Biso   1.000  H
  H37      1.0000 0.80840  0.17110  0.74030  Biso   1.000  H
  H38      1.0000 0.19160  0.17110  0.75970  Biso   1.000  H
  H39      1.0000 0.30840  0.67110  0.74030  Biso   1.000  H
  H40      1.0000 0.69160  0.67110  0.75970  Biso   1.000  H
  O97      1.0000 0.33732  0.11550  0.54940  Biso   1.000  O
  O98      1.0000 0.66268  0.11550  0.95060  Biso   1.000  O
  O99      1.0000 0.83732  0.61550  0.54940  Biso   1.000  O
  O100     1.0000 0.16268  0.61550  0.95060  Biso   1.000  O
  O101     1.0000 0.66268  0.88450  0.45060  Biso   1.000  O
  O102     1.0000 0.33732  0.88450  0.04940  Biso   1.000  O
  O103     1.0000 0.16268  0.38450  0.45060  Biso   1.000  O
  O104     1.0000 0.83732  0.38450  0.04940  Biso   1.000  O
  C49      1.0000 0.95860  0.62070  0.59030  Biso   1.000  C
  C50      1.0000 0.04140  0.62070  0.90970  Biso   1.000  C
  C51      1.0000 0.45860  0.12070  0.59030  Biso   1.000  C
  C52      1.0000 0.54140  0.12070  0.90970  Biso   1.000  C
  C53      1.0000 0.04140  0.37930  0.40970  Biso   1.000  C
  C54      1.0000 0.95860  0.37930  0.09030  Biso   1.000  C
  C55      1.0000 0.54140  0.87930  0.40970  Biso   1.000  C
  C56      1.0000 0.45860  0.87930  0.09030  Biso   1.000  C
  C57      1.0000 0.21330  0.90230  0.54240  Biso   1.000  C
  C58      1.0000 0.78670  0.90230  0.95760  Biso   1.000  C
  C59      1.0000 0.71330  0.40230  0.54240  Biso   1.000  C
  C60      1.0000 0.28670  0.40230  0.95760  Biso   1.000  C
  C61      1.0000 0.78670  0.09770  0.45760  Biso   1.000  C
  C62      1.0000 0.21330  0.09770  0.04240  Biso   1.000  C
  C63      1.0000 0.28670  0.59770  0.45760  Biso   1.000  C
  C64      1.0000 0.71330  0.59770  0.04240  Biso   1.000  C
  C65      1.0000 0.06260  0.91300  0.70380  Biso   1.000  C
  C66      1.0000 0.93740  0.91300  0.79620  Biso   1.000  C
  C67      1.0000 0.56260  0.41300  0.70380  Biso   1.000  C
  C68      1.0000 0.43740  0.41300  0.79620  Biso   1.000  C
  C69      1.0000 0.93740  0.08700  0.29620  Biso   1.000  C
  C70      1.0000 0.06260  0.08700  0.20380  Biso   1.000  C
  C71      1.0000 0.43740  0.58700  0.29620  Biso   1.000  C
  C72      1.0000 0.56260  0.58700  0.20380  Biso   1.000  C
  H41      1.0000 0.07250  0.91570  0.73300  Biso   1.000  H
  H42      1.0000 0.92750  0.91570  0.76700  Biso   1.000  H
  H43      1.0000 0.57250  0.41570  0.73300  Biso   1.000  H
  H44      1.0000 0.42750  0.41570  0.76700  Biso   1.000  H
  H45      1.0000 0.92750  0.08430  0.26700  Biso   1.000  H
  H46      1.0000 0.07250  0.08430  0.23300  Biso   1.000  H
  H47      1.0000 0.42750  0.58430  0.26700  Biso   1.000  H
  H48      1.0000 0.57250  0.58430  0.23300  Biso   1.000  H
  C73      1.0000 0.17470  0.81810  0.31890  Biso   1.000  C
  C74      1.0000 0.82530  0.81810  0.18110  Biso   1.000  C
  C75      1.0000 0.67470  0.31810  0.31890  Biso   1.000  C
  C76      1.0000 0.32530  0.31810  0.18110  Biso   1.000  C
  C77      1.0000 0.82530  0.18190  0.68110  Biso   1.000  C
  C78      1.0000 0.17470  0.18190  0.81890  Biso   1.000  C
  C79      1.0000 0.32530  0.68190  0.68110  Biso   1.000  C
  C80      1.0000 0.67470  0.68190  0.81890  Biso   1.000  C
  H49      1.0000 0.15930  0.84740  0.31020  Biso   1.000  H
  H50      1.0000 0.84070  0.84740  0.18980  Biso   1.000  H
  H51      1.0000 0.65930  0.34740  0.31020  Biso   1.000  H
  H52      1.0000 0.34070  0.34740  0.18980  Biso   1.000  H
  H53      1.0000 0.84070  0.15260  0.68980  Biso   1.000  H
  H54      1.0000 0.15930  0.15260  0.81020  Biso   1.000  H
  H55      1.0000 0.34070  0.65260  0.68980  Biso   1.000  H
  H56      1.0000 0.65930  0.65260  0.81020  Biso   1.000  H
  H57      1.0000 0.18050  0.82660  0.34930  Biso   1.000  H
  H58      1.0000 0.81950  0.82660  0.15070  Biso   1.000  H
  H59      1.0000 0.68050  0.32660  0.34930  Biso   1.000  H
  H60      1.0000 0.31950  0.32660  0.15070  Biso   1.000  H
  H61      1.0000 0.81950  0.17340  0.65070  Biso   1.000  H
  H62      1.0000 0.18050  0.17340  0.84930  Biso   1.000  H
  H63      1.0000 0.31950  0.67340  0.65070  Biso   1.000  H
  H64      1.0000 0.68050  0.67340  0.84930  Biso   1.000  H
  H65      1.0000 0.16970  0.76930  0.31500  Biso   1.000  H
  H66      1.0000 0.83030  0.76930  0.18500  Biso   1.000  H
  H67      1.0000 0.66970  0.26930  0.31500  Biso   1.000  H
  H68      1.0000 0.33030  0.26930  0.18500  Biso   1.000  H
  H69      1.0000 0.83030  0.23070  0.68500  Biso   1.000  H
  H70      1.0000 0.16970  0.23070  0.81500  Biso   1.000  H
  H71      1.0000 0.33030  0.73070  0.68500  Biso   1.000  H
  H72      1.0000 0.66970  0.73070  0.81500  Biso   1.000  H
  C81      1.0000 0.08070  0.58230  0.18260  Biso   1.000  C
  C82      1.0000 0.91930  0.58230  0.31740  Biso   1.000  C
  C83      1.0000 0.58070  0.08230  0.18260  Biso   1.000  C
  C84      1.0000 0.41930  0.08230  0.31740  Biso   1.000  C
  C85      1.0000 0.91930  0.41770  0.81740  Biso   1.000  C
  C86      1.0000 0.08070  0.41770  0.68260  Biso   1.000  C
  C87      1.0000 0.41930  0.91770  0.81740  Biso   1.000  C
  C88      1.0000 0.58070  0.91770  0.68260  Biso   1.000  C
  H73      1.0000 0.09560  0.61390  0.18990  Biso   1.000  H
  H74      1.0000 0.90440  0.61390  0.31010  Biso   1.000  H
  H75      1.0000 0.59560  0.11390  0.18990  Biso   1.000  H
  H76      1.0000 0.40440  0.11390  0.31010  Biso   1.000  H
  H77      1.0000 0.90440  0.38610  0.81010  Biso   1.000  H
  H78      1.0000 0.09560  0.38610  0.68990  Biso   1.000  H
  H79      1.0000 0.40440  0.88610  0.81010  Biso   1.000  H
  H80      1.0000 0.59560  0.88610  0.68990  Biso   1.000  H
  H81      1.0000 0.07520  0.58550  0.15170  Biso   1.000  H
  H82      1.0000 0.92480  0.58550  0.34830  Biso   1.000  H
  H83      1.0000 0.57520  0.08550  0.15170  Biso   1.000  H
  H84      1.0000 0.42480  0.08550  0.34830  Biso   1.000  H
  H85      1.0000 0.92480  0.41450  0.84830  Biso   1.000  H
  H86      1.0000 0.07520  0.41450  0.65170  Biso   1.000  H
  H87      1.0000 0.42480  0.91450  0.84830  Biso   1.000  H
  H88      1.0000 0.57520  0.91450  0.65170  Biso   1.000  H
  H89      1.0000 0.08620  0.53480  0.18980  Biso   1.000  H
  H90      1.0000 0.91380  0.53480  0.31020  Biso   1.000  H
  H91      1.0000 0.58620  0.03480  0.18980  Biso   1.000  H
  H92      1.0000 0.41380  0.03480  0.31020  Biso   1.000  H
  H93      1.0000 0.91380  0.46520  0.81020  Biso   1.000  H
  H94      1.0000 0.08620  0.46520  0.68980  Biso   1.000  H
  H95      1.0000 0.41380  0.96520  0.81020  Biso   1.000  H
  H96      1.0000 0.58620  0.96520  0.68980  Biso   1.000  H
  C89      1.0000 0.92652  0.71890  0.44890  Biso   1.000  C
  C90      1.0000 0.07348  0.71890  0.05110  Biso   1.000  C
  C91      1.0000 0.42652  0.21890  0.44890  Biso   1.000  C
  C92      1.0000 0.57348  0.21890  0.05110  Biso   1.000  C
  C93      1.0000 0.07348  0.28110  0.55110  Biso   1.000  C
  C94      1.0000 0.92652  0.28110  0.94890  Biso   1.000  C
  C95      1.0000 0.57348  0.78110  0.55110  Biso   1.000  C
  C96      1.0000 0.42652  0.78110  0.94890  Biso   1.000  C
  H97      1.0000 0.92370  0.70910  0.47970  Biso   1.000  H
  H98      1.0000 0.07630  0.70910  0.02030  Biso   1.000  H
  H99      1.0000 0.42370  0.20910  0.47970  Biso   1.000  H
  H100     1.0000 0.57630  0.20910  0.02030  Biso   1.000  H
  H101     1.0000 0.07630  0.29090  0.52030  Biso   1.000  H
  H102     1.0000 0.92370  0.29090  0.97970  Biso   1.000  H
  H103     1.0000 0.57630  0.79090  0.52030  Biso   1.000  H
  H104     1.0000 0.42370  0.79090  0.97970  Biso   1.000  H
  C97      1.0000 0.96300  0.65120  0.54610  Biso   1.000  C
  C98      1.0000 0.03700  0.65120  0.95390  Biso   1.000  C
  C99      1.0000 0.46300  0.15120  0.54610  Biso   1.000  C
  C100     1.0000 0.53700  0.15120  0.95390  Biso   1.000  C
  C101     1.0000 0.03700  0.34880  0.45390  Biso   1.000  C
  C102     1.0000 0.96300  0.34880  0.04610  Biso   1.000  C
  C103     1.0000 0.53700  0.84880  0.45390  Biso   1.000  C
  C104     1.0000 0.46300  0.84880  0.04610  Biso   1.000  C
  C105     1.0000 0.95460  0.66130  0.62560  Biso   1.000  C
  C106     1.0000 0.04540  0.66130  0.87440  Biso   1.000  C
  C107     1.0000 0.45460  0.16130  0.62560  Biso   1.000  C
  C108     1.0000 0.54540  0.16130  0.87440  Biso   1.000  C
  C109     1.0000 0.04540  0.33870  0.37440  Biso   1.000  C
  C110     1.0000 0.95460  0.33870  0.12560  Biso   1.000  C
  C111     1.0000 0.54540  0.83870  0.37440  Biso   1.000  C
  C112     1.0000 0.45460  0.83870  0.12560  Biso   1.000  C
  H105     1.0000 0.95270  0.70990  0.62260  Biso   1.000  H
  H106     1.0000 0.04730  0.70990  0.87740  Biso   1.000  H
  H107     1.0000 0.45270  0.20990  0.62260  Biso   1.000  H
  H108     1.0000 0.54730  0.20990  0.87740  Biso   1.000  H
  H109     1.0000 0.04730  0.29010  0.37740  Biso   1.000  H
  H110     1.0000 0.95270  0.29010  0.12260  Biso   1.000  H
  H111     1.0000 0.54730  0.79010  0.37740  Biso   1.000  H
  H112     1.0000 0.45270  0.79010  0.12260  Biso   1.000  H
  C113     1.0000 0.10370  0.81610  0.21050  Biso   1.000  C
  C114     1.0000 0.89630  0.81610  0.28950  Biso   1.000  C
  C115     1.0000 0.60370  0.31610  0.21050  Biso   1.000  C
  C116     1.0000 0.39630  0.31610  0.28950  Biso   1.000  C
  C117     1.0000 0.89630  0.18390  0.78950  Biso   1.000  C
  C118     1.0000 0.10370  0.18390  0.71050  Biso   1.000  C
  C119     1.0000 0.39630  0.68390  0.78950  Biso   1.000  C
  C120     1.0000 0.60370  0.68390  0.71050  Biso   1.000  C
  H113     1.0000 0.10100  0.82860  0.24100  Biso   1.000  H
  H114     1.0000 0.89900  0.82860  0.25900  Biso   1.000  H
  H115     1.0000 0.60100  0.32860  0.24100  Biso   1.000  H
  H116     1.0000 0.39900  0.32860  0.25900  Biso   1.000  H
  H117     1.0000 0.89900  0.17140  0.75900  Biso   1.000  H
  H118     1.0000 0.10100  0.17140  0.74100  Biso   1.000  H
  H119     1.0000 0.39900  0.67140  0.75900  Biso   1.000  H
  H120     1.0000 0.60100  0.67140  0.74100  Biso   1.000  H
  C121     1.0000 0.93370  0.45600  0.47110  Biso   1.000  C
  C122     1.0000 0.06630  0.45600  0.02890  Biso   1.000  C
  C123     1.0000 0.43370  0.95600  0.47110  Biso   1.000  C
  C124     1.0000 0.56630  0.95600  0.02890  Biso   1.000  C
  C125     1.0000 0.06630  0.54400  0.52890  Biso   1.000  C
  C126     1.0000 0.93370  0.54400  0.97110  Biso   1.000  C
  C127     1.0000 0.56630  0.04400  0.52890  Biso   1.000  C
  C128     1.0000 0.43370  0.04400  0.97110  Biso   1.000  C
  H121     1.0000 0.92990  0.48350  0.49630  Biso   1.000  H
  H122     1.0000 0.07010  0.48350  0.00370  Biso   1.000  H
  H123     1.0000 0.42990  0.98350  0.49630  Biso   1.000  H
  H124     1.0000 0.57010  0.98350  0.00370  Biso   1.000  H
  H125     1.0000 0.07010  0.51650  0.50370  Biso   1.000  H
  H126     1.0000 0.92990  0.51650  0.99630  Biso   1.000  H
  H127     1.0000 0.57010  0.01650  0.50370  Biso   1.000  H
  H128     1.0000 0.42990  0.01650  0.99630  Biso   1.000  H
  H129     1.0000 0.93690  0.40780  0.47980  Biso   1.000  H
  H130     1.0000 0.06310  0.40780  0.02020  Biso   1.000  H
  H131     1.0000 0.43690  0.90780  0.47980  Biso   1.000  H
  H132     1.0000 0.56310  0.90780  0.02020  Biso   1.000  H
  H133     1.0000 0.06310  0.59220  0.52020  Biso   1.000  H
  H134     1.0000 0.93690  0.59220  0.97980  Biso   1.000  H
  H135     1.0000 0.56310  0.09220  0.52020  Biso   1.000  H
  H136     1.0000 0.43690  0.09220  0.97980  Biso   1.000  H
  H137     1.0000 0.91840  0.45830  0.44940  Biso   1.000  H
  H138     1.0000 0.08160  0.45830  0.05060  Biso   1.000  H
  H139     1.0000 0.41840  0.95830  0.44940  Biso   1.000  H
  H140     1.0000 0.58160  0.95830  0.05060  Biso   1.000  H
  H141     1.0000 0.08160  0.54170  0.55060  Biso   1.000  H
  H142     1.0000 0.91840  0.54170  0.94940  Biso   1.000  H
  H143     1.0000 0.58160  0.04170  0.55060  Biso   1.000  H
  H144     1.0000 0.41840  0.04170  0.94940  Biso   1.000  H
  C129     1.0000 0.02500  0.94910  0.54540  Biso   1.000  C
  C130     1.0000 0.97500  0.94910  0.95460  Biso   1.000  C
  C131     1.0000 0.52500  0.44910  0.54540  Biso   1.000  C
  C132     1.0000 0.47500  0.44910  0.95460  Biso   1.000  C
  C133     1.0000 0.97500  0.05090  0.45460  Biso   1.000  C
  C134     1.0000 0.02500  0.05090  0.04540  Biso   1.000  C
  C135     1.0000 0.47500  0.55090  0.45460  Biso   1.000  C
  C136     1.0000 0.52500  0.55090  0.04540  Biso   1.000  C
  H145     1.0000 0.02100  0.94870  0.51340  Biso   1.000  H
  H146     1.0000 0.97900  0.94870  0.98660  Biso   1.000  H
  H147     1.0000 0.52100  0.44870  0.51340  Biso   1.000  H
  H148     1.0000 0.47900  0.44870  0.98660  Biso   1.000  H
  H149     1.0000 0.97900  0.05130  0.48660  Biso   1.000  H
  H150     1.0000 0.02100  0.05130  0.01340  Biso   1.000  H
  H151     1.0000 0.47900  0.55130  0.48660  Biso   1.000  H
  H152     1.0000 0.52100  0.55130  0.01340  Biso   1.000  H
  C137     1.0000 0.22270  0.78960  0.30300  Biso   1.000  C
  C138     1.0000 0.77730  0.78960  0.19700  Biso   1.000  C
  C139     1.0000 0.72270  0.28960  0.30300  Biso   1.000  C
  C140     1.0000 0.27730  0.28960  0.19700  Biso   1.000  C
  C141     1.0000 0.77730  0.21040  0.69700  Biso   1.000  C
  C142     1.0000 0.22270  0.21040  0.80300  Biso   1.000  C
  C143     1.0000 0.27730  0.71040  0.69700  Biso   1.000  C
  C144     1.0000 0.72270  0.71040  0.80300  Biso   1.000  C
  H153     1.0000 0.23670  0.80140  0.28440  Biso   1.000  H
  H154     1.0000 0.76330  0.80140  0.21560  Biso   1.000  H
  H155     1.0000 0.73670  0.30140  0.28440  Biso   1.000  H
  H156     1.0000 0.26330  0.30140  0.21560  Biso   1.000  H
  H157     1.0000 0.76330  0.19860  0.71560  Biso   1.000  H
  H158     1.0000 0.23670  0.19860  0.78440  Biso   1.000  H
  H159     1.0000 0.26330  0.69860  0.71560  Biso   1.000  H
  H160     1.0000 0.73670  0.69860  0.78440  Biso   1.000  H
  H161     1.0000 0.21790  0.74080  0.29920  Biso   1.000  H
  H162     1.0000 0.78210  0.74080  0.20080  Biso   1.000  H
  H163     1.0000 0.71790  0.24080  0.29920  Biso   1.000  H
  H164     1.0000 0.28210  0.24080  0.20080  Biso   1.000  H
  H165     1.0000 0.78210  0.25920  0.70080  Biso   1.000  H
  H166     1.0000 0.21790  0.25920  0.79920  Biso   1.000  H
  H167     1.0000 0.28210  0.75920  0.70080  Biso   1.000  H
  H168     1.0000 0.71790  0.75920  0.79920  Biso   1.000  H
  H169     1.0000 0.22910  0.79790  0.33320  Biso   1.000  H
  H170     1.0000 0.77090  0.79790  0.16680  Biso   1.000  H
  H171     1.0000 0.72910  0.29790  0.33320  Biso   1.000  H
  H172     1.0000 0.27090  0.29790  0.16680  Biso   1.000  H
  H173     1.0000 0.77090  0.20210  0.66680  Biso   1.000  H
  H174     1.0000 0.22910  0.20210  0.83320  Biso   1.000  H
  H175     1.0000 0.27090  0.70210  0.66680  Biso   1.000  H
  H176     1.0000 0.72910  0.70210  0.83320  Biso   1.000  H
  C145     1.0000 0.20100  0.80900  0.66730  Biso   1.000  C
  C146     1.0000 0.79900  0.80900  0.83270  Biso   1.000  C
  C147     1.0000 0.70100  0.30900  0.66730  Biso   1.000  C
  C148     1.0000 0.29900  0.30900  0.83270  Biso   1.000  C
  C149     1.0000 0.79900  0.19100  0.33270  Biso   1.000  C
  C150     1.0000 0.20100  0.19100  0.16730  Biso   1.000  C
  C151     1.0000 0.29900  0.69100  0.33270  Biso   1.000  C
  C152     1.0000 0.70100  0.69100  0.16730  Biso   1.000  C
  H177     1.0000 0.19890  0.78900  0.69460  Biso   1.000  H
  H178     1.0000 0.80110  0.78900  0.80540  Biso   1.000  H
  H179     1.0000 0.69890  0.28900  0.69460  Biso   1.000  H
  H180     1.0000 0.30110  0.28900  0.80540  Biso   1.000  H
  H181     1.0000 0.80110  0.21100  0.30540  Biso   1.000  H
  H182     1.0000 0.19890  0.21100  0.19460  Biso   1.000  H
  H183     1.0000 0.30110  0.71100  0.30540  Biso   1.000  H
  H184     1.0000 0.69890  0.71100  0.19460  Biso   1.000  H
  C153     1.0000 0.96620  0.44490  0.41290  Biso   1.000  C
  C154     1.0000 0.03380  0.44490  0.08710  Biso   1.000  C
  C155     1.0000 0.46620  0.94490  0.41290  Biso   1.000  C
  C156     1.0000 0.53380  0.94490  0.08710  Biso   1.000  C
  C157     1.0000 0.03380  0.55510  0.58710  Biso   1.000  C
  C158     1.0000 0.96620  0.55510  0.91290  Biso   1.000  C
  C159     1.0000 0.53380  0.05510  0.58710  Biso   1.000  C
  C160     1.0000 0.46620  0.05510  0.91290  Biso   1.000  C
  H185     1.0000 0.98210  0.46640  0.40250  Biso   1.000  H
  H186     1.0000 0.01790  0.46640  0.09750  Biso   1.000  H
  H187     1.0000 0.48210  0.96640  0.40250  Biso   1.000  H
  H188     1.0000 0.51790  0.96640  0.09750  Biso   1.000  H
  H189     1.0000 0.01790  0.53360  0.59750  Biso   1.000  H
  H190     1.0000 0.98210  0.53360  0.90250  Biso   1.000  H
  H191     1.0000 0.51790  0.03360  0.59750  Biso   1.000  H
  H192     1.0000 0.48210  0.03360  0.90250  Biso   1.000  H
  H193     1.0000 0.95160  0.44610  0.39000  Biso   1.000  H
  H194     1.0000 0.04840  0.44610  0.11000  Biso   1.000  H
  H195     1.0000 0.45160  0.94610  0.39000  Biso   1.000  H
  H196     1.0000 0.54840  0.94610  0.11000  Biso   1.000  H
  H197     1.0000 0.04840  0.55390  0.61000  Biso   1.000  H
  H198     1.0000 0.95160  0.55390  0.89000  Biso   1.000  H
  H199     1.0000 0.54840  0.05390  0.61000  Biso   1.000  H
  H200     1.0000 0.45160  0.05390  0.89000  Biso   1.000  H
  H201     1.0000 0.97020  0.39670  0.42090  Biso   1.000  H
  H202     1.0000 0.02980  0.39670  0.07910  Biso   1.000  H
  H203     1.0000 0.47020  0.89670  0.42090  Biso   1.000  H
  H204     1.0000 0.52980  0.89670  0.07910  Biso   1.000  H
  H205     1.0000 0.02980  0.60330  0.57910  Biso   1.000  H
  H206     1.0000 0.97020  0.60330  0.92090  Biso   1.000  H
  H207     1.0000 0.52980  0.10330  0.57910  Biso   1.000  H
  H208     1.0000 0.47020  0.10330  0.92090  Biso   1.000  H
  C161     1.0000 0.90360  0.68780  0.41900  Biso   1.000  C
  C162     1.0000 0.09640  0.68780  0.08100  Biso   1.000  C
  C163     1.0000 0.40360  0.18780  0.41900  Biso   1.000  C
  C164     1.0000 0.59640  0.18780  0.08100  Biso   1.000  C
  C165     1.0000 0.09640  0.31220  0.58100  Biso   1.000  C
  C166     1.0000 0.90360  0.31220  0.91900  Biso   1.000  C
  C167     1.0000 0.59640  0.81220  0.58100  Biso   1.000  C
  C168     1.0000 0.40360  0.81220  0.91900  Biso   1.000  C
  H209     1.0000 0.90250  0.63790  0.42420  Biso   1.000  H
  H210     1.0000 0.09750  0.63790  0.07580  Biso   1.000  H
  H211     1.0000 0.40250  0.13790  0.42420  Biso   1.000  H
  H212     1.0000 0.59750  0.13790  0.07580  Biso   1.000  H
  H213     1.0000 0.09750  0.36210  0.57580  Biso   1.000  H
  H214     1.0000 0.90250  0.36210  0.92420  Biso   1.000  H
  H215     1.0000 0.59750  0.86210  0.57580  Biso   1.000  H
  H216     1.0000 0.40250  0.86210  0.92420  Biso   1.000  H
  H217     1.0000 0.90690  0.69580  0.38890  Biso   1.000  H
  H218     1.0000 0.09310  0.69580  0.11110  Biso   1.000  H
  H219     1.0000 0.40690  0.19580  0.38890  Biso   1.000  H
  H220     1.0000 0.59310  0.19580  0.11110  Biso   1.000  H
  H221     1.0000 0.09310  0.30420  0.61110  Biso   1.000  H
  H222     1.0000 0.90690  0.30420  0.88890  Biso   1.000  H
  H223     1.0000 0.59310  0.80420  0.61110  Biso   1.000  H
  H224     1.0000 0.40690  0.80420  0.88890  Biso   1.000  H
  H225     1.0000 0.88680  0.70980  0.42480  Biso   1.000  H
  H226     1.0000 0.11320  0.70980  0.07520  Biso   1.000  H
  H227     1.0000 0.38680  0.20980  0.42480  Biso   1.000  H
  H228     1.0000 0.61320  0.20980  0.07520  Biso   1.000  H
  H229     1.0000 0.11320  0.29020  0.57520  Biso   1.000  H
  H230     1.0000 0.88680  0.29020  0.92480  Biso   1.000  H
  H231     1.0000 0.61320  0.79020  0.57520  Biso   1.000  H
  H232     1.0000 0.38680  0.79020  0.92480  Biso   1.000  H
  C169     1.0000 0.04430  0.00840  0.55720  Biso   1.000  C
  C170     1.0000 0.95570  0.00840  0.94280  Biso   1.000  C
  C171     1.0000 0.54430  0.50840  0.55720  Biso   1.000  C
  C172     1.0000 0.45570  0.50840  0.94280  Biso   1.000  C
  C173     1.0000 0.95570  0.99160  0.44280  Biso   1.000  C
  C174     1.0000 0.04430  0.99160  0.05720  Biso   1.000  C
  C175     1.0000 0.45570  0.49160  0.44280  Biso   1.000  C
  C176     1.0000 0.54430  0.49160  0.05720  Biso   1.000  C
  H233     1.0000 0.06040  0.00250  0.54210  Biso   1.000  H
  H234     1.0000 0.93960  0.00250  0.95790  Biso   1.000  H
  H235     1.0000 0.56040  0.50250  0.54210  Biso   1.000  H
  H236     1.0000 0.43960  0.50250  0.95790  Biso   1.000  H
  H237     1.0000 0.93960  0.99750  0.45790  Biso   1.000  H
  H238     1.0000 0.06040  0.99750  0.04210  Biso   1.000  H
  H239     1.0000 0.43960  0.49750  0.45790  Biso   1.000  H
  H240     1.0000 0.56040  0.49750  0.04210  Biso   1.000  H
  H241     1.0000 0.04910  0.00830  0.58840  Biso   1.000  H
  H242     1.0000 0.95090  0.00830  0.91160  Biso   1.000  H
  H243     1.0000 0.54910  0.50830  0.58840  Biso   1.000  H
  H244     1.0000 0.45090  0.50830  0.91160  Biso   1.000  H
  H245     1.0000 0.95090  0.99170  0.41160  Biso   1.000  H
  H246     1.0000 0.04910  0.99170  0.08840  Biso   1.000  H
  H247     1.0000 0.45090  0.49170  0.41160  Biso   1.000  H
  H248     1.0000 0.54910  0.49170  0.08840  Biso   1.000  H
  H249     1.0000 0.03580  0.05250  0.54870  Biso   1.000  H
  H250     1.0000 0.96420  0.05250  0.95130  Biso   1.000  H
  H251     1.0000 0.53580  0.55250  0.54870  Biso   1.000  H
  H252     1.0000 0.46420  0.55250  0.95130  Biso   1.000  H
  H253     1.0000 0.96420  0.94750  0.45130  Biso   1.000  H
  H254     1.0000 0.03580  0.94750  0.04870  Biso   1.000  H
  H255     1.0000 0.46420  0.44750  0.45130  Biso   1.000  H
  H256     1.0000 0.53580  0.44750  0.04870  Biso   1.000  H
  C177     1.0000 0.03310  0.55420  0.19950  Biso   1.000  C
  C178     1.0000 0.96690  0.55420  0.30050  Biso   1.000  C
  C179     1.0000 0.53310  0.05420  0.19950  Biso   1.000  C
  C180     1.0000 0.46690  0.05420  0.30050  Biso   1.000  C
  C181     1.0000 0.96690  0.44580  0.80050  Biso   1.000  C
  C182     1.0000 0.03310  0.44580  0.69950  Biso   1.000  C
  C183     1.0000 0.46690  0.94580  0.80050  Biso   1.000  C
  C184     1.0000 0.53310  0.94580  0.69950  Biso   1.000  C
  H257     1.0000 0.01870  0.56960  0.21640  Biso   1.000  H
  H258     1.0000 0.98130  0.56960  0.28360  Biso   1.000  H
  H259     1.0000 0.51870  0.06960  0.21640  Biso   1.000  H
  H260     1.0000 0.48130  0.06960  0.28360  Biso   1.000  H
  H261     1.0000 0.98130  0.43040  0.78360  Biso   1.000  H
  H262     1.0000 0.01870  0.43040  0.71640  Biso   1.000  H
  H263     1.0000 0.48130  0.93040  0.78360  Biso   1.000  H
  H264     1.0000 0.51870  0.93040  0.71640  Biso   1.000  H
  H265     1.0000 0.03820  0.50680  0.20770  Biso   1.000  H
  H266     1.0000 0.96180  0.50680  0.29230  Biso   1.000  H
  H267     1.0000 0.53820  0.00680  0.20770  Biso   1.000  H
  H268     1.0000 0.46180  0.00680  0.29230  Biso   1.000  H
  H269     1.0000 0.96180  0.49320  0.79230  Biso   1.000  H
  H270     1.0000 0.03820  0.49320  0.70770  Biso   1.000  H
  H271     1.0000 0.46180  0.99320  0.79230  Biso   1.000  H
  H272     1.0000 0.53820  0.99320  0.70770  Biso   1.000  H
  H273     1.0000 0.02690  0.55550  0.16880  Biso   1.000  H
  H274     1.0000 0.97310  0.55550  0.33120  Biso   1.000  H
  H275     1.0000 0.52690  0.05550  0.16880  Biso   1.000  H
  H276     1.0000 0.47310  0.05550  0.33120  Biso   1.000  H
  H277     1.0000 0.97310  0.44450  0.83120  Biso   1.000  H
  H278     1.0000 0.02690  0.44450  0.66880  Biso   1.000  H
  H279     1.0000 0.47310  0.94450  0.83120  Biso   1.000  H
  H280     1.0000 0.52690  0.94450  0.66880  Biso   1.000  H
  O105     1.0000 0.28911  0.13130  0.55496  Biso   1.000  O
  O106     1.0000 0.71089  0.13130  0.94504  Biso   1.000  O
  O107     1.0000 0.78911  0.63130  0.55496  Biso   1.000  O
  O108     1.0000 0.21089  0.63130  0.94504  Biso   1.000  O
  O109     1.0000 0.71089  0.86870  0.44504  Biso   1.000  O
  O110     1.0000 0.28911  0.86870  0.05496  Biso   1.000  O
  O111     1.0000 0.21089  0.36870  0.44504  Biso   1.000  O
  O112     1.0000 0.78911  0.36870  0.05496  Biso   1.000  O
  C185     1.0000 0.18150  0.90600  0.14770  Biso   1.000  C
  C186     1.0000 0.81850  0.90600  0.35230  Biso   1.000  C
  C187     1.0000 0.68150  0.40600  0.14770  Biso   1.000  C
  C188     1.0000 0.31850  0.40600  0.35230  Biso   1.000  C
  C189     1.0000 0.81850  0.09400  0.85230  Biso   1.000  C
  C190     1.0000 0.18150  0.09400  0.64770  Biso   1.000  C
  C191     1.0000 0.31850  0.59400  0.85230  Biso   1.000  C
  C192     1.0000 0.68150  0.59400  0.64770  Biso   1.000  C
  C193     1.0000 0.03930  0.96390  0.70120  Biso   1.000  C
  C194     1.0000 0.96070  0.96390  0.79880  Biso   1.000  C
  C195     1.0000 0.53930  0.46390  0.70120  Biso   1.000  C
  C196     1.0000 0.46070  0.46390  0.79880  Biso   1.000  C
  C197     1.0000 0.96070  0.03610  0.29880  Biso   1.000  C
  C198     1.0000 0.03930  0.03610  0.20120  Biso   1.000  C
  C199     1.0000 0.46070  0.53610  0.29880  Biso   1.000  C
  C200     1.0000 0.53930  0.53610  0.20120  Biso   1.000  C
  H281     1.0000 0.02830  0.95520  0.72510  Biso   1.000  H
  H282     1.0000 0.97170  0.95520  0.77490  Biso   1.000  H
  H283     1.0000 0.52830  0.45520  0.72510  Biso   1.000  H
  H284     1.0000 0.47170  0.45520  0.77490  Biso   1.000  H
  H285     1.0000 0.97170  0.04480  0.27490  Biso   1.000  H
  H286     1.0000 0.02830  0.04480  0.22510  Biso   1.000  H
  H287     1.0000 0.47170  0.54480  0.27490  Biso   1.000  H
  H288     1.0000 0.52830  0.54480  0.22510  Biso   1.000  H
  H289     1.0000 0.02850  0.95790  0.67380  Biso   1.000  H
  H290     1.0000 0.97150  0.95790  0.82620  Biso   1.000  H
  H291     1.0000 0.52850  0.45790  0.67380  Biso   1.000  H
  H292     1.0000 0.47150  0.45790  0.82620  Biso   1.000  H
  H293     1.0000 0.97150  0.04210  0.32620  Biso   1.000  H
  H294     1.0000 0.02850  0.04210  0.17380  Biso   1.000  H
  H295     1.0000 0.47150  0.54210  0.32620  Biso   1.000  H
  H296     1.0000 0.52850  0.54210  0.17380  Biso   1.000  H
  H297     1.0000 0.04620  0.01130  0.70320  Biso   1.000  H
  H298     1.0000 0.95380  0.01130  0.79680  Biso   1.000  H
  H299     1.0000 0.54620  0.51130  0.70320  Biso   1.000  H
  H300     1.0000 0.45380  0.51130  0.79680  Biso   1.000  H
  H301     1.0000 0.95380  0.98870  0.29680  Biso   1.000  H
  H302     1.0000 0.04620  0.98870  0.20320  Biso   1.000  H
  H303     1.0000 0.45380  0.48870  0.29680  Biso   1.000  H
  H304     1.0000 0.54620  0.48870  0.20320  Biso   1.000  H
  C201     1.0000 0.99830  0.95210  0.56640  Biso   1.000  C
  C202     1.0000 0.00170  0.95210  0.93360  Biso   1.000  C
  C203     1.0000 0.49830  0.45210  0.56640  Biso   1.000  C
  C204     1.0000 0.50170  0.45210  0.93360  Biso   1.000  C
  C205     1.0000 0.00170  0.04790  0.43360  Biso   1.000  C
  C206     1.0000 0.99830  0.04790  0.06640  Biso   1.000  C
  C207     1.0000 0.50170  0.54790  0.43360  Biso   1.000  C
  C208     1.0000 0.49830  0.54790  0.06640  Biso   1.000  C
  H305     1.0000 0.98730  0.91230  0.55700  Biso   1.000  H
  H306     1.0000 0.01270  0.91230  0.94300  Biso   1.000  H
  H307     1.0000 0.48730  0.41230  0.55700  Biso   1.000  H
  H308     1.0000 0.51270  0.41230  0.94300  Biso   1.000  H
  H309     1.0000 0.01270  0.08770  0.44300  Biso   1.000  H
  H310     1.0000 0.98730  0.08770  0.05700  Biso   1.000  H
  H311     1.0000 0.51270  0.58770  0.44300  Biso   1.000  H
  H312     1.0000 0.48730  0.58770  0.05700  Biso   1.000  H
  H313     1.0000 0.98890  0.99500  0.55780  Biso   1.000  H
  H314     1.0000 0.01110  0.99500  0.94220  Biso   1.000  H
  H315     1.0000 0.48890  0.49500  0.55780  Biso   1.000  H
  H316     1.0000 0.51110  0.49500  0.94220  Biso   1.000  H
  H317     1.0000 0.01110  0.00500  0.44220  Biso   1.000  H
  H318     1.0000 0.98890  0.00500  0.05780  Biso   1.000  H
  H319     1.0000 0.51110  0.50500  0.44220  Biso   1.000  H
  H320     1.0000 0.48890  0.50500  0.05780  Biso   1.000  H
  H321     1.0000 0.00190  0.95110  0.59790  Biso   1.000  H
  H322     1.0000 0.99810  0.95110  0.90210  Biso   1.000  H
  H323     1.0000 0.50190  0.45110  0.59790  Biso   1.000  H
  H324     1.0000 0.49810  0.45110  0.90210  Biso   1.000  H
  H325     1.0000 0.99810  0.04890  0.40210  Biso   1.000  H
  H326     1.0000 0.00190  0.04890  0.09790  Biso   1.000  H
  H327     1.0000 0.49810  0.54890  0.40210  Biso   1.000  H
  H328     1.0000 0.50190  0.54890  0.09790  Biso   1.000  H
  C209     1.0000 0.20590  0.79840  0.59040  Biso   1.000  C
  C210     1.0000 0.79410  0.79840  0.90960  Biso   1.000  C
  C211     1.0000 0.70590  0.29840  0.59040  Biso   1.000  C
  C212     1.0000 0.29410  0.29840  0.90960  Biso   1.000  C
  C213     1.0000 0.79410  0.20160  0.40960  Biso   1.000  C
  C214     1.0000 0.20590  0.20160  0.09040  Biso   1.000  C
  C215     1.0000 0.29410  0.70160  0.40960  Biso   1.000  C
  C216     1.0000 0.70590  0.70160  0.09040  Biso   1.000  C
  H329     1.0000 0.20660  0.76970  0.56580  Biso   1.000  H
  H330     1.0000 0.79340  0.76970  0.93420  Biso   1.000  H
  H331     1.0000 0.70660  0.26970  0.56580  Biso   1.000  H
  H332     1.0000 0.29340  0.26970  0.93420  Biso   1.000  H
  H333     1.0000 0.79340  0.23030  0.43420  Biso   1.000  H
  H334     1.0000 0.20660  0.23030  0.06580  Biso   1.000  H
  H335     1.0000 0.29340  0.73030  0.43420  Biso   1.000  H
  H336     1.0000 0.70660  0.73030  0.06580  Biso   1.000  H
  C217     1.0000 0.92950  0.79710  0.44190  Biso   1.000  C
  C218     1.0000 0.07050  0.79710  0.05810  Biso   1.000  C
  C219     1.0000 0.42950  0.29710  0.44190  Biso   1.000  C
  C220     1.0000 0.57050  0.29710  0.05810  Biso   1.000  C
  C221     1.0000 0.07050  0.20290  0.55810  Biso   1.000  C
  C222     1.0000 0.92950  0.20290  0.94190  Biso   1.000  C
  C223     1.0000 0.57050  0.70290  0.55810  Biso   1.000  C
  C224     1.0000 0.42950  0.70290  0.94190  Biso   1.000  C
  H337     1.0000 0.94430  0.81470  0.46140  Biso   1.000  H
  H338     1.0000 0.05570  0.81470  0.03860  Biso   1.000  H
  H339     1.0000 0.44430  0.31470  0.46140  Biso   1.000  H
  H340     1.0000 0.55570  0.31470  0.03860  Biso   1.000  H
  H341     1.0000 0.05570  0.18530  0.53860  Biso   1.000  H
  H342     1.0000 0.94430  0.18530  0.96140  Biso   1.000  H
  H343     1.0000 0.55570  0.68530  0.53860  Biso   1.000  H
  H344     1.0000 0.44430  0.68530  0.96140  Biso   1.000  H
  H345     1.0000 0.91300  0.82060  0.44790  Biso   1.000  H
  H346     1.0000 0.08700  0.82060  0.05210  Biso   1.000  H
  H347     1.0000 0.41300  0.32060  0.44790  Biso   1.000  H
  H348     1.0000 0.58700  0.32060  0.05210  Biso   1.000  H
  H349     1.0000 0.08700  0.17940  0.55210  Biso   1.000  H
  H350     1.0000 0.91300  0.17940  0.94790  Biso   1.000  H
  H351     1.0000 0.58700  0.67940  0.55210  Biso   1.000  H
  H352     1.0000 0.41300  0.67940  0.94790  Biso   1.000  H
  H353     1.0000 0.93310  0.80590  0.41200  Biso   1.000  H
  H354     1.0000 0.06690  0.80590  0.08800  Biso   1.000  H
  H355     1.0000 0.43310  0.30590  0.41200  Biso   1.000  H
  H356     1.0000 0.56690  0.30590  0.08800  Biso   1.000  H
  H357     1.0000 0.06690  0.19410  0.58800  Biso   1.000  H
  H358     1.0000 0.93310  0.19410  0.91200  Biso   1.000  H
  H359     1.0000 0.56690  0.69410  0.58800  Biso   1.000  H
  H360     1.0000 0.43310  0.69410  0.91200  Biso   1.000  H
  C225     1.0000 0.33770  0.83180  0.17080  Biso   1.000  C
  C226     1.0000 0.66230  0.83180  0.32920  Biso   1.000  C
  C227     1.0000 0.83770  0.33180  0.17080  Biso   1.000  C
  C228     1.0000 0.16230  0.33180  0.32920  Biso   1.000  C
  C229     1.0000 0.66230  0.16820  0.82920  Biso   1.000  C
  C230     1.0000 0.33770  0.16820  0.67080  Biso   1.000  C
  C231     1.0000 0.16230  0.66820  0.82920  Biso   1.000  C
  C232     1.0000 0.83770  0.66820  0.67080  Biso   1.000  C
  H361     1.0000 0.35160  0.86730  0.17350  Biso   1.000  H
  H362     1.0000 0.64840  0.86730  0.32650  Biso   1.000  H
  H363     1.0000 0.85160  0.36730  0.17350  Biso   1.000  H
  H364     1.0000 0.14840  0.36730  0.32650  Biso   1.000  H
  H365     1.0000 0.64840  0.13270  0.82650  Biso   1.000  H
  H366     1.0000 0.35160  0.13270  0.67350  Biso   1.000  H
  H367     1.0000 0.14840  0.63270  0.82650  Biso   1.000  H
  H368     1.0000 0.85160  0.63270  0.67350  Biso   1.000  H
  H369     1.0000 0.32890  0.83250  0.14160  Biso   1.000  H
  H370     1.0000 0.67110  0.83250  0.35840  Biso   1.000  H
  H371     1.0000 0.82890  0.33250  0.14160  Biso   1.000  H
  H372     1.0000 0.17110  0.33250  0.35840  Biso   1.000  H
  H373     1.0000 0.67110  0.16750  0.85840  Biso   1.000  H
  H374     1.0000 0.32890  0.16750  0.64160  Biso   1.000  H
  H375     1.0000 0.17110  0.66750  0.85840  Biso   1.000  H
  H376     1.0000 0.82890  0.66750  0.64160  Biso   1.000  H
  H377     1.0000 0.34570  0.78620  0.17670  Biso   1.000  H
  H378     1.0000 0.65430  0.78620  0.32330  Biso   1.000  H
  H379     1.0000 0.84570  0.28620  0.17670  Biso   1.000  H
  H380     1.0000 0.15430  0.28620  0.32330  Biso   1.000  H
  H381     1.0000 0.65430  0.21380  0.82330  Biso   1.000  H
  H382     1.0000 0.34570  0.21380  0.67670  Biso   1.000  H
  H383     1.0000 0.15430  0.71380  0.82330  Biso   1.000  H
  H384     1.0000 0.84570  0.71380  0.67670  Biso   1.000  H
  C233     1.0000 0.20270  0.76710  0.62980  Biso   1.000  C
  C234     1.0000 0.79730  0.76710  0.87020  Biso   1.000  C
  C235     1.0000 0.70270  0.26710  0.62980  Biso   1.000  C
  C236     1.0000 0.29730  0.26710  0.87020  Biso   1.000  C
  C237     1.0000 0.79730  0.23290  0.37020  Biso   1.000  C
  C238     1.0000 0.20270  0.23290  0.12980  Biso   1.000  C
  C239     1.0000 0.29730  0.73290  0.37020  Biso   1.000  C
  C240     1.0000 0.70270  0.73290  0.12980  Biso   1.000  C
  H385     1.0000 0.20170  0.71820  0.63180  Biso   1.000  H
  H386     1.0000 0.79830  0.71820  0.86820  Biso   1.000  H
  H387     1.0000 0.70170  0.21820  0.63180  Biso   1.000  H
  H388     1.0000 0.29830  0.21820  0.86820  Biso   1.000  H
  H389     1.0000 0.79830  0.28180  0.36820  Biso   1.000  H
  H390     1.0000 0.20170  0.28180  0.13180  Biso   1.000  H
  H391     1.0000 0.29830  0.78180  0.36820  Biso   1.000  H
  H392     1.0000 0.70170  0.78180  0.13180  Biso   1.000  H
  C241     1.0000 0.20250  0.88010  0.66200  Biso   1.000  C
  C242     1.0000 0.79750  0.88010  0.83800  Biso   1.000  C
  C243     1.0000 0.70250  0.38010  0.66200  Biso   1.000  C
  C244     1.0000 0.29750  0.38010  0.83800  Biso   1.000  C
  C245     1.0000 0.79750  0.11990  0.33800  Biso   1.000  C
  C246     1.0000 0.20250  0.11990  0.16200  Biso   1.000  C
  C247     1.0000 0.29750  0.61990  0.33800  Biso   1.000  C
  C248     1.0000 0.70250  0.61990  0.16200  Biso   1.000  C
  H393     1.0000 0.20050  0.90890  0.68620  Biso   1.000  H
  H394     1.0000 0.79950  0.90890  0.81380  Biso   1.000  H
  H395     1.0000 0.70050  0.40890  0.68620  Biso   1.000  H
  H396     1.0000 0.29950  0.40890  0.81380  Biso   1.000  H
  H397     1.0000 0.79950  0.09110  0.31380  Biso   1.000  H
  H398     1.0000 0.20050  0.09110  0.18620  Biso   1.000  H
  H399     1.0000 0.29950  0.59110  0.31380  Biso   1.000  H
  H400     1.0000 0.70050  0.59110  0.18620  Biso   1.000  H
  C249     1.0000 0.13140  0.79060  0.20890  Biso   1.000  C
  C250     1.0000 0.86860  0.79060  0.29110  Biso   1.000  C
  C251     1.0000 0.63140  0.29060  0.20890  Biso   1.000  C
  C252     1.0000 0.36860  0.29060  0.29110  Biso   1.000  C
  C253     1.0000 0.86860  0.20940  0.79110  Biso   1.000  C
  C254     1.0000 0.13140  0.20940  0.70890  Biso   1.000  C
  C255     1.0000 0.36860  0.70940  0.79110  Biso   1.000  C
  C256     1.0000 0.63140  0.70940  0.70890  Biso   1.000  C
  H401     1.0000 0.13440  0.75100  0.22830  Biso   1.000  H
  H402     1.0000 0.86560  0.75100  0.27170  Biso   1.000  H
  H403     1.0000 0.63440  0.25100  0.22830  Biso   1.000  H
  H404     1.0000 0.36560  0.25100  0.27170  Biso   1.000  H
  H405     1.0000 0.86560  0.24900  0.77170  Biso   1.000  H
  H406     1.0000 0.13440  0.24900  0.72830  Biso   1.000  H
  H407     1.0000 0.36560  0.74900  0.77170  Biso   1.000  H
  H408     1.0000 0.63440  0.74900  0.72830  Biso   1.000  H
  H409     1.0000 0.14400  0.82760  0.21790  Biso   1.000  H
  H410     1.0000 0.85600  0.82760  0.28210  Biso   1.000  H
  H411     1.0000 0.64400  0.32760  0.21790  Biso   1.000  H
  H412     1.0000 0.35600  0.32760  0.28210  Biso   1.000  H
  H413     1.0000 0.85600  0.17240  0.78210  Biso   1.000  H
  H414     1.0000 0.14400  0.17240  0.71790  Biso   1.000  H
  H415     1.0000 0.35600  0.67240  0.78210  Biso   1.000  H
  H416     1.0000 0.64400  0.67240  0.71790  Biso   1.000  H
  H417     1.0000 0.13410  0.77640  0.17940  Biso   1.000  H
  H418     1.0000 0.86590  0.77640  0.32060  Biso   1.000  H
  H419     1.0000 0.63410  0.27640  0.17940  Biso   1.000  H
  H420     1.0000 0.36590  0.27640  0.32060  Biso   1.000  H
  H421     1.0000 0.86590  0.22360  0.82060  Biso   1.000  H
  H422     1.0000 0.13410  0.22360  0.67940  Biso   1.000  H
  H423     1.0000 0.36590  0.72360  0.82060  Biso   1.000  H
  H424     1.0000 0.63410  0.72360  0.67940  Biso   1.000  H
  C257     1.0000 0.18362  0.70720  0.46750  Biso   1.000  C
  C258     1.0000 0.81638  0.70720  0.03250  Biso   1.000  C
  C259     1.0000 0.68362  0.20720  0.46750  Biso   1.000  C
  C260     1.0000 0.31638  0.20720  0.03250  Biso   1.000  C
  C261     1.0000 0.81638  0.29280  0.53250  Biso   1.000  C
  C262     1.0000 0.18362  0.29280  0.96750  Biso   1.000  C
  C263     1.0000 0.31638  0.79280  0.53250  Biso   1.000  C
  C264     1.0000 0.68362  0.79280  0.96750  Biso   1.000  C
  H425     1.0000 0.17880  0.73700  0.49100  Biso   1.000  H
  H426     1.0000 0.82120  0.73700  0.00900  Biso   1.000  H
  H427     1.0000 0.67880  0.23700  0.49100  Biso   1.000  H
  H428     1.0000 0.32120  0.23700  0.00900  Biso   1.000  H
  H429     1.0000 0.82120  0.26300  0.50900  Biso   1.000  H
  H430     1.0000 0.17880  0.26300  0.99100  Biso   1.000  H
  H431     1.0000 0.32120  0.76300  0.50900  Biso   1.000  H
  H432     1.0000 0.67880  0.76300  0.99100  Biso   1.000  H
  H433     1.0000 0.16910  0.70710  0.44440  Biso   1.000  H
  H434     1.0000 0.83090  0.70710  0.05560  Biso   1.000  H
  H435     1.0000 0.66910  0.20710  0.44440  Biso   1.000  H
  H436     1.0000 0.33090  0.20710  0.05560  Biso   1.000  H
  H437     1.0000 0.83090  0.29290  0.55560  Biso   1.000  H
  H438     1.0000 0.16910  0.29290  0.94440  Biso   1.000  H
  H439     1.0000 0.33090  0.79290  0.55560  Biso   1.000  H
  H440     1.0000 0.66910  0.79290  0.94440  Biso   1.000  H
  H441     1.0000 0.18660  0.65990  0.47820  Biso   1.000  H
  H442     1.0000 0.81340  0.65990  0.02180  Biso   1.000  H
  H443     1.0000 0.68660  0.15990  0.47820  Biso   1.000  H
  H444     1.0000 0.31340  0.15990  0.02180  Biso   1.000  H
  H445     1.0000 0.81340  0.34010  0.52180  Biso   1.000  H
  H446     1.0000 0.18660  0.34010  0.97820  Biso   1.000  H
  H447     1.0000 0.31340  0.84010  0.52180  Biso   1.000  H
  H448     1.0000 0.68660  0.84010  0.97820  Biso   1.000  H
  C265     1.0000 0.27710  0.20070  0.54240  Biso   1.000  C
  C266     1.0000 0.72290  0.20070  0.95760  Biso   1.000  C
  C267     1.0000 0.77710  0.70070  0.54240  Biso   1.000  C
  C268     1.0000 0.22290  0.70070  0.95760  Biso   1.000  C
  C269     1.0000 0.72290  0.79930  0.45760  Biso   1.000  C
  C270     1.0000 0.27710  0.79930  0.04240  Biso   1.000  C
  C271     1.0000 0.22290  0.29930  0.45760  Biso   1.000  C
  C272     1.0000 0.77710  0.29930  0.04240  Biso   1.000  C
  H449     1.0000 0.27190  0.20080  0.51070  Biso   1.000  H
  H450     1.0000 0.72810  0.20080  0.98930  Biso   1.000  H
  H451     1.0000 0.77190  0.70080  0.51070  Biso   1.000  H
  H452     1.0000 0.22810  0.70080  0.98930  Biso   1.000  H
  H453     1.0000 0.72810  0.79920  0.48930  Biso   1.000  H
  H454     1.0000 0.27190  0.79920  0.01070  Biso   1.000  H
  H455     1.0000 0.22810  0.29920  0.48930  Biso   1.000  H
  H456     1.0000 0.77190  0.29920  0.01070  Biso   1.000  H
  C273     1.0000 0.18910  0.85020  0.12100  Biso   1.000  C
  C274     1.0000 0.81090  0.85020  0.37900  Biso   1.000  C
  C275     1.0000 0.68910  0.35020  0.12100  Biso   1.000  C
  C276     1.0000 0.31090  0.35020  0.37900  Biso   1.000  C
  C277     1.0000 0.81090  0.14980  0.87900  Biso   1.000  C
  C278     1.0000 0.18910  0.14980  0.62100  Biso   1.000  C
  C279     1.0000 0.31090  0.64980  0.87900  Biso   1.000  C
  C280     1.0000 0.68910  0.64980  0.62100  Biso   1.000  C
  H457     1.0000 0.20470  0.82450  0.12970  Biso   1.000  H
  H458     1.0000 0.79530  0.82450  0.37030  Biso   1.000  H
  H459     1.0000 0.70470  0.32450  0.12970  Biso   1.000  H
  H460     1.0000 0.29530  0.32450  0.37030  Biso   1.000  H
  H461     1.0000 0.79530  0.17550  0.87030  Biso   1.000  H
  H462     1.0000 0.20470  0.17550  0.62970  Biso   1.000  H
  H463     1.0000 0.29530  0.67550  0.87030  Biso   1.000  H
  H464     1.0000 0.70470  0.67550  0.62970  Biso   1.000  H
  C281     1.0000 0.25200  0.20440  0.56610  Biso   1.000  C
  C282     1.0000 0.74800  0.20440  0.93390  Biso   1.000  C
  C283     1.0000 0.75200  0.70440  0.56610  Biso   1.000  C
  C284     1.0000 0.24800  0.70440  0.93390  Biso   1.000  C
  C285     1.0000 0.74800  0.79560  0.43390  Biso   1.000  C
  C286     1.0000 0.25200  0.79560  0.06610  Biso   1.000  C
  C287     1.0000 0.24800  0.29560  0.43390  Biso   1.000  C
  C288     1.0000 0.75200  0.29560  0.06610  Biso   1.000  C
  H465     1.0000 0.24020  0.16580  0.55700  Biso   1.000  H
  H466     1.0000 0.75980  0.16580  0.94300  Biso   1.000  H
  H467     1.0000 0.74020  0.66580  0.55700  Biso   1.000  H
  H468     1.0000 0.25980  0.66580  0.94300  Biso   1.000  H
  H469     1.0000 0.75980  0.83420  0.44300  Biso   1.000  H
  H470     1.0000 0.24020  0.83420  0.05700  Biso   1.000  H
  H471     1.0000 0.25980  0.33420  0.44300  Biso   1.000  H
  H472     1.0000 0.74020  0.33420  0.05700  Biso   1.000  H
  H473     1.0000 0.25680  0.20150  0.59720  Biso   1.000  H
  H474     1.0000 0.74320  0.20150  0.90280  Biso   1.000  H
  H475     1.0000 0.75680  0.70150  0.59720  Biso   1.000  H
  H476     1.0000 0.24320  0.70150  0.90280  Biso   1.000  H
  H477     1.0000 0.74320  0.79850  0.40280  Biso   1.000  H
  H478     1.0000 0.25680  0.79850  0.09720  Biso   1.000  H
  H479     1.0000 0.24320  0.29850  0.40280  Biso   1.000  H
  H480     1.0000 0.75680  0.29850  0.09720  Biso   1.000  H
  H481     1.0000 0.24280  0.24820  0.55930  Biso   1.000  H
  H482     1.0000 0.75720  0.24820  0.94070  Biso   1.000  H
  H483     1.0000 0.74280  0.74820  0.55930  Biso   1.000  H
  H484     1.0000 0.25720  0.74820  0.94070  Biso   1.000  H
  H485     1.0000 0.75720  0.75180  0.44070  Biso   1.000  H
  H486     1.0000 0.24280  0.75180  0.05930  Biso   1.000  H
  H487     1.0000 0.25720  0.25180  0.44070  Biso   1.000  H
  H488     1.0000 0.74280  0.25180  0.05930  Biso   1.000  H
  C289     1.0000 0.36020  0.06090  0.20970  Biso   1.000  C
  C290     1.0000 0.63980  0.06090  0.29030  Biso   1.000  C
  C291     1.0000 0.86020  0.56090  0.20970  Biso   1.000  C
  C292     1.0000 0.13980  0.56090  0.29030  Biso   1.000  C
  C293     1.0000 0.63980  0.93910  0.79030  Biso   1.000  C
  C294     1.0000 0.36020  0.93910  0.70970  Biso   1.000  C
  C295     1.0000 0.13980  0.43910  0.79030  Biso   1.000  C
  C296     1.0000 0.86020  0.43910  0.70970  Biso   1.000  C
  H489     1.0000 0.36000  0.07610  0.24040  Biso   1.000  H
  H490     1.0000 0.64000  0.07610  0.25960  Biso   1.000  H
  H491     1.0000 0.86000  0.57610  0.24040  Biso   1.000  H
  H492     1.0000 0.14000  0.57610  0.25960  Biso   1.000  H
  H493     1.0000 0.64000  0.92390  0.75960  Biso   1.000  H
  H494     1.0000 0.36000  0.92390  0.74040  Biso   1.000  H
  H495     1.0000 0.14000  0.42390  0.75960  Biso   1.000  H
  H496     1.0000 0.86000  0.42390  0.74040  Biso   1.000  H
  C297     1.0000 0.95330  0.62920  0.66710  Biso   1.000  C
  C298     1.0000 0.04670  0.62920  0.83290  Biso   1.000  C
  C299     1.0000 0.45330  0.12920  0.66710  Biso   1.000  C
  C300     1.0000 0.54670  0.12920  0.83290  Biso   1.000  C
  C301     1.0000 0.04670  0.37080  0.33290  Biso   1.000  C
  C302     1.0000 0.95330  0.37080  0.16710  Biso   1.000  C
  C303     1.0000 0.54670  0.87080  0.33290  Biso   1.000  C
  C304     1.0000 0.45330  0.87080  0.16710  Biso   1.000  C
  H497     1.0000 0.95220  0.65740  0.69180  Biso   1.000  H
  H498     1.0000 0.04780  0.65740  0.80820  Biso   1.000  H
  H499     1.0000 0.45220  0.15740  0.69180  Biso   1.000  H
  H500     1.0000 0.54780  0.15740  0.80820  Biso   1.000  H
  H501     1.0000 0.04780  0.34260  0.30820  Biso   1.000  H
  H502     1.0000 0.95220  0.34260  0.19180  Biso   1.000  H
  H503     1.0000 0.54780  0.84260  0.30820  Biso   1.000  H
  H504     1.0000 0.45220  0.84260  0.19180  Biso   1.000  H
  C305     1.0000 0.36240  0.08570  0.53750  Biso   1.000  C
  C306     1.0000 0.63760  0.08570  0.96250  Biso   1.000  C
  C307     1.0000 0.86240  0.58570  0.53750  Biso   1.000  C
  C308     1.0000 0.13760  0.58570  0.96250  Biso   1.000  C
  C309     1.0000 0.63760  0.91430  0.46250  Biso   1.000  C
  C310     1.0000 0.36240  0.91430  0.03750  Biso   1.000  C
  C311     1.0000 0.13760  0.41430  0.46250  Biso   1.000  C
  C312     1.0000 0.86240  0.41430  0.03750  Biso   1.000  C
  H505     1.0000 0.35880  0.05270  0.51290  Biso   1.000  H
  H506     1.0000 0.64120  0.05270  0.98710  Biso   1.000  H
  H507     1.0000 0.85880  0.55270  0.51290  Biso   1.000  H
  H508     1.0000 0.14120  0.55270  0.98710  Biso   1.000  H
  H509     1.0000 0.64120  0.94730  0.48710  Biso   1.000  H
  H510     1.0000 0.35880  0.94730  0.01290  Biso   1.000  H
  H511     1.0000 0.14120  0.44730  0.48710  Biso   1.000  H
  H512     1.0000 0.85880  0.44730  0.01290  Biso   1.000  H
  C313     1.0000 0.29670  0.25940  0.55300  Biso   1.000  C
  C314     1.0000 0.70330  0.25940  0.94700  Biso   1.000  C
  C315     1.0000 0.79670  0.75940  0.55300  Biso   1.000  C
  C316     1.0000 0.20330  0.75940  0.94700  Biso   1.000  C
  C317     1.0000 0.70330  0.74060  0.44700  Biso   1.000  C
  C318     1.0000 0.29670  0.74060  0.05300  Biso   1.000  C
  C319     1.0000 0.20330  0.24060  0.44700  Biso   1.000  C
  C320     1.0000 0.79670  0.24060  0.05300  Biso   1.000  C
  H513     1.0000 0.31220  0.25360  0.53660  Biso   1.000  H
  H514     1.0000 0.68780  0.25360  0.96340  Biso   1.000  H
  H515     1.0000 0.81220  0.75360  0.53660  Biso   1.000  H
  H516     1.0000 0.18780  0.75360  0.96340  Biso   1.000  H
  H517     1.0000 0.68780  0.74640  0.46340  Biso   1.000  H
  H518     1.0000 0.31220  0.74640  0.03660  Biso   1.000  H
  H519     1.0000 0.18780  0.24640  0.46340  Biso   1.000  H
  H520     1.0000 0.81220  0.24640  0.03660  Biso   1.000  H
  H521     1.0000 0.28800  0.30370  0.54540  Biso   1.000  H
  H522     1.0000 0.71200  0.30370  0.95460  Biso   1.000  H
  H523     1.0000 0.78800  0.80370  0.54540  Biso   1.000  H
  H524     1.0000 0.21200  0.80370  0.95460  Biso   1.000  H
  H525     1.0000 0.71200  0.69630  0.45460  Biso   1.000  H
  H526     1.0000 0.28800  0.69630  0.04540  Biso   1.000  H
  H527     1.0000 0.21200  0.19630  0.45460  Biso   1.000  H
  H528     1.0000 0.78800  0.19630  0.04540  Biso   1.000  H
  H529     1.0000 0.30240  0.25880  0.58390  Biso   1.000  H
  H530     1.0000 0.69760  0.25880  0.91610  Biso   1.000  H
  H531     1.0000 0.80240  0.75880  0.58390  Biso   1.000  H
  H532     1.0000 0.19760  0.75880  0.91610  Biso   1.000  H
  H533     1.0000 0.69760  0.74120  0.41610  Biso   1.000  H
  H534     1.0000 0.30240  0.74120  0.08390  Biso   1.000  H
  H535     1.0000 0.19760  0.24120  0.41610  Biso   1.000  H
  H536     1.0000 0.80240  0.24120  0.08390  Biso   1.000  H
  C321     1.0000 0.38600  0.03550  0.19550  Biso   1.000  C
  C322     1.0000 0.61400  0.03550  0.30450  Biso   1.000  C
  C323     1.0000 0.88600  0.53550  0.19550  Biso   1.000  C
  C324     1.0000 0.11400  0.53550  0.30450  Biso   1.000  C
  C325     1.0000 0.61400  0.96450  0.80450  Biso   1.000  C
  C326     1.0000 0.38600  0.96450  0.69550  Biso   1.000  C
  C327     1.0000 0.11400  0.46450  0.80450  Biso   1.000  C
  C328     1.0000 0.88600  0.46450  0.69550  Biso   1.000  C
  H537     1.0000 0.39530  0.00790  0.21850  Biso   1.000  H
  H538     1.0000 0.60470  0.00790  0.28150  Biso   1.000  H
  H539     1.0000 0.89530  0.50790  0.21850  Biso   1.000  H
  H540     1.0000 0.10470  0.50790  0.28150  Biso   1.000  H
  H541     1.0000 0.60470  0.99210  0.78150  Biso   1.000  H
  H542     1.0000 0.39530  0.99210  0.71850  Biso   1.000  H
  H543     1.0000 0.10470  0.49210  0.78150  Biso   1.000  H
  H544     1.0000 0.89530  0.49210  0.71850  Biso   1.000  H
  H545     1.0000 0.39710  0.07510  0.18890  Biso   1.000  H
  H546     1.0000 0.60290  0.07510  0.31110  Biso   1.000  H
  H547     1.0000 0.89710  0.57510  0.18890  Biso   1.000  H
  H548     1.0000 0.10290  0.57510  0.31110  Biso   1.000  H
  H549     1.0000 0.60290  0.92490  0.81110  Biso   1.000  H
  H550     1.0000 0.39710  0.92490  0.68890  Biso   1.000  H
  H551     1.0000 0.10290  0.42490  0.81110  Biso   1.000  H
  H552     1.0000 0.89710  0.42490  0.68890  Biso   1.000  H
  H553     1.0000 0.38260  0.00680  0.16970  Biso   1.000  H
  H554     1.0000 0.61740  0.00680  0.33030  Biso   1.000  H
  H555     1.0000 0.88260  0.50680  0.16970  Biso   1.000  H
  H556     1.0000 0.11740  0.50680  0.33030  Biso   1.000  H
  H557     1.0000 0.61740  0.99320  0.83030  Biso   1.000  H
  H558     1.0000 0.38260  0.99320  0.66970  Biso   1.000  H
  H559     1.0000 0.11740  0.49320  0.83030  Biso   1.000  H
  H560     1.0000 0.88260  0.49320  0.66970  Biso   1.000  H
  C329     1.0000 0.15890  0.94490  0.13280  Biso   1.000  C
  C330     1.0000 0.84110  0.94490  0.36720  Biso   1.000  C
  C331     1.0000 0.65890  0.44490  0.13280  Biso   1.000  C
  C332     1.0000 0.34110  0.44490  0.36720  Biso   1.000  C
  C333     1.0000 0.84110  0.05510  0.86720  Biso   1.000  C
  C334     1.0000 0.15890  0.05510  0.63280  Biso   1.000  C
  C335     1.0000 0.34110  0.55510  0.86720  Biso   1.000  C
  C336     1.0000 0.65890  0.55510  0.63280  Biso   1.000  C
  H561     1.0000 0.15310  0.98260  0.14910  Biso   1.000  H
  H562     1.0000 0.84690  0.98260  0.35090  Biso   1.000  H
  H563     1.0000 0.65310  0.48260  0.14910  Biso   1.000  H
  H564     1.0000 0.34690  0.48260  0.35090  Biso   1.000  H
  H565     1.0000 0.84690  0.01740  0.85090  Biso   1.000  H
  H566     1.0000 0.15310  0.01740  0.64910  Biso   1.000  H
  H567     1.0000 0.34690  0.51740  0.85090  Biso   1.000  H
  H568     1.0000 0.65310  0.51740  0.64910  Biso   1.000  H
  C337     1.0000 0.17830  0.96750  0.44250  Biso   1.000  C
  C338     1.0000 0.82170  0.96750  0.05750  Biso   1.000  C
  C339     1.0000 0.67830  0.46750  0.44250  Biso   1.000  C
  C340     1.0000 0.32170  0.46750  0.05750  Biso   1.000  C
  C341     1.0000 0.82170  0.03250  0.55750  Biso   1.000  C
  C342     1.0000 0.17830  0.03250  0.94250  Biso   1.000  C
  C343     1.0000 0.32170  0.53250  0.55750  Biso   1.000  C
  C344     1.0000 0.67830  0.53250  0.94250  Biso   1.000  C
  H569     1.0000 0.17610  0.96240  0.47400  Biso   1.000  H
  H570     1.0000 0.82390  0.96240  0.02600  Biso   1.000  H
  H571     1.0000 0.67610  0.46240  0.47400  Biso   1.000  H
  H572     1.0000 0.32390  0.46240  0.02600  Biso   1.000  H
  H573     1.0000 0.82390  0.03760  0.52600  Biso   1.000  H
  H574     1.0000 0.17610  0.03760  0.97400  Biso   1.000  H
  H575     1.0000 0.32390  0.53760  0.52600  Biso   1.000  H
  H576     1.0000 0.67610  0.53760  0.97400  Biso   1.000  H
  C345     1.0000 0.10600  0.70930  0.71330  Biso   1.000  C
  C346     1.0000 0.89400  0.70930  0.78670  Biso   1.000  C
  C347     1.0000 0.60600  0.20930  0.71330  Biso   1.000  C
  C348     1.0000 0.39400  0.20930  0.78670  Biso   1.000  C
  C349     1.0000 0.89400  0.29070  0.28670  Biso   1.000  C
  C350     1.0000 0.10600  0.29070  0.21330  Biso   1.000  C
  C351     1.0000 0.39400  0.79070  0.28670  Biso   1.000  C
  C352     1.0000 0.60600  0.79070  0.21330  Biso   1.000  C
  H577     1.0000 0.11110  0.72350  0.74380  Biso   1.000  H
  H578     1.0000 0.88890  0.72350  0.75620  Biso   1.000  H
  H579     1.0000 0.61110  0.22350  0.74380  Biso   1.000  H
  H580     1.0000 0.38890  0.22350  0.75620  Biso   1.000  H
  H581     1.0000 0.88890  0.27650  0.25620  Biso   1.000  H
  H582     1.0000 0.11110  0.27650  0.24380  Biso   1.000  H
  H583     1.0000 0.38890  0.77650  0.25620  Biso   1.000  H
  H584     1.0000 0.61110  0.77650  0.24380  Biso   1.000  H
  C353     1.0000 0.10570  0.85980  0.92670  Biso   1.000  C
  C354     1.0000 0.89430  0.85980  0.57330  Biso   1.000  C
  C355     1.0000 0.60570  0.35980  0.92670  Biso   1.000  C
  C356     1.0000 0.39430  0.35980  0.57330  Biso   1.000  C
  C357     1.0000 0.89430  0.14020  0.07330  Biso   1.000  C
  C358     1.0000 0.10570  0.14020  0.42670  Biso   1.000  C
  C359     1.0000 0.39430  0.64020  0.07330  Biso   1.000  C
  C360     1.0000 0.60570  0.64020  0.42670  Biso   1.000  C
  H585     1.0000 0.11630  0.86710  0.95300  Biso   1.000  H
  H586     1.0000 0.88370  0.86710  0.54700  Biso   1.000  H
  H587     1.0000 0.61630  0.36710  0.95300  Biso   1.000  H
  H588     1.0000 0.38370  0.36710  0.54700  Biso   1.000  H
  H589     1.0000 0.88370  0.13290  0.04700  Biso   1.000  H
  H590     1.0000 0.11630  0.13290  0.45300  Biso   1.000  H
  H591     1.0000 0.38370  0.63290  0.04700  Biso   1.000  H
  H592     1.0000 0.61630  0.63290  0.45300  Biso   1.000  H
  C361     1.0000 0.95870  0.54840  0.59510  Biso   1.000  C
  C362     1.0000 0.04130  0.54840  0.90490  Biso   1.000  C
  C363     1.0000 0.45870  0.04840  0.59510  Biso   1.000  C
  C364     1.0000 0.54130  0.04840  0.90490  Biso   1.000  C
  C365     1.0000 0.04130  0.45160  0.40490  Biso   1.000  C
  C366     1.0000 0.95870  0.45160  0.09510  Biso   1.000  C
  C367     1.0000 0.54130  0.95160  0.40490  Biso   1.000  C
  C368     1.0000 0.45870  0.95160  0.09510  Biso   1.000  C
  H593     1.0000 0.96070  0.51990  0.57080  Biso   1.000  H
  H594     1.0000 0.03930  0.51990  0.92920  Biso   1.000  H
  H595     1.0000 0.46070  0.01990  0.57080  Biso   1.000  H
  H596     1.0000 0.53930  0.01990  0.92920  Biso   1.000  H
  H597     1.0000 0.03930  0.48010  0.42920  Biso   1.000  H
  H598     1.0000 0.96070  0.48010  0.07080  Biso   1.000  H
  H599     1.0000 0.53930  0.98010  0.42920  Biso   1.000  H
  H600     1.0000 0.46070  0.98010  0.07080  Biso   1.000  H
  C369     1.0000 0.15280  0.87370  0.06740  Biso   1.000  C
  C370     1.0000 0.84720  0.87370  0.43260  Biso   1.000  C
  C371     1.0000 0.65280  0.37370  0.06740  Biso   1.000  C
  C372     1.0000 0.34720  0.37370  0.43260  Biso   1.000  C
  C373     1.0000 0.84720  0.12630  0.93260  Biso   1.000  C
  C374     1.0000 0.15280  0.12630  0.56740  Biso   1.000  C
  C375     1.0000 0.34720  0.62630  0.93260  Biso   1.000  C
  C376     1.0000 0.65280  0.62630  0.56740  Biso   1.000  C
  H601     1.0000 0.14380  0.86550  0.03980  Biso   1.000  H
  H602     1.0000 0.85620  0.86550  0.46020  Biso   1.000  H
  H603     1.0000 0.64380  0.36550  0.03980  Biso   1.000  H
  H604     1.0000 0.35620  0.36550  0.46020  Biso   1.000  H
  H605     1.0000 0.85620  0.13450  0.96020  Biso   1.000  H
  H606     1.0000 0.14380  0.13450  0.53980  Biso   1.000  H
  H607     1.0000 0.35620  0.63450  0.96020  Biso   1.000  H
  H608     1.0000 0.64380  0.63450  0.53980  Biso   1.000  H
  C377     1.0000 0.12180  0.01980  0.28730  Biso   1.000  C
  C378     1.0000 0.87820  0.01980  0.21270  Biso   1.000  C
  C379     1.0000 0.62180  0.51980  0.28730  Biso   1.000  C
  C380     1.0000 0.37820  0.51980  0.21270  Biso   1.000  C
  C381     1.0000 0.87820  0.98020  0.71270  Biso   1.000  C
  C382     1.0000 0.12180  0.98020  0.78730  Biso   1.000  C
  C383     1.0000 0.37820  0.48020  0.71270  Biso   1.000  C
  C384     1.0000 0.62180  0.48020  0.78730  Biso   1.000  C
  H609     1.0000 0.11810  0.97390  0.27480  Biso   1.000  H
  H610     1.0000 0.88190  0.97390  0.22520  Biso   1.000  H
  H611     1.0000 0.61810  0.47390  0.27480  Biso   1.000  H
  H612     1.0000 0.38190  0.47390  0.22520  Biso   1.000  H
  H613     1.0000 0.88190  0.02610  0.72520  Biso   1.000  H
  H614     1.0000 0.11810  0.02610  0.77480  Biso   1.000  H
  H615     1.0000 0.38190  0.52610  0.72520  Biso   1.000  H
  H616     1.0000 0.61810  0.52610  0.77480  Biso   1.000  H
  H617     1.0000 0.10760  0.05190  0.27700  Biso   1.000  H
  H618     1.0000 0.89240  0.05190  0.22300  Biso   1.000  H
  H619     1.0000 0.60760  0.55190  0.27700  Biso   1.000  H
  H620     1.0000 0.39240  0.55190  0.22300  Biso   1.000  H
  H621     1.0000 0.89240  0.94810  0.72300  Biso   1.000  H
  H622     1.0000 0.10760  0.94810  0.77700  Biso   1.000  H
  H623     1.0000 0.39240  0.44810  0.72300  Biso   1.000  H
  H624     1.0000 0.60760  0.44810  0.77700  Biso   1.000  H
  H625     1.0000 0.12270  0.01670  0.31870  Biso   1.000  H
  H626     1.0000 0.87730  0.01670  0.18130  Biso   1.000  H
  H627     1.0000 0.62270  0.51670  0.31870  Biso   1.000  H
  H628     1.0000 0.37730  0.51670  0.18130  Biso   1.000  H
  H629     1.0000 0.87730  0.98330  0.68130  Biso   1.000  H
  H630     1.0000 0.12270  0.98330  0.81870  Biso   1.000  H
  H631     1.0000 0.37730  0.48330  0.68130  Biso   1.000  H
  H632     1.0000 0.62270  0.48330  0.81870  Biso   1.000  H
  C385     1.0000 0.15520  0.93350  0.41620  Biso   1.000  C
  C386     1.0000 0.84480  0.93350  0.08380  Biso   1.000  C
  C387     1.0000 0.65520  0.43350  0.41620  Biso   1.000  C
  C388     1.0000 0.34480  0.43350  0.08380  Biso   1.000  C
  C389     1.0000 0.84480  0.06650  0.58380  Biso   1.000  C
  C390     1.0000 0.15520  0.06650  0.91620  Biso   1.000  C
  C391     1.0000 0.34480  0.56650  0.58380  Biso   1.000  C
  C392     1.0000 0.65520  0.56650  0.91620  Biso   1.000  C
  H633     1.0000 0.15420  0.88460  0.42420  Biso   1.000  H
  H634     1.0000 0.84580  0.88460  0.07580  Biso   1.000  H
  H635     1.0000 0.65420  0.38460  0.42420  Biso   1.000  H
  H636     1.0000 0.34580  0.38460  0.07580  Biso   1.000  H
  H637     1.0000 0.84580  0.11540  0.57580  Biso   1.000  H
  H638     1.0000 0.15420  0.11540  0.92420  Biso   1.000  H
  H639     1.0000 0.34580  0.61540  0.57580  Biso   1.000  H
  H640     1.0000 0.65420  0.61540  0.92420  Biso   1.000  H
  H641     1.0000 0.13850  0.95680  0.42190  Biso   1.000  H
  H642     1.0000 0.86150  0.95680  0.07810  Biso   1.000  H
  H643     1.0000 0.63850  0.45680  0.42190  Biso   1.000  H
  H644     1.0000 0.36150  0.45680  0.07810  Biso   1.000  H
  H645     1.0000 0.86150  0.04320  0.57810  Biso   1.000  H
  H646     1.0000 0.13850  0.04320  0.92190  Biso   1.000  H
  H647     1.0000 0.36150  0.54320  0.57810  Biso   1.000  H
  H648     1.0000 0.63850  0.54320  0.92190  Biso   1.000  H
  H649     1.0000 0.15780  0.93720  0.38550  Biso   1.000  H
  H650     1.0000 0.84220  0.93720  0.11450  Biso   1.000  H
  H651     1.0000 0.65780  0.43720  0.38550  Biso   1.000  H
  H652     1.0000 0.34220  0.43720  0.11450  Biso   1.000  H
  H653     1.0000 0.84220  0.06280  0.61450  Biso   1.000  H
  H654     1.0000 0.15780  0.06280  0.88550  Biso   1.000  H
  H655     1.0000 0.34220  0.56280  0.61450  Biso   1.000  H
  H656     1.0000 0.65780  0.56280  0.88550  Biso   1.000  H
  C393     1.0000 0.95570  0.51690  0.63630  Biso   1.000  C
  C394     1.0000 0.04430  0.51690  0.86370  Biso   1.000  C
  C395     1.0000 0.45570  0.01690  0.63630  Biso   1.000  C
  C396     1.0000 0.54430  0.01690  0.86370  Biso   1.000  C
  C397     1.0000 0.04430  0.48310  0.36370  Biso   1.000  C
  C398     1.0000 0.95570  0.48310  0.13630  Biso   1.000  C
  C399     1.0000 0.54430  0.98310  0.36370  Biso   1.000  C
  C400     1.0000 0.45570  0.98310  0.13630  Biso   1.000  C
  H657     1.0000 0.95520  0.46800  0.63910  Biso   1.000  H
  H658     1.0000 0.04480  0.46800  0.86090  Biso   1.000  H
  H659     1.0000 0.45520  0.96800  0.63910  Biso   1.000  H
  H660     1.0000 0.54480  0.96800  0.86090  Biso   1.000  H
  H661     1.0000 0.04480  0.53200  0.36090  Biso   1.000  H
  H662     1.0000 0.95520  0.53200  0.13910  Biso   1.000  H
  H663     1.0000 0.54480  0.03200  0.36090  Biso   1.000  H
  H664     1.0000 0.45520  0.03200  0.13910  Biso   1.000  H
  C401     1.0000 0.21845  0.69030  0.41320  Biso   1.000  C
  C402     1.0000 0.78155  0.69030  0.08680  Biso   1.000  C
  C403     1.0000 0.71845  0.19030  0.41320  Biso   1.000  C
  C404     1.0000 0.28155  0.19030  0.08680  Biso   1.000  C
  C405     1.0000 0.78155  0.30970  0.58680  Biso   1.000  C
  C406     1.0000 0.21845  0.30970  0.91320  Biso   1.000  C
  C407     1.0000 0.28155  0.80970  0.58680  Biso   1.000  C
  C408     1.0000 0.71845  0.80970  0.91320  Biso   1.000  C
  H665     1.0000 0.23510  0.70940  0.40410  Biso   1.000  H
  H666     1.0000 0.76490  0.70940  0.09590  Biso   1.000  H
  H667     1.0000 0.73510  0.20940  0.40410  Biso   1.000  H
  H668     1.0000 0.26490  0.20940  0.09590  Biso   1.000  H
  H669     1.0000 0.76490  0.29060  0.59590  Biso   1.000  H
  H670     1.0000 0.23510  0.29060  0.90410  Biso   1.000  H
  H671     1.0000 0.26490  0.79060  0.59590  Biso   1.000  H
  H672     1.0000 0.73510  0.79060  0.90410  Biso   1.000  H
  H673     1.0000 0.22150  0.64270  0.42320  Biso   1.000  H
  H674     1.0000 0.77850  0.64270  0.07680  Biso   1.000  H
  H675     1.0000 0.72150  0.14270  0.42320  Biso   1.000  H
  H676     1.0000 0.27850  0.14270  0.07680  Biso   1.000  H
  H677     1.0000 0.77850  0.35730  0.57680  Biso   1.000  H
  H678     1.0000 0.22150  0.35730  0.92320  Biso   1.000  H
  H679     1.0000 0.27850  0.85730  0.57680  Biso   1.000  H
  H680     1.0000 0.72150  0.85730  0.92320  Biso   1.000  H
  H681     1.0000 0.20480  0.69070  0.38880  Biso   1.000  H
  H682     1.0000 0.79520  0.69070  0.11120  Biso   1.000  H
  H683     1.0000 0.70480  0.19070  0.38880  Biso   1.000  H
  H684     1.0000 0.29520  0.19070  0.11120  Biso   1.000  H
  H685     1.0000 0.79520  0.30930  0.61120  Biso   1.000  H
  H686     1.0000 0.20480  0.30930  0.88880  Biso   1.000  H
  H687     1.0000 0.29520  0.80930  0.61120  Biso   1.000  H
  H688     1.0000 0.70480  0.80930  0.88880  Biso   1.000  H
  C409     1.0000 0.20680  0.91110  0.62290  Biso   1.000  C
  C410     1.0000 0.79320  0.91110  0.87710  Biso   1.000  C
  C411     1.0000 0.70680  0.41110  0.62290  Biso   1.000  C
  C412     1.0000 0.29320  0.41110  0.87710  Biso   1.000  C
  C413     1.0000 0.79320  0.08890  0.37710  Biso   1.000  C
  C414     1.0000 0.20680  0.08890  0.12290  Biso   1.000  C
  C415     1.0000 0.29320  0.58890  0.37710  Biso   1.000  C
  C416     1.0000 0.70680  0.58890  0.12290  Biso   1.000  C
  H689     1.0000 0.20880  0.95980  0.62130  Biso   1.000  H
  H690     1.0000 0.79120  0.95980  0.87870  Biso   1.000  H
  H691     1.0000 0.70880  0.45980  0.62130  Biso   1.000  H
  H692     1.0000 0.29120  0.45980  0.87870  Biso   1.000  H
  H693     1.0000 0.79120  0.04020  0.37870  Biso   1.000  H
  H694     1.0000 0.20880  0.04020  0.12130  Biso   1.000  H
  H695     1.0000 0.29120  0.54020  0.37870  Biso   1.000  H
  H696     1.0000 0.70880  0.54020  0.12130  Biso   1.000  H
  C417     1.0000 0.08240  0.92000  0.66870  Biso   1.000  C
  C418     1.0000 0.91760  0.92000  0.83130  Biso   1.000  C
  C419     1.0000 0.58240  0.42000  0.66870  Biso   1.000  C
  C420     1.0000 0.41760  0.42000  0.83130  Biso   1.000  C
  C421     1.0000 0.91760  0.08000  0.33130  Biso   1.000  C
  C422     1.0000 0.08240  0.08000  0.16870  Biso   1.000  C
  C423     1.0000 0.41760  0.58000  0.33130  Biso   1.000  C
  C424     1.0000 0.58240  0.58000  0.16870  Biso   1.000  C
  H697     1.0000 0.09660  0.88570  0.67390  Biso   1.000  H
  H698     1.0000 0.90340  0.88570  0.82610  Biso   1.000  H
  H699     1.0000 0.59660  0.38570  0.67390  Biso   1.000  H
  H700     1.0000 0.40340  0.38570  0.82610  Biso   1.000  H
  H701     1.0000 0.90340  0.11430  0.32610  Biso   1.000  H
  H702     1.0000 0.09660  0.11430  0.17390  Biso   1.000  H
  H703     1.0000 0.40340  0.61430  0.32610  Biso   1.000  H
  H704     1.0000 0.59660  0.61430  0.17390  Biso   1.000  H
  H705     1.0000 0.09010  0.96660  0.66980  Biso   1.000  H
  H706     1.0000 0.90990  0.96660  0.83020  Biso   1.000  H
  H707     1.0000 0.59010  0.46660  0.66980  Biso   1.000  H
  H708     1.0000 0.40990  0.46660  0.83020  Biso   1.000  H
  H709     1.0000 0.90990  0.03340  0.33020  Biso   1.000  H
  H710     1.0000 0.09010  0.03340  0.16980  Biso   1.000  H
  H711     1.0000 0.40990  0.53340  0.33020  Biso   1.000  H
  H712     1.0000 0.59010  0.53340  0.16980  Biso   1.000  H
  H713     1.0000 0.07300  0.91220  0.64030  Biso   1.000  H
  H714     1.0000 0.92700  0.91220  0.85970  Biso   1.000  H
  H715     1.0000 0.57300  0.41220  0.64030  Biso   1.000  H
  H716     1.0000 0.42700  0.41220  0.85970  Biso   1.000  H
  H717     1.0000 0.92700  0.08780  0.35970  Biso   1.000  H
  H718     1.0000 0.07300  0.08780  0.14030  Biso   1.000  H
  H719     1.0000 0.42700  0.58780  0.35970  Biso   1.000  H
  H720     1.0000 0.57300  0.58780  0.14030  Biso   1.000  H
  C425     1.0000 0.17400  0.83220  0.08190  Biso   1.000  C
  C426     1.0000 0.82600  0.83220  0.41810  Biso   1.000  C
  C427     1.0000 0.67400  0.33220  0.08190  Biso   1.000  C
  C428     1.0000 0.32600  0.33220  0.41810  Biso   1.000  C
  C429     1.0000 0.82600  0.16780  0.91810  Biso   1.000  C
  C430     1.0000 0.17400  0.16780  0.58190  Biso   1.000  C
  C431     1.0000 0.32600  0.66780  0.91810  Biso   1.000  C
  C432     1.0000 0.67400  0.66780  0.58190  Biso   1.000  C
  H721     1.0000 0.17840  0.79240  0.06620  Biso   1.000  H
  H722     1.0000 0.82160  0.79240  0.43380  Biso   1.000  H
  H723     1.0000 0.67840  0.29240  0.06620  Biso   1.000  H
  H724     1.0000 0.32160  0.29240  0.43380  Biso   1.000  H
  H725     1.0000 0.82160  0.20760  0.93380  Biso   1.000  H
  H726     1.0000 0.17840  0.20760  0.56620  Biso   1.000  H
  H727     1.0000 0.32160  0.70760  0.93380  Biso   1.000  H
  H728     1.0000 0.67840  0.70760  0.56620  Biso   1.000  H
  C433     1.0000 0.10030  0.87790  0.18420  Biso   1.000  C
  C434     1.0000 0.89970  0.87790  0.31580  Biso   1.000  C
  C435     1.0000 0.60030  0.37790  0.18420  Biso   1.000  C
  C436     1.0000 0.39970  0.37790  0.31580  Biso   1.000  C
  C437     1.0000 0.89970  0.12210  0.81580  Biso   1.000  C
  C438     1.0000 0.10030  0.12210  0.68420  Biso   1.000  C
  C439     1.0000 0.39970  0.62210  0.81580  Biso   1.000  C
  C440     1.0000 0.60030  0.62210  0.68420  Biso   1.000  C
  H729     1.0000 0.08210  0.89540  0.18500  Biso   1.000  H
  H730     1.0000 0.91790  0.89540  0.31500  Biso   1.000  H
  H731     1.0000 0.58210  0.39540  0.18500  Biso   1.000  H
  H732     1.0000 0.41790  0.39540  0.31500  Biso   1.000  H
  H733     1.0000 0.91790  0.10460  0.81500  Biso   1.000  H
  H734     1.0000 0.08210  0.10460  0.68500  Biso   1.000  H
  H735     1.0000 0.41790  0.60460  0.81500  Biso   1.000  H
  H736     1.0000 0.58210  0.60460  0.68500  Biso   1.000  H
  H737     1.0000 0.10350  0.86680  0.15440  Biso   1.000  H
  H738     1.0000 0.89650  0.86680  0.34560  Biso   1.000  H
  H739     1.0000 0.60350  0.36680  0.15440  Biso   1.000  H
  H740     1.0000 0.39650  0.36680  0.34560  Biso   1.000  H
  H741     1.0000 0.89650  0.13320  0.84560  Biso   1.000  H
  H742     1.0000 0.10350  0.13320  0.65440  Biso   1.000  H
  H743     1.0000 0.39650  0.63320  0.84560  Biso   1.000  H
  H744     1.0000 0.60350  0.63320  0.65440  Biso   1.000  H
  H745     1.0000 0.11300  0.91340  0.19540  Biso   1.000  H
  H746     1.0000 0.88700  0.91340  0.30460  Biso   1.000  H
  H747     1.0000 0.61300  0.41340  0.19540  Biso   1.000  H
  H748     1.0000 0.38700  0.41340  0.30460  Biso   1.000  H
  H749     1.0000 0.88700  0.08660  0.80460  Biso   1.000  H
  H750     1.0000 0.11300  0.08660  0.69540  Biso   1.000  H
  H751     1.0000 0.38700  0.58660  0.80460  Biso   1.000  H
  H752     1.0000 0.61300  0.58660  0.69540  Biso   1.000  H
  C441     1.0000 0.06630  0.88310  0.87830  Biso   1.000  C
  C442     1.0000 0.93370  0.88310  0.62170  Biso   1.000  C
  C443     1.0000 0.56630  0.38310  0.87830  Biso   1.000  C
  C444     1.0000 0.43370  0.38310  0.62170  Biso   1.000  C
  C445     1.0000 0.93370  0.11690  0.12170  Biso   1.000  C
  C446     1.0000 0.06630  0.11690  0.37830  Biso   1.000  C
  C447     1.0000 0.43370  0.61690  0.12170  Biso   1.000  C
  C448     1.0000 0.56630  0.61690  0.37830  Biso   1.000  C
  H753     1.0000 0.04990  0.90720  0.87280  Biso   1.000  H
  H754     1.0000 0.95010  0.90720  0.62720  Biso   1.000  H
  H755     1.0000 0.54990  0.40720  0.87280  Biso   1.000  H
  H756     1.0000 0.45010  0.40720  0.62720  Biso   1.000  H
  H757     1.0000 0.95010  0.09280  0.12720  Biso   1.000  H
  H758     1.0000 0.04990  0.09280  0.37280  Biso   1.000  H
  H759     1.0000 0.45010  0.59280  0.12720  Biso   1.000  H
  H760     1.0000 0.54990  0.59280  0.37280  Biso   1.000  H
  C449     1.0000 0.11370  0.81330  0.89760  Biso   1.000  C
  C450     1.0000 0.88630  0.81330  0.60240  Biso   1.000  C
  C451     1.0000 0.61370  0.31330  0.89760  Biso   1.000  C
  C452     1.0000 0.38630  0.31330  0.60240  Biso   1.000  C
  C453     1.0000 0.88630  0.18670  0.10240  Biso   1.000  C
  C454     1.0000 0.11370  0.18670  0.39760  Biso   1.000  C
  C455     1.0000 0.38630  0.68670  0.10240  Biso   1.000  C
  C456     1.0000 0.61370  0.68670  0.39760  Biso   1.000  C
  H761     1.0000 0.12980  0.78830  0.90400  Biso   1.000  H
  H762     1.0000 0.87020  0.78830  0.59600  Biso   1.000  H
  H763     1.0000 0.62980  0.28830  0.90400  Biso   1.000  H
  H764     1.0000 0.37020  0.28830  0.59600  Biso   1.000  H
  H765     1.0000 0.87020  0.21170  0.09600  Biso   1.000  H
  H766     1.0000 0.12980  0.21170  0.40400  Biso   1.000  H
  H767     1.0000 0.37020  0.71170  0.09600  Biso   1.000  H
  H768     1.0000 0.62980  0.71170  0.40400  Biso   1.000  H
  C457     1.0000 0.14470  0.92600  0.09210  Biso   1.000  C
  C458     1.0000 0.85530  0.92600  0.40790  Biso   1.000  C
  C459     1.0000 0.64470  0.42600  0.09210  Biso   1.000  C
  C460     1.0000 0.35530  0.42600  0.40790  Biso   1.000  C
  C461     1.0000 0.85530  0.07400  0.90790  Biso   1.000  C
  C462     1.0000 0.14470  0.07400  0.59210  Biso   1.000  C
  C463     1.0000 0.35530  0.57400  0.90790  Biso   1.000  C
  C464     1.0000 0.64470  0.57400  0.59210  Biso   1.000  C
  H769     1.0000 0.12920  0.95120  0.08230  Biso   1.000  H
  H770     1.0000 0.87080  0.95120  0.41770  Biso   1.000  H
  H771     1.0000 0.62920  0.45120  0.08230  Biso   1.000  H
  H772     1.0000 0.37080  0.45120  0.41770  Biso   1.000  H
  H773     1.0000 0.87080  0.04880  0.91770  Biso   1.000  H
  H774     1.0000 0.12920  0.04880  0.58230  Biso   1.000  H
  H775     1.0000 0.37080  0.54880  0.91770  Biso   1.000  H
  H776     1.0000 0.62920  0.54880  0.58230  Biso   1.000  H
  C465     1.0000 0.07400  0.83670  0.84800  Biso   1.000  C
  C466     1.0000 0.92600  0.83670  0.65200  Biso   1.000  C
  C467     1.0000 0.57400  0.33670  0.84800  Biso   1.000  C
  C468     1.0000 0.42600  0.33670  0.65200  Biso   1.000  C
  C469     1.0000 0.92600  0.16330  0.15200  Biso   1.000  C
  C470     1.0000 0.07400  0.16330  0.34800  Biso   1.000  C
  C471     1.0000 0.42600  0.66330  0.15200  Biso   1.000  C
  C472     1.0000 0.57400  0.66330  0.34800  Biso   1.000  C
  C473     1.0000 0.14850  0.04620  0.27350  Biso   1.000  C
  C474     1.0000 0.85150  0.04620  0.22650  Biso   1.000  C
  C475     1.0000 0.64850  0.54620  0.27350  Biso   1.000  C
  C476     1.0000 0.35150  0.54620  0.22650  Biso   1.000  C
  C477     1.0000 0.85150  0.95380  0.72650  Biso   1.000  C
  C478     1.0000 0.14850  0.95380  0.77350  Biso   1.000  C
  C479     1.0000 0.35150  0.45380  0.72650  Biso   1.000  C
  C480     1.0000 0.64850  0.45380  0.77350  Biso   1.000  C
  H777     1.0000 0.14870  0.05380  0.24180  Biso   1.000  H
  H778     1.0000 0.85130  0.05380  0.25820  Biso   1.000  H
  H779     1.0000 0.64870  0.55380  0.24180  Biso   1.000  H
  H780     1.0000 0.35130  0.55380  0.25820  Biso   1.000  H
  H781     1.0000 0.85130  0.94620  0.75820  Biso   1.000  H
  H782     1.0000 0.14870  0.94620  0.74180  Biso   1.000  H
  H783     1.0000 0.35130  0.44620  0.75820  Biso   1.000  H
  H784     1.0000 0.64870  0.44620  0.74180  Biso   1.000  H
  C481     1.0000 0.95350  0.55860  0.67140  Biso   1.000  C
  C482     1.0000 0.04650  0.55860  0.82860  Biso   1.000  C
  C483     1.0000 0.45350  0.05860  0.67140  Biso   1.000  C
  C484     1.0000 0.54650  0.05860  0.82860  Biso   1.000  C
  C485     1.0000 0.04650  0.44140  0.32860  Biso   1.000  C
  C486     1.0000 0.95350  0.44140  0.17140  Biso   1.000  C
  C487     1.0000 0.54650  0.94140  0.32860  Biso   1.000  C
  C488     1.0000 0.45350  0.94140  0.17140  Biso   1.000  C
  H785     1.0000 0.95210  0.53840  0.69890  Biso   1.000  H
  H786     1.0000 0.04790  0.53840  0.80110  Biso   1.000  H
  H787     1.0000 0.45210  0.03840  0.69890  Biso   1.000  H
  H788     1.0000 0.54790  0.03840  0.80110  Biso   1.000  H
  H789     1.0000 0.04790  0.46160  0.30110  Biso   1.000  H
  H790     1.0000 0.95210  0.46160  0.19890  Biso   1.000  H
  H791     1.0000 0.54790  0.96160  0.30110  Biso   1.000  H
  H792     1.0000 0.45210  0.96160  0.19890  Biso   1.000  H
  C489     1.0000 0.29530  0.79050  0.20100  Biso   1.000  C
  C490     1.0000 0.70470  0.79050  0.29900  Biso   1.000  C
  C491     1.0000 0.79530  0.29050  0.20100  Biso   1.000  C
  C492     1.0000 0.20470  0.29050  0.29900  Biso   1.000  C
  C493     1.0000 0.70470  0.20950  0.79900  Biso   1.000  C
  C494     1.0000 0.29530  0.20950  0.70100  Biso   1.000  C
  C495     1.0000 0.20470  0.70950  0.79900  Biso   1.000  C
  C496     1.0000 0.79530  0.70950  0.70100  Biso   1.000  C
  H793     1.0000 0.28280  0.80040  0.22260  Biso   1.000  H
  H794     1.0000 0.71720  0.80040  0.27740  Biso   1.000  H
  H795     1.0000 0.78280  0.30040  0.22260  Biso   1.000  H
  H796     1.0000 0.21720  0.30040  0.27740  Biso   1.000  H
  H797     1.0000 0.71720  0.19960  0.77740  Biso   1.000  H
  H798     1.0000 0.28280  0.19960  0.72260  Biso   1.000  H
  H799     1.0000 0.21720  0.69960  0.77740  Biso   1.000  H
  H800     1.0000 0.78280  0.69960  0.72260  Biso   1.000  H
  H801     1.0000 0.30340  0.74500  0.20660  Biso   1.000  H
  H802     1.0000 0.69660  0.74500  0.29340  Biso   1.000  H
  H803     1.0000 0.80340  0.24500  0.20660  Biso   1.000  H
  H804     1.0000 0.19660  0.24500  0.29340  Biso   1.000  H
  H805     1.0000 0.69660  0.25500  0.79340  Biso   1.000  H
  H806     1.0000 0.30340  0.25500  0.70660  Biso   1.000  H
  H807     1.0000 0.19660  0.75500  0.79340  Biso   1.000  H
  H808     1.0000 0.80340  0.75500  0.70660  Biso   1.000  H
  H809     1.0000 0.28570  0.79070  0.17220  Biso   1.000  H
  H810     1.0000 0.71430  0.79070  0.32780  Biso   1.000  H
  H811     1.0000 0.78570  0.29070  0.17220  Biso   1.000  H
  H812     1.0000 0.21430  0.29070  0.32780  Biso   1.000  H
  H813     1.0000 0.71430  0.20930  0.82780  Biso   1.000  H
  H814     1.0000 0.28570  0.20930  0.67220  Biso   1.000  H
  H815     1.0000 0.21430  0.70930  0.82780  Biso   1.000  H
  H816     1.0000 0.78570  0.70930  0.67220  Biso   1.000  H
  C497     1.0000 0.18050  0.04310  0.43120  Biso   1.000  C
  C498     1.0000 0.81950  0.04310  0.06880  Biso   1.000  C
  C499     1.0000 0.68050  0.54310  0.43120  Biso   1.000  C
  C500     1.0000 0.31950  0.54310  0.06880  Biso   1.000  C
  C501     1.0000 0.81950  0.95690  0.56880  Biso   1.000  C
  C502     1.0000 0.18050  0.95690  0.93120  Biso   1.000  C
  C503     1.0000 0.31950  0.45690  0.56880  Biso   1.000  C
  C504     1.0000 0.68050  0.45690  0.93120  Biso   1.000  C
  H817     1.0000 0.19530  0.06400  0.44900  Biso   1.000  H
  H818     1.0000 0.80470  0.06400  0.05100  Biso   1.000  H
  H819     1.0000 0.69530  0.56400  0.44900  Biso   1.000  H
  H820     1.0000 0.30470  0.56400  0.05100  Biso   1.000  H
  H821     1.0000 0.80470  0.93600  0.55100  Biso   1.000  H
  H822     1.0000 0.19530  0.93600  0.94900  Biso   1.000  H
  H823     1.0000 0.30470  0.43600  0.55100  Biso   1.000  H
  H824     1.0000 0.69530  0.43600  0.94900  Biso   1.000  H
  H825     1.0000 0.18360  0.04760  0.40070  Biso   1.000  H
  H826     1.0000 0.81640  0.04760  0.09930  Biso   1.000  H
  H827     1.0000 0.68360  0.54760  0.40070  Biso   1.000  H
  H828     1.0000 0.31640  0.54760  0.09930  Biso   1.000  H
  H829     1.0000 0.81640  0.95240  0.59930  Biso   1.000  H
  H830     1.0000 0.18360  0.95240  0.90070  Biso   1.000  H
  H831     1.0000 0.31640  0.45240  0.59930  Biso   1.000  H
  H832     1.0000 0.68360  0.45240  0.90070  Biso   1.000  H
  H833     1.0000 0.16390  0.06680  0.43650  Biso   1.000  H
  H834     1.0000 0.83610  0.06680  0.06350  Biso   1.000  H
  H835     1.0000 0.66390  0.56680  0.43650  Biso   1.000  H
  H836     1.0000 0.33610  0.56680  0.06350  Biso   1.000  H
  H837     1.0000 0.83610  0.93320  0.56350  Biso   1.000  H
  H838     1.0000 0.16390  0.93320  0.93650  Biso   1.000  H
  H839     1.0000 0.33610  0.43320  0.56350  Biso   1.000  H
  H840     1.0000 0.66390  0.43320  0.93650  Biso   1.000  H
  C505     1.0000 0.09860  0.80170  0.85830  Biso   1.000  C
  C506     1.0000 0.90140  0.80170  0.64170  Biso   1.000  C
  C507     1.0000 0.59860  0.30170  0.85830  Biso   1.000  C
  C508     1.0000 0.40140  0.30170  0.64170  Biso   1.000  C
  C509     1.0000 0.90140  0.19830  0.14170  Biso   1.000  C
  C510     1.0000 0.09860  0.19830  0.35830  Biso   1.000  C
  C511     1.0000 0.40140  0.69830  0.14170  Biso   1.000  C
  C512     1.0000 0.59860  0.69830  0.35830  Biso   1.000  C
  H841     1.0000 0.10480  0.76990  0.83830  Biso   1.000  H
  H842     1.0000 0.89520  0.76990  0.66170  Biso   1.000  H
  H843     1.0000 0.60480  0.26990  0.83830  Biso   1.000  H
  H844     1.0000 0.39520  0.26990  0.66170  Biso   1.000  H
  H845     1.0000 0.89520  0.23010  0.16170  Biso   1.000  H
  H846     1.0000 0.10480  0.23010  0.33830  Biso   1.000  H
  H847     1.0000 0.39520  0.73010  0.16170  Biso   1.000  H
  H848     1.0000 0.60480  0.73010  0.33830  Biso   1.000  H
  C513     1.0000 0.15570  0.10910  0.30030  Biso   1.000  C
  C514     1.0000 0.84430  0.10910  0.19970  Biso   1.000  C
  C515     1.0000 0.65570  0.60910  0.30030  Biso   1.000  C
  C516     1.0000 0.34430  0.60910  0.19970  Biso   1.000  C
  C517     1.0000 0.84430  0.89090  0.69970  Biso   1.000  C
  C518     1.0000 0.15570  0.89090  0.80030  Biso   1.000  C
  C519     1.0000 0.34430  0.39090  0.69970  Biso   1.000  C
  C520     1.0000 0.65570  0.39090  0.80030  Biso   1.000  C
  H849     1.0000 0.17270  0.12770  0.29260  Biso   1.000  H
  H850     1.0000 0.82730  0.12770  0.20740  Biso   1.000  H
  H851     1.0000 0.67270  0.62770  0.29260  Biso   1.000  H
  H852     1.0000 0.32730  0.62770  0.20740  Biso   1.000  H
  H853     1.0000 0.82730  0.87230  0.70740  Biso   1.000  H
  H854     1.0000 0.17270  0.87230  0.79260  Biso   1.000  H
  H855     1.0000 0.32730  0.37230  0.70740  Biso   1.000  H
  H856     1.0000 0.67270  0.37230  0.79260  Biso   1.000  H
  H857     1.0000 0.15720  0.09640  0.33090  Biso   1.000  H
  H858     1.0000 0.84280  0.09640  0.16910  Biso   1.000  H
  H859     1.0000 0.65720  0.59640  0.33090  Biso   1.000  H
  H860     1.0000 0.34280  0.59640  0.16910  Biso   1.000  H
  H861     1.0000 0.84280  0.90360  0.66910  Biso   1.000  H
  H862     1.0000 0.15720  0.90360  0.83090  Biso   1.000  H
  H863     1.0000 0.34280  0.40360  0.66910  Biso   1.000  H
  H864     1.0000 0.65720  0.40360  0.83090  Biso   1.000  H
  H865     1.0000 0.14170  0.14420  0.29500  Biso   1.000  H
  H866     1.0000 0.85830  0.14420  0.20500  Biso   1.000  H
  H867     1.0000 0.64170  0.64420  0.29500  Biso   1.000  H
  H868     1.0000 0.35830  0.64420  0.20500  Biso   1.000  H
  H869     1.0000 0.85830  0.85580  0.70500  Biso   1.000  H
  H870     1.0000 0.14170  0.85580  0.79500  Biso   1.000  H
  H871     1.0000 0.35830  0.35580  0.70500  Biso   1.000  H
  H872     1.0000 0.64170  0.35580  0.79500  Biso   1.000  H
  C521     1.0000 0.09990  0.63650  0.71880  Biso   1.000  C
  C522     1.0000 0.90010  0.63650  0.78120  Biso   1.000  C
  C523     1.0000 0.59990  0.13650  0.71880  Biso   1.000  C
  C524     1.0000 0.40010  0.13650  0.78120  Biso   1.000  C
  C525     1.0000 0.90010  0.36350  0.28120  Biso   1.000  C
  C526     1.0000 0.09990  0.36350  0.21880  Biso   1.000  C
  C527     1.0000 0.40010  0.86350  0.28120  Biso   1.000  C
  C528     1.0000 0.59990  0.86350  0.21880  Biso   1.000  C
  H873     1.0000 0.08390  0.63210  0.73420  Biso   1.000  H
  H874     1.0000 0.91610  0.63210  0.76580  Biso   1.000  H
  H875     1.0000 0.58390  0.13210  0.73420  Biso   1.000  H
  H876     1.0000 0.41610  0.13210  0.76580  Biso   1.000  H
  H877     1.0000 0.91610  0.36790  0.26580  Biso   1.000  H
  H878     1.0000 0.08390  0.36790  0.23420  Biso   1.000  H
  H879     1.0000 0.41610  0.86790  0.26580  Biso   1.000  H
  H880     1.0000 0.58390  0.86790  0.23420  Biso   1.000  H
  H881     1.0000 0.11500  0.61390  0.73530  Biso   1.000  H
  H882     1.0000 0.88500  0.61390  0.76470  Biso   1.000  H
  H883     1.0000 0.61500  0.11390  0.73530  Biso   1.000  H
  H884     1.0000 0.38500  0.11390  0.76470  Biso   1.000  H
  H885     1.0000 0.88500  0.38610  0.26470  Biso   1.000  H
  H886     1.0000 0.11500  0.38610  0.23530  Biso   1.000  H
  H887     1.0000 0.38500  0.88610  0.26470  Biso   1.000  H
  H888     1.0000 0.61500  0.88610  0.23530  Biso   1.000  H
  H889     1.0000 0.09690  0.61450  0.69040  Biso   1.000  H
  H890     1.0000 0.90310  0.61450  0.80960  Biso   1.000  H
  H891     1.0000 0.59690  0.11450  0.69040  Biso   1.000  H
  H892     1.0000 0.40310  0.11450  0.80960  Biso   1.000  H
  H893     1.0000 0.90310  0.38550  0.30960  Biso   1.000  H
  H894     1.0000 0.09690  0.38550  0.19040  Biso   1.000  H
  H895     1.0000 0.40310  0.88550  0.30960  Biso   1.000  H
  H896     1.0000 0.59690  0.88550  0.19040  Biso   1.000  H
  C529     1.0000 0.38010  0.14040  0.52530  Biso   1.000  C
  C530     1.0000 0.61990  0.14040  0.97470  Biso   1.000  C
  C531     1.0000 0.88010  0.64040  0.52530  Biso   1.000  C
  C532     1.0000 0.11990  0.64040  0.97470  Biso   1.000  C
  C533     1.0000 0.61990  0.85960  0.47470  Biso   1.000  C
  C534     1.0000 0.38010  0.85960  0.02530  Biso   1.000  C
  C535     1.0000 0.11990  0.35960  0.47470  Biso   1.000  C
  C536     1.0000 0.88010  0.35960  0.02530  Biso   1.000  C
  H897     1.0000 0.37200  0.16460  0.49990  Biso   1.000  H
  H898     1.0000 0.62800  0.16460  0.00010  Biso   1.000  H
  H899     1.0000 0.87200  0.66460  0.49990  Biso   1.000  H
  H900     1.0000 0.12800  0.66460  0.00010  Biso   1.000  H
  H901     1.0000 0.62800  0.83540  0.50010  Biso   1.000  H
  H902     1.0000 0.37200  0.83540  0.99990  Biso   1.000  H
  H903     1.0000 0.12800  0.33540  0.50010  Biso   1.000  H
  H904     1.0000 0.87200  0.33540  0.99990  Biso   1.000  H
  H905     1.0000 0.38320  0.17320  0.54920  Biso   1.000  H
  H906     1.0000 0.61680  0.17320  0.95080  Biso   1.000  H
  H907     1.0000 0.88320  0.67320  0.54920  Biso   1.000  H
  H908     1.0000 0.11680  0.67320  0.95080  Biso   1.000  H
  H909     1.0000 0.61680  0.82680  0.45080  Biso   1.000  H
  H910     1.0000 0.38320  0.82680  0.04920  Biso   1.000  H
  H911     1.0000 0.11680  0.32680  0.45080  Biso   1.000  H
  H912     1.0000 0.88320  0.32680  0.04920  Biso   1.000  H
  H913     1.0000 0.39720  0.12030  0.51880  Biso   1.000  H
  H914     1.0000 0.60280  0.12030  0.98120  Biso   1.000  H
  H915     1.0000 0.89720  0.62030  0.51880  Biso   1.000  H
  H916     1.0000 0.10280  0.62030  0.98120  Biso   1.000  H
  H917     1.0000 0.60280  0.87970  0.48120  Biso   1.000  H
  H918     1.0000 0.39720  0.87970  0.01880  Biso   1.000  H
  H919     1.0000 0.10280  0.37970  0.48120  Biso   1.000  H
  H920     1.0000 0.89720  0.37970  0.01880  Biso   1.000  H
  C537     1.0000 0.13050  0.71590  0.69510  Biso   1.000  C
  C538     1.0000 0.86950  0.71590  0.80490  Biso   1.000  C
  C539     1.0000 0.63050  0.21590  0.69510  Biso   1.000  C
  C540     1.0000 0.36950  0.21590  0.80490  Biso   1.000  C
  C541     1.0000 0.86950  0.28410  0.30490  Biso   1.000  C
  C542     1.0000 0.13050  0.28410  0.19510  Biso   1.000  C
  C543     1.0000 0.36950  0.78410  0.30490  Biso   1.000  C
  C544     1.0000 0.63050  0.78410  0.19510  Biso   1.000  C
  H921     1.0000 0.13690  0.76370  0.69830  Biso   1.000  H
  H922     1.0000 0.86310  0.76370  0.80170  Biso   1.000  H
  H923     1.0000 0.63690  0.26370  0.69830  Biso   1.000  H
  H924     1.0000 0.36310  0.26370  0.80170  Biso   1.000  H
  H925     1.0000 0.86310  0.23630  0.30170  Biso   1.000  H
  H926     1.0000 0.13690  0.23630  0.19830  Biso   1.000  H
  H927     1.0000 0.36310  0.73630  0.30170  Biso   1.000  H
  H928     1.0000 0.63690  0.73630  0.19830  Biso   1.000  H
  H929     1.0000 0.12810  0.70410  0.66440  Biso   1.000  H
  H930     1.0000 0.87190  0.70410  0.83560  Biso   1.000  H
  H931     1.0000 0.62810  0.20410  0.66440  Biso   1.000  H
  H932     1.0000 0.37190  0.20410  0.83560  Biso   1.000  H
  H933     1.0000 0.87190  0.29590  0.33560  Biso   1.000  H
  H934     1.0000 0.12810  0.29590  0.16440  Biso   1.000  H
  H935     1.0000 0.37190  0.79590  0.33560  Biso   1.000  H
  H936     1.0000 0.62810  0.79590  0.16440  Biso   1.000  H
  H937     1.0000 0.14360  0.68450  0.70970  Biso   1.000  H
  H938     1.0000 0.85640  0.68450  0.79030  Biso   1.000  H
  H939     1.0000 0.64360  0.18450  0.70970  Biso   1.000  H
  H940     1.0000 0.35640  0.18450  0.79030  Biso   1.000  H
  H941     1.0000 0.85640  0.31550  0.29030  Biso   1.000  H
  H942     1.0000 0.14360  0.31550  0.20970  Biso   1.000  H
  H943     1.0000 0.35640  0.81550  0.29030  Biso   1.000  H
  H944     1.0000 0.64360  0.81550  0.20970  Biso   1.000  H
  C545     1.0000 0.37620  0.05020  0.57420  Biso   1.000  C
  C546     1.0000 0.62380  0.05020  0.92580  Biso   1.000  C
  C547     1.0000 0.87620  0.55020  0.57420  Biso   1.000  C
  C548     1.0000 0.12380  0.55020  0.92580  Biso   1.000  C
  C549     1.0000 0.62380  0.94980  0.42580  Biso   1.000  C
  C550     1.0000 0.37620  0.94980  0.07420  Biso   1.000  C
  C551     1.0000 0.12380  0.44980  0.42580  Biso   1.000  C
  C552     1.0000 0.87620  0.44980  0.07420  Biso   1.000  C
  H945     1.0000 0.36520  0.01200  0.58300  Biso   1.000  H
  H946     1.0000 0.63480  0.01200  0.91700  Biso   1.000  H
  H947     1.0000 0.86520  0.51200  0.58300  Biso   1.000  H
  H948     1.0000 0.13480  0.51200  0.91700  Biso   1.000  H
  H949     1.0000 0.63480  0.98800  0.41700  Biso   1.000  H
  H950     1.0000 0.36520  0.98800  0.08300  Biso   1.000  H
  H951     1.0000 0.13480  0.48800  0.41700  Biso   1.000  H
  H952     1.0000 0.86520  0.48800  0.08300  Biso   1.000  H
  H953     1.0000 0.39320  0.03200  0.56600  Biso   1.000  H
  H954     1.0000 0.60680  0.03200  0.93400  Biso   1.000  H
  H955     1.0000 0.89320  0.53200  0.56600  Biso   1.000  H
  H956     1.0000 0.10680  0.53200  0.93400  Biso   1.000  H
  H957     1.0000 0.60680  0.96800  0.43400  Biso   1.000  H
  H958     1.0000 0.39320  0.96800  0.06600  Biso   1.000  H
  H959     1.0000 0.10680  0.46800  0.43400  Biso   1.000  H
  H960     1.0000 0.89320  0.46800  0.06600  Biso   1.000  H
  H961     1.0000 0.37950  0.08280  0.59810  Biso   1.000  H
  H962     1.0000 0.62050  0.08280  0.90190  Biso   1.000  H
  H963     1.0000 0.87950  0.58280  0.59810  Biso   1.000  H
  H964     1.0000 0.12050  0.58280  0.90190  Biso   1.000  H
  H965     1.0000 0.62050  0.91720  0.40190  Biso   1.000  H
  H966     1.0000 0.37950  0.91720  0.09810  Biso   1.000  H
  H967     1.0000 0.12050  0.41720  0.40190  Biso   1.000  H
  H968     1.0000 0.87950  0.41720  0.09810  Biso   1.000  H
  C553     1.0000 0.08250  0.89590  0.91850  Biso   1.000  C
  C554     1.0000 0.91750  0.89590  0.58150  Biso   1.000  C
  C555     1.0000 0.58250  0.39590  0.91850  Biso   1.000  C
  C556     1.0000 0.41750  0.39590  0.58150  Biso   1.000  C
  C557     1.0000 0.91750  0.10410  0.08150  Biso   1.000  C
  C558     1.0000 0.08250  0.10410  0.41850  Biso   1.000  C
  C559     1.0000 0.41750  0.60410  0.08150  Biso   1.000  C
  C560     1.0000 0.58250  0.60410  0.41850  Biso   1.000  C
  H969     1.0000 0.07710  0.92880  0.93860  Biso   1.000  H
  H970     1.0000 0.92290  0.92880  0.56140  Biso   1.000  H
  H971     1.0000 0.57710  0.42880  0.93860  Biso   1.000  H
  H972     1.0000 0.42290  0.42880  0.56140  Biso   1.000  H
  H973     1.0000 0.92290  0.07120  0.06140  Biso   1.000  H
  H974     1.0000 0.07710  0.07120  0.43860  Biso   1.000  H
  H975     1.0000 0.42290  0.57120  0.06140  Biso   1.000  H
  H976     1.0000 0.57710  0.57120  0.43860  Biso   1.000  H
  C561     1.0000 0.34810  0.11150  0.17400  Biso   1.000  C
  C562     1.0000 0.65190  0.11150  0.32600  Biso   1.000  C
  C563     1.0000 0.84810  0.61150  0.17400  Biso   1.000  C
  C564     1.0000 0.15190  0.61150  0.32600  Biso   1.000  C
  C565     1.0000 0.65190  0.88850  0.82600  Biso   1.000  C
  C566     1.0000 0.34810  0.88850  0.67400  Biso   1.000  C
  C567     1.0000 0.15190  0.38850  0.82600  Biso   1.000  C
  C568     1.0000 0.84810  0.38850  0.67400  Biso   1.000  C
  H977     1.0000 0.33110  0.12990  0.18230  Biso   1.000  H
  H978     1.0000 0.66890  0.12990  0.31770  Biso   1.000  H
  H979     1.0000 0.83110  0.62990  0.18230  Biso   1.000  H
  H980     1.0000 0.16890  0.62990  0.31770  Biso   1.000  H
  H981     1.0000 0.66890  0.87010  0.81770  Biso   1.000  H
  H982     1.0000 0.33110  0.87010  0.68230  Biso   1.000  H
  H983     1.0000 0.16890  0.37010  0.81770  Biso   1.000  H
  H984     1.0000 0.83110  0.37010  0.68230  Biso   1.000  H
  H985     1.0000 0.34500  0.08660  0.14670  Biso   1.000  H
  H986     1.0000 0.65500  0.08660  0.35330  Biso   1.000  H
  H987     1.0000 0.84500  0.58660  0.14670  Biso   1.000  H
  H988     1.0000 0.15500  0.58660  0.35330  Biso   1.000  H
  H989     1.0000 0.65500  0.91340  0.85330  Biso   1.000  H
  H990     1.0000 0.34500  0.91340  0.64670  Biso   1.000  H
  H991     1.0000 0.15500  0.41340  0.85330  Biso   1.000  H
  H992     1.0000 0.84500  0.41340  0.64670  Biso   1.000  H
  H993     1.0000 0.36050  0.14980  0.17070  Biso   1.000  H
  H994     1.0000 0.63950  0.14980  0.32930  Biso   1.000  H
  H995     1.0000 0.86050  0.64980  0.17070  Biso   1.000  H
  H996     1.0000 0.13950  0.64980  0.32930  Biso   1.000  H
  H997     1.0000 0.63950  0.85020  0.82930  Biso   1.000  H
  H998     1.0000 0.36050  0.85020  0.67070  Biso   1.000  H
  H999     1.0000 0.13950  0.35020  0.82930  Biso   1.000  H
  H1000    1.0000 0.86050  0.35020  0.67070  Biso   1.000  H
  Cu1      1.0000 0.00000  0.74909  0.25000  Biso   1.000  Cu
  Cu2      1.0000 0.50000  0.24909  0.25000  Biso   1.000  Cu
  Cu3      1.0000 0.00000  0.25091  0.75000  Biso   1.000  Cu
  Cu4      1.0000 0.50000  0.75091  0.75000  Biso   1.000  Cu
  Cu5      1.0000 0.00000  0.77421  0.75000  Biso   1.000  Cu
  Cu6      1.0000 0.50000  0.27421  0.75000  Biso   1.000  Cu
  Cu7      1.0000 0.00000  0.22579  0.25000  Biso   1.000  Cu
  Cu8      1.0000 0.50000  0.72579  0.25000  Biso   1.000  Cu
  Cu9      1.0000 0.25441  0.98265  0.24343  Biso   1.000  Cu
  Cu10     1.0000 0.74559  0.98265  0.25657  Biso   1.000  Cu
  Cu11     1.0000 0.75441  0.48265  0.24343  Biso   1.000  Cu
  Cu12     1.0000 0.24559  0.48265  0.25657  Biso   1.000  Cu
  Cu13     1.0000 0.74559  0.01735  0.75657  Biso   1.000  Cu
  Cu14     1.0000 0.25441  0.01735  0.74343  Biso   1.000  Cu
  Cu15     1.0000 0.24559  0.51735  0.75657  Biso   1.000  Cu
  Cu16     1.0000 0.75441  0.51735  0.74343  Biso   1.000  Cu
  Cu17     1.0000 0.26168  0.98100  0.49574  Biso   1.000  Cu
  Cu18     1.0000 0.73832  0.98100  0.00426  Biso   1.000  Cu
  Cu19     1.0000 0.76168  0.48100  0.49574  Biso   1.000  Cu
  Cu20     1.0000 0.23832  0.48100  0.00426  Biso   1.000  Cu
  Cu21     1.0000 0.73832  0.01900  0.50426  Biso   1.000  Cu
  Cu22     1.0000 0.26168  0.01900  0.99574  Biso   1.000  Cu
  Cu23     1.0000 0.23832  0.51900  0.50426  Biso   1.000  Cu
  Cu24     1.0000 0.76168  0.51900  0.99574  Biso   1.000  Cu
  Cu25     1.0000 0.01082  0.73104  0.49990  Biso   1.000  Cu
  Cu26     1.0000 0.98918  0.73104  0.00010  Biso   1.000  Cu
  Cu27     1.0000 0.51082  0.23104  0.49990  Biso   1.000  Cu
  Cu28     1.0000 0.48918  0.23104  0.00010  Biso   1.000  Cu
  Cu29     1.0000 0.98918  0.26896  0.50010  Biso   1.000  Cu
  Cu30     1.0000 0.01082  0.26896  0.99990  Biso   1.000  Cu
  Cu31     1.0000 0.48918  0.76896  0.50010  Biso   1.000  Cu
  Cu32     1.0000 0.51082  0.76896  0.99990  Biso   1.000  Cu
  S1       1.0000 0.25693  0.07942  0.45076  Biso   1.000  S
  S2       1.0000 0.74307  0.07942  0.04924  Biso   1.000  S
  S3       1.0000 0.75693  0.57942  0.45076  Biso   1.000  S
  S4       1.0000 0.24307  0.57942  0.04924  Biso   1.000  S
  S5       1.0000 0.74307  0.92058  0.54924  Biso   1.000  S
  S6       1.0000 0.25693  0.92058  0.95076  Biso   1.000  S
  S7       1.0000 0.24307  0.42058  0.54924  Biso   1.000  S
  S8       1.0000 0.75693  0.42058  0.95076  Biso   1.000  S
  K1       1.0000 0.24198  0.97527  0.36921  Biso   1.000  K
  K2       1.0000 0.75802  0.97527  0.13079  Biso   1.000  K
  K3       1.0000 0.74198  0.47527  0.36921  Biso   1.000  K
  K4       1.0000 0.25802  0.47527  0.13079  Biso   1.000  K
  K5       1.0000 0.75802  0.02473  0.63079  Biso   1.000  K
  K6       1.0000 0.24198  0.02473  0.86921  Biso   1.000  K
  K7       1.0000 0.25802  0.52473  0.63079  Biso   1.000  K
  K8       1.0000 0.74198  0.52473  0.86921  Biso   1.000  K
  P1       1.0000 0.96616  0.62167  0.46326  Biso   1.000  P
  P2       1.0000 0.03384  0.62167  0.03674  Biso   1.000  P
  P3       1.0000 0.46616  0.12167  0.46326  Biso   1.000  P
  P4       1.0000 0.53384  0.12167  0.03674  Biso   1.000  P
  P5       1.0000 0.03384  0.37833  0.53674  Biso   1.000  P
  P6       1.0000 0.96616  0.37833  0.96326  Biso   1.000  P
  P7       1.0000 0.53384  0.87833  0.53674  Biso   1.000  P
  P8       1.0000 0.46616  0.87833  0.96326  Biso   1.000  P
  P9       1.0000 0.31382  0.98436  0.21798  Biso   1.000  P
  P10      1.0000 0.68618  0.98436  0.28202  Biso   1.000  P
  P11      1.0000 0.81382  0.48436  0.21798  Biso   1.000  P
  P12      1.0000 0.18618  0.48436  0.28202  Biso   1.000  P
  P13      1.0000 0.68618  0.01564  0.78202  Biso   1.000  P
  P14      1.0000 0.31382  0.01564  0.71798  Biso   1.000  P
  P15      1.0000 0.18618  0.51564  0.78202  Biso   1.000  P
  P16      1.0000 0.81382  0.51564  0.71798  Biso   1.000  P
  K9       1.0000 0.26877  0.96482  0.11856  Biso   1.000  K
  K10      1.0000 0.73123  0.96482  0.38144  Biso   1.000  K
  K11      1.0000 0.76877  0.46482  0.11856  Biso   1.000  K
  K12      1.0000 0.23123  0.46482  0.38144  Biso   1.000  K
  K13      1.0000 0.73123  0.03518  0.88144  Biso   1.000  K
  K14      1.0000 0.26877  0.03518  0.61856  Biso   1.000  K
  K15      1.0000 0.23123  0.53518  0.88144  Biso   1.000  K
  K16      1.0000 0.76877  0.53518  0.61856  Biso   1.000  K
  S9       1.0000 0.22613  0.98693  0.54119  Biso   1.000  S
  S10      1.0000 0.77387  0.98693  0.95881  Biso   1.000  S
  S11      1.0000 0.72613  0.48693  0.54119  Biso   1.000  S
  S12      1.0000 0.27387  0.48693  0.95881  Biso   1.000  S
  S13      1.0000 0.77387  0.01307  0.45881  Biso   1.000  S
  S14      1.0000 0.22613  0.01307  0.04119  Biso   1.000  S
  S15      1.0000 0.27387  0.51307  0.45881  Biso   1.000  S
  S16      1.0000 0.72613  0.51307  0.04119  Biso   1.000  S
  S17      1.0000 0.28020  0.91973  0.29793  Biso   1.000  S
  S18      1.0000 0.71980  0.91973  0.20207  Biso   1.000  S
  S19      1.0000 0.78020  0.41973  0.29793  Biso   1.000  S
  S20      1.0000 0.21980  0.41973  0.20207  Biso   1.000  S
  S21      1.0000 0.71980  0.08027  0.70207  Biso   1.000  S
  S22      1.0000 0.28020  0.08027  0.79793  Biso   1.000  S
  S23      1.0000 0.21980  0.58027  0.70207  Biso   1.000  S
  S24      1.0000 0.78020  0.58027  0.79793  Biso   1.000  S
  P17      1.0000 0.19486  0.97312  0.26946  Biso   1.000  P
  P18      1.0000 0.80514  0.97312  0.23054  Biso   1.000  P
  P19      1.0000 0.69486  0.47312  0.26946  Biso   1.000  P
  P20      1.0000 0.30514  0.47312  0.23054  Biso   1.000  P
  P21      1.0000 0.80514  0.02688  0.73054  Biso   1.000  P
  P22      1.0000 0.19486  0.02688  0.76946  Biso   1.000  P
  P23      1.0000 0.30514  0.52688  0.73054  Biso   1.000  P
  P24      1.0000 0.69486  0.52688  0.76946  Biso   1.000  P
  P25      1.0000 0.05912  0.74266  0.22187  Biso   1.000  P
  P26      1.0000 0.94088  0.74266  0.27813  Biso   1.000  P
  P27      1.0000 0.55912  0.24266  0.22187  Biso   1.000  P
  P28      1.0000 0.44088  0.24266  0.27813  Biso   1.000  P
  P29      1.0000 0.94088  0.25734  0.77813  Biso   1.000  P
  P30      1.0000 0.05912  0.25734  0.72187  Biso   1.000  P
  P31      1.0000 0.44088  0.75734  0.77813  Biso   1.000  P
  P32      1.0000 0.55912  0.75734  0.72187  Biso   1.000  P
  P33      1.0000 0.05813  0.83935  0.53140  Biso   1.000  P
  P34      1.0000 0.94187  0.83935  0.96860  Biso   1.000  P
  P35      1.0000 0.55813  0.33935  0.53140  Biso   1.000  P
  P36      1.0000 0.44187  0.33935  0.96860  Biso   1.000  P
  P37      1.0000 0.94187  0.16065  0.46860  Biso   1.000  P
  P38      1.0000 0.05813  0.16065  0.03140  Biso   1.000  P
  P39      1.0000 0.44187  0.66065  0.46860  Biso   1.000  P
  P40      1.0000 0.55813  0.66065  0.03140  Biso   1.000  P
  K17      1.0000 0.98876  0.72779  0.37479  Biso   1.000  K
  K18      1.0000 0.01124  0.72779  0.12521  Biso   1.000  K
  K19      1.0000 0.48876  0.22779  0.37479  Biso   1.000  K
  K20      1.0000 0.51124  0.22779  0.12521  Biso   1.000  K
  K21      1.0000 0.01124  0.27221  0.62521  Biso   1.000  K
  K22      1.0000 0.98876  0.27221  0.87479  Biso   1.000  K
  K23      1.0000 0.51124  0.77221  0.62521  Biso   1.000  K
  K24      1.0000 0.48876  0.77221  0.87479  Biso   1.000  K
  S25      1.0000 0.28430  0.05443  0.20754  Biso   1.000  S
  S26      1.0000 0.71570  0.05443  0.29246  Biso   1.000  S
  S27      1.0000 0.78430  0.55443  0.20754  Biso   1.000  S
  S28      1.0000 0.21570  0.55443  0.29246  Biso   1.000  S
  S29      1.0000 0.71570  0.94557  0.79246  Biso   1.000  S
  S30      1.0000 0.28430  0.94557  0.70754  Biso   1.000  S
  S31      1.0000 0.21570  0.44557  0.79246  Biso   1.000  S
  S32      1.0000 0.78430  0.44557  0.70754  Biso   1.000  S
  S33      1.0000 0.03100  0.81607  0.21321  Biso   1.000  S
  S34      1.0000 0.96900  0.81607  0.28679  Biso   1.000  S
  S35      1.0000 0.53100  0.31607  0.21321  Biso   1.000  S
  S36      1.0000 0.46900  0.31607  0.28679  Biso   1.000  S
  S37      1.0000 0.96900  0.18393  0.78679  Biso   1.000  S
  S38      1.0000 0.03100  0.18393  0.71321  Biso   1.000  S
  S39      1.0000 0.46900  0.68393  0.78679  Biso   1.000  S
  S40      1.0000 0.53100  0.68393  0.71321  Biso   1.000  S
  S41      1.0000 0.97515  0.73604  0.54492  Biso   1.000  S
  S42      1.0000 0.02485  0.73604  0.95508  Biso   1.000  S
  S43      1.0000 0.47515  0.23604  0.54492  Biso   1.000  S
  S44      1.0000 0.52485  0.23604  0.95508  Biso   1.000  S
  S45      1.0000 0.02485  0.26396  0.45508  Biso   1.000  S
  S46      1.0000 0.97515  0.26396  0.04492  Biso   1.000  S
  S47      1.0000 0.52485  0.76396  0.45508  Biso   1.000  S
  S48      1.0000 0.47515  0.76396  0.04492  Biso   1.000  S
  S49      1.0000 0.02554  0.67857  0.30140  Biso   1.000  S
  S50      1.0000 0.97446  0.67857  0.19860  Biso   1.000  S
  S51      1.0000 0.52554  0.17857  0.30140  Biso   1.000  S
  S52      1.0000 0.47446  0.17857  0.19860  Biso   1.000  S
  S53      1.0000 0.97446  0.32143  0.69860  Biso   1.000  S
  S54      1.0000 0.02554  0.32143  0.80140  Biso   1.000  S
  S55      1.0000 0.47446  0.82143  0.69860  Biso   1.000  S
  S56      1.0000 0.52554  0.82143  0.80140  Biso   1.000  S
  P41      1.0000 0.05960  0.77450  0.72567  Biso   1.000  P
  P42      1.0000 0.94040  0.77450  0.77433  Biso   1.000  P
  P43      1.0000 0.55960  0.27450  0.72567  Biso   1.000  P
  P44      1.0000 0.44040  0.27450  0.77433  Biso   1.000  P
  P45      1.0000 0.94040  0.22550  0.27433  Biso   1.000  P
  P46      1.0000 0.05960  0.22550  0.22567  Biso   1.000  P
  P47      1.0000 0.44040  0.72550  0.27433  Biso   1.000  P
  P48      1.0000 0.55960  0.72550  0.22567  Biso   1.000  P
  S57      1.0000 0.00650  0.82941  0.45427  Biso   1.000  S
  S58      1.0000 0.99350  0.82941  0.04573  Biso   1.000  S
  S59      1.0000 0.50650  0.32941  0.45427  Biso   1.000  S
  S60      1.0000 0.49350  0.32941  0.04573  Biso   1.000  S
  S61      1.0000 0.99350  0.17059  0.54573  Biso   1.000  S
  S62      1.0000 0.00650  0.17059  0.95427  Biso   1.000  S
  S63      1.0000 0.49350  0.67059  0.54573  Biso   1.000  S
  S64      1.0000 0.50650  0.67059  0.95427  Biso   1.000  S
  S65      1.0000 0.25712  0.87584  0.45466  Biso   1.000  S
  S66      1.0000 0.74288  0.87584  0.04534  Biso   1.000  S
  S67      1.0000 0.75712  0.37584  0.45466  Biso   1.000  S
  S68      1.0000 0.24288  0.37584  0.04534  Biso   1.000  S
  S69      1.0000 0.74288  0.12416  0.54534  Biso   1.000  S
  S70      1.0000 0.25712  0.12416  0.95466  Biso   1.000  S
  S71      1.0000 0.24288  0.62416  0.54534  Biso   1.000  S
  S72      1.0000 0.75712  0.62416  0.95466  Biso   1.000  S
  S73      1.0000 0.00566  0.62684  0.45785  Biso   1.000  S
  S74      1.0000 0.99434  0.62684  0.04215  Biso   1.000  S
  S75      1.0000 0.50566  0.12684  0.45785  Biso   1.000  S
  S76      1.0000 0.49434  0.12684  0.04215  Biso   1.000  S
  S77      1.0000 0.99434  0.37316  0.54215  Biso   1.000  S
  S78      1.0000 0.00566  0.37316  0.95785  Biso   1.000  S
  S79      1.0000 0.49434  0.87316  0.54215  Biso   1.000  S
  S80      1.0000 0.50566  0.87316  0.95785  Biso   1.000  S
  P49      1.0000 0.21767  0.87062  0.45939  Biso   1.000  P
  P50      1.0000 0.78233  0.87062  0.04061  Biso   1.000  P
  P51      1.0000 0.71767  0.37062  0.45939  Biso   1.000  P
  P52      1.0000 0.28233  0.37062  0.04061  Biso   1.000  P
  P53      1.0000 0.78233  0.12938  0.54061  Biso   1.000  P
  P54      1.0000 0.21767  0.12938  0.95939  Biso   1.000  P
  P55      1.0000 0.28233  0.62938  0.54061  Biso   1.000  P
  P56      1.0000 0.71767  0.62938  0.95939  Biso   1.000  P
  S81      1.0000 0.23186  0.90547  0.19331  Biso   1.000  S
  S82      1.0000 0.76814  0.90547  0.30669  Biso   1.000  S
  S83      1.0000 0.73186  0.40547  0.19331  Biso   1.000  S
  S84      1.0000 0.26814  0.40547  0.30669  Biso   1.000  S
  S85      1.0000 0.76814  0.09453  0.80669  Biso   1.000  S
  S86      1.0000 0.23186  0.09453  0.69331  Biso   1.000  S
  S87      1.0000 0.26814  0.59453  0.80669  Biso   1.000  S
  S88      1.0000 0.73186  0.59453  0.69331  Biso   1.000  S
  P57      1.0000 0.30926  0.08921  0.52666  Biso   1.000  P
  P58      1.0000 0.69074  0.08921  0.97334  Biso   1.000  P
  P59      1.0000 0.80926  0.58921  0.52666  Biso   1.000  P
  P60      1.0000 0.19074  0.58921  0.97334  Biso   1.000  P
  P61      1.0000 0.69074  0.91079  0.47334  Biso   1.000  P
  P62      1.0000 0.30926  0.91079  0.02666  Biso   1.000  P
  P63      1.0000 0.19074  0.41079  0.47334  Biso   1.000  P
  P64      1.0000 0.80926  0.41079  0.02666  Biso   1.000  P
  S89      1.0000 0.30422  0.98765  0.53565  Biso   1.000  S
  S90      1.0000 0.69578  0.98765  0.96435  Biso   1.000  S
  S91      1.0000 0.80422  0.48765  0.53565  Biso   1.000  S
  S92      1.0000 0.19578  0.48765  0.96435  Biso   1.000  S
  S93      1.0000 0.69578  0.01235  0.46435  Biso   1.000  S
  S94      1.0000 0.30422  0.01235  0.03565  Biso   1.000  S
  S95      1.0000 0.19578  0.51235  0.46435  Biso   1.000  S
  S96      1.0000 0.80422  0.51235  0.03565  Biso   1.000  S
  S97      1.0000 0.22187  0.04973  0.27627  Biso   1.000  S
  S98      1.0000 0.77813  0.04973  0.22373  Biso   1.000  S
  S99      1.0000 0.72187  0.54973  0.27627  Biso   1.000  S
  S100     1.0000 0.27813  0.54973  0.22373  Biso   1.000  S
  S101     1.0000 0.77813  0.95027  0.72373  Biso   1.000  S
  S102     1.0000 0.22187  0.95027  0.77627  Biso   1.000  S
  S103     1.0000 0.27813  0.45027  0.72373  Biso   1.000  S
  S104     1.0000 0.72187  0.45027  0.77627  Biso   1.000  S
  S105     1.0000 0.02379  0.84337  0.80309  Biso   1.000  S
  S106     1.0000 0.97621  0.84337  0.69691  Biso   1.000  S
  S107     1.0000 0.52379  0.34337  0.80309  Biso   1.000  S
  S108     1.0000 0.47621  0.34337  0.69691  Biso   1.000  S
  S109     1.0000 0.97621  0.15663  0.19691  Biso   1.000  S
  S110     1.0000 0.02379  0.15663  0.30309  Biso   1.000  S
  S111     1.0000 0.47621  0.65663  0.19691  Biso   1.000  S
  S112     1.0000 0.52379  0.65663  0.30309  Biso   1.000  S
  S113     1.0000 0.05303  0.73743  0.54084  Biso   1.000  S
  S114     1.0000 0.94697  0.73743  0.95916  Biso   1.000  S
  S115     1.0000 0.55303  0.23743  0.54084  Biso   1.000  S
  S116     1.0000 0.44697  0.23743  0.95916  Biso   1.000  S
  S117     1.0000 0.94697  0.26257  0.45916  Biso   1.000  S
  S118     1.0000 0.05303  0.26257  0.04084  Biso   1.000  S
  S119     1.0000 0.44697  0.76257  0.45916  Biso   1.000  S
  S120     1.0000 0.55303  0.76257  0.04084  Biso   1.000  S
  K25      1.0000 0.01612  0.78356  0.62394  Biso   1.000  K
  K26      1.0000 0.98388  0.78356  0.87606  Biso   1.000  K
  K27      1.0000 0.51612  0.28356  0.62394  Biso   1.000  K
  K28      1.0000 0.48388  0.28356  0.87606  Biso   1.000  K
  K29      1.0000 0.98388  0.21644  0.37606  Biso   1.000  K
  K30      1.0000 0.01612  0.21644  0.12394  Biso   1.000  K
  K31      1.0000 0.48388  0.71644  0.37606  Biso   1.000  K
  K32      1.0000 0.51612  0.71644  0.12394  Biso   1.000  K
  S121     1.0000 0.03118  0.70223  0.71689  Biso   1.000  S
  S122     1.0000 0.96882  0.70223  0.78311  Biso   1.000  S
  S123     1.0000 0.53118  0.20223  0.71689  Biso   1.000  S
  S124     1.0000 0.46882  0.20223  0.78311  Biso   1.000  S
  S125     1.0000 0.96882  0.29777  0.28311  Biso   1.000  S
  S126     1.0000 0.03118  0.29777  0.21689  Biso   1.000  S
  S127     1.0000 0.46882  0.79777  0.28311  Biso   1.000  S
  S128     1.0000 0.53118  0.79777  0.21689  Biso   1.000  S
  O113     1.0000 0.04834  0.67410  0.19632  Biso   1.000  O
  O114     1.0000 0.95166  0.67410  0.30368  Biso   1.000  O
  O115     1.0000 0.54834  0.17410  0.19632  Biso   1.000  O
  O116     1.0000 0.45166  0.17410  0.30368  Biso   1.000  O
  O117     1.0000 0.95166  0.32590  0.80368  Biso   1.000  O
  O118     1.0000 0.04834  0.32590  0.69632  Biso   1.000  O
  O119     1.0000 0.45166  0.82590  0.80368  Biso   1.000  O
  O120     1.0000 0.54834  0.82590  0.69632  Biso   1.000  O
  O121     1.0000 0.08614  0.86480  0.55462  Biso   1.000  O
  O122     1.0000 0.91386  0.86480  0.94538  Biso   1.000  O
  O123     1.0000 0.58614  0.36480  0.55462  Biso   1.000  O
  O124     1.0000 0.41386  0.36480  0.94538  Biso   1.000  O
  O125     1.0000 0.91386  0.13520  0.44538  Biso   1.000  O
  O126     1.0000 0.08614  0.13520  0.05462  Biso   1.000  O
  O127     1.0000 0.41386  0.63520  0.44538  Biso   1.000  O
  O128     1.0000 0.58614  0.63520  0.05462  Biso   1.000  O
  N25      1.0000 0.05811  0.86730  0.48170  Biso   1.000  N
  N26      1.0000 0.94189  0.86730  0.01830  Biso   1.000  N
  N27      1.0000 0.55811  0.36730  0.48170  Biso   1.000  N
  N28      1.0000 0.44189  0.36730  0.01830  Biso   1.000  N
  N29      1.0000 0.94189  0.13270  0.51830  Biso   1.000  N
  N30      1.0000 0.05811  0.13270  0.98170  Biso   1.000  N
  N31      1.0000 0.44189  0.63270  0.51830  Biso   1.000  N
  N32      1.0000 0.55811  0.63270  0.98170  Biso   1.000  N
  N33      1.0000 0.07200  0.72770  0.27220  Biso   1.000  N
  N34      1.0000 0.92800  0.72770  0.22780  Biso   1.000  N
  N35      1.0000 0.57200  0.22770  0.27220  Biso   1.000  N
  N36      1.0000 0.42800  0.22770  0.22780  Biso   1.000  N
  N37      1.0000 0.92800  0.27230  0.72780  Biso   1.000  N
  N38      1.0000 0.07200  0.27230  0.77220  Biso   1.000  N
  N39      1.0000 0.42800  0.77230  0.72780  Biso   1.000  N
  N40      1.0000 0.57200  0.77230  0.77220  Biso   1.000  N
  C569     1.0000 0.29580  0.13180  0.39970  Biso   1.000  C
  C570     1.0000 0.70420  0.13180  0.10030  Biso   1.000  C
  C571     1.0000 0.79580  0.63180  0.39970  Biso   1.000  C
  C572     1.0000 0.20420  0.63180  0.10030  Biso   1.000  C
  C573     1.0000 0.70420  0.86820  0.60030  Biso   1.000  C
  C574     1.0000 0.29580  0.86820  0.89970  Biso   1.000  C
  C575     1.0000 0.20420  0.36820  0.60030  Biso   1.000  C
  C576     1.0000 0.79580  0.36820  0.89970  Biso   1.000  C
  C577     1.0000 0.31260  0.95210  0.30200  Biso   1.000  C
  C578     1.0000 0.68740  0.95210  0.19800  Biso   1.000  C
  C579     1.0000 0.81260  0.45210  0.30200  Biso   1.000  C
  C580     1.0000 0.18740  0.45210  0.19800  Biso   1.000  C
  C581     1.0000 0.68740  0.04790  0.69800  Biso   1.000  C
  C582     1.0000 0.31260  0.04790  0.80200  Biso   1.000  C
  C583     1.0000 0.18740  0.54790  0.69800  Biso   1.000  C
  C584     1.0000 0.81260  0.54790  0.80200  Biso   1.000  C
  C585     1.0000 0.04580  0.88490  0.40530  Biso   1.000  C
  C586     1.0000 0.95420  0.88490  0.09470  Biso   1.000  C
  C587     1.0000 0.54580  0.38490  0.40530  Biso   1.000  C
  C588     1.0000 0.45420  0.38490  0.09470  Biso   1.000  C
  C589     1.0000 0.95420  0.11510  0.59470  Biso   1.000  C
  C590     1.0000 0.04580  0.11510  0.90530  Biso   1.000  C
  C591     1.0000 0.45420  0.61510  0.59470  Biso   1.000  C
  C592     1.0000 0.54580  0.61510  0.90530  Biso   1.000  C
  C593     1.0000 0.03870  0.86030  0.44950  Biso   1.000  C
  C594     1.0000 0.96130  0.86030  0.05050  Biso   1.000  C
  C595     1.0000 0.53870  0.36030  0.44950  Biso   1.000  C
  C596     1.0000 0.46130  0.36030  0.05050  Biso   1.000  C
  C597     1.0000 0.96130  0.13970  0.55050  Biso   1.000  C
  C598     1.0000 0.03870  0.13970  0.94950  Biso   1.000  C
  C599     1.0000 0.46130  0.63970  0.55050  Biso   1.000  C
  C600     1.0000 0.53870  0.63970  0.94950  Biso   1.000  C
  C601     1.0000 0.05830  0.70800  0.30490  Biso   1.000  C
  C602     1.0000 0.94170  0.70800  0.19510  Biso   1.000  C
  C603     1.0000 0.55830  0.20800  0.30490  Biso   1.000  C
  C604     1.0000 0.44170  0.20800  0.19510  Biso   1.000  C
  C605     1.0000 0.94170  0.29200  0.69510  Biso   1.000  C
  C606     1.0000 0.05830  0.29200  0.80490  Biso   1.000  C
  C607     1.0000 0.44170  0.79200  0.69510  Biso   1.000  C
  C608     1.0000 0.55830  0.79200  0.80490  Biso   1.000  C
  N41      1.0000 0.32571  0.97280  0.26840  Biso   1.000  N
  N42      1.0000 0.67429  0.97280  0.23160  Biso   1.000  N
  N43      1.0000 0.82571  0.47280  0.26840  Biso   1.000  N
  N44      1.0000 0.17429  0.47280  0.23160  Biso   1.000  N
  N45      1.0000 0.67429  0.02720  0.73160  Biso   1.000  N
  N46      1.0000 0.32571  0.02720  0.76840  Biso   1.000  N
  N47      1.0000 0.17429  0.52720  0.73160  Biso   1.000  N
  N48      1.0000 0.82571  0.52720  0.76840  Biso   1.000  N
  C609     1.0000 0.32870  0.95240  0.34560  Biso   1.000  C
  C610     1.0000 0.67130  0.95240  0.15440  Biso   1.000  C
  C611     1.0000 0.82870  0.45240  0.34560  Biso   1.000  C
  C612     1.0000 0.17130  0.45240  0.15440  Biso   1.000  C
  C613     1.0000 0.67130  0.04760  0.65440  Biso   1.000  C
  C614     1.0000 0.32870  0.04760  0.84560  Biso   1.000  C
  C615     1.0000 0.17130  0.54760  0.65440  Biso   1.000  C
  C616     1.0000 0.82870  0.54760  0.84560  Biso   1.000  C
  C617     1.0000 0.28950  0.11110  0.44560  Biso   1.000  C
  C618     1.0000 0.71050  0.11110  0.05440  Biso   1.000  C
  C619     1.0000 0.78950  0.61110  0.44560  Biso   1.000  C
  C620     1.0000 0.21050  0.61110  0.05440  Biso   1.000  C
  C621     1.0000 0.71050  0.88890  0.55440  Biso   1.000  C
  C622     1.0000 0.28950  0.88890  0.94560  Biso   1.000  C
  C623     1.0000 0.21050  0.38890  0.55440  Biso   1.000  C
  C624     1.0000 0.78950  0.38890  0.94560  Biso   1.000  C
  N49      1.0000 0.18357  0.94930  0.22060  Biso   1.000  N
  N50      1.0000 0.81643  0.94930  0.27940  Biso   1.000  N
  N51      1.0000 0.68357  0.44930  0.22060  Biso   1.000  N
  N52      1.0000 0.31643  0.44930  0.27940  Biso   1.000  N
  N53      1.0000 0.81643  0.05070  0.77940  Biso   1.000  N
  N54      1.0000 0.18357  0.05070  0.72060  Biso   1.000  N
  N55      1.0000 0.31643  0.55070  0.77940  Biso   1.000  N
  N56      1.0000 0.68357  0.55070  0.72060  Biso   1.000  N
  N57      1.0000 0.07134  0.79670  0.77510  Biso   1.000  N
  N58      1.0000 0.92866  0.79670  0.72490  Biso   1.000  N
  N59      1.0000 0.57134  0.29670  0.77510  Biso   1.000  N
  N60      1.0000 0.42866  0.29670  0.72490  Biso   1.000  N
  N61      1.0000 0.92866  0.20330  0.22490  Biso   1.000  N
  N62      1.0000 0.07134  0.20330  0.27510  Biso   1.000  N
  N63      1.0000 0.42866  0.70330  0.22490  Biso   1.000  N
  N64      1.0000 0.57134  0.70330  0.27510  Biso   1.000  N
  C625     1.0000 0.05750  0.82280  0.80590  Biso   1.000  C
  C626     1.0000 0.94250  0.82280  0.69410  Biso   1.000  C
  C627     1.0000 0.55750  0.32280  0.80590  Biso   1.000  C
  C628     1.0000 0.44250  0.32280  0.69410  Biso   1.000  C
  C629     1.0000 0.94250  0.17720  0.19410  Biso   1.000  C
  C630     1.0000 0.05750  0.17720  0.30590  Biso   1.000  C
  C631     1.0000 0.44250  0.67720  0.19410  Biso   1.000  C
  C632     1.0000 0.55750  0.67720  0.30590  Biso   1.000  C
  C633     1.0000 0.07460  0.71120  0.34860  Biso   1.000  C
  C634     1.0000 0.92540  0.71120  0.15140  Biso   1.000  C
  C635     1.0000 0.57460  0.21120  0.34860  Biso   1.000  C
  C636     1.0000 0.42540  0.21120  0.15140  Biso   1.000  C
  C637     1.0000 0.92540  0.28880  0.65140  Biso   1.000  C
  C638     1.0000 0.07460  0.28880  0.84860  Biso   1.000  C
  C639     1.0000 0.42540  0.78880  0.65140  Biso   1.000  C
  C640     1.0000 0.57460  0.78880  0.84860  Biso   1.000  C
  C641     1.0000 0.06520  0.68210  0.38590  Biso   1.000  C
  C642     1.0000 0.93480  0.68210  0.11410  Biso   1.000  C
  C643     1.0000 0.56520  0.18210  0.38590  Biso   1.000  C
  C644     1.0000 0.43480  0.18210  0.11410  Biso   1.000  C
  C645     1.0000 0.93480  0.31790  0.61410  Biso   1.000  C
  C646     1.0000 0.06520  0.31790  0.88590  Biso   1.000  C
  C647     1.0000 0.43480  0.81790  0.61410  Biso   1.000  C
  C648     1.0000 0.56520  0.81790  0.88590  Biso   1.000  C
  H1001    1.0000 0.04820  0.66070  0.38400  Biso   1.000  H
  H1002    1.0000 0.95180  0.66070  0.11600  Biso   1.000  H
  H1003    1.0000 0.54820  0.16070  0.38400  Biso   1.000  H
  H1004    1.0000 0.45180  0.16070  0.11600  Biso   1.000  H
  H1005    1.0000 0.95180  0.33930  0.61600  Biso   1.000  H
  H1006    1.0000 0.04820  0.33930  0.88400  Biso   1.000  H
  H1007    1.0000 0.45180  0.83930  0.61600  Biso   1.000  H
  H1008    1.0000 0.54820  0.83930  0.88400  Biso   1.000  H
  C649     1.0000 0.09990  0.74110  0.35340  Biso   1.000  C
  C650     1.0000 0.90010  0.74110  0.14660  Biso   1.000  C
  C651     1.0000 0.59990  0.24110  0.35340  Biso   1.000  C
  C652     1.0000 0.40010  0.24110  0.14660  Biso   1.000  C
  C653     1.0000 0.90010  0.25890  0.64660  Biso   1.000  C
  C654     1.0000 0.09990  0.25890  0.85340  Biso   1.000  C
  C655     1.0000 0.40010  0.75890  0.64660  Biso   1.000  C
  C656     1.0000 0.59990  0.75890  0.85340  Biso   1.000  C
  H1009    1.0000 0.10690  0.76140  0.32910  Biso   1.000  H
  H1010    1.0000 0.89310  0.76140  0.17090  Biso   1.000  H
  H1011    1.0000 0.60690  0.26140  0.32910  Biso   1.000  H
  H1012    1.0000 0.39310  0.26140  0.17090  Biso   1.000  H
  H1013    1.0000 0.89310  0.23860  0.67090  Biso   1.000  H
  H1014    1.0000 0.10690  0.23860  0.82910  Biso   1.000  H
  H1015    1.0000 0.39310  0.73860  0.67090  Biso   1.000  H
  H1016    1.0000 0.60690  0.73860  0.82910  Biso   1.000  H
  C657     1.0000 0.19760  0.92260  0.18940  Biso   1.000  C
  C658     1.0000 0.80240  0.92260  0.31060  Biso   1.000  C
  C659     1.0000 0.69760  0.42260  0.18940  Biso   1.000  C
  C660     1.0000 0.30240  0.42260  0.31060  Biso   1.000  C
  C661     1.0000 0.80240  0.07740  0.81060  Biso   1.000  C
  C662     1.0000 0.19760  0.07740  0.68940  Biso   1.000  C
  C663     1.0000 0.30240  0.57740  0.81060  Biso   1.000  C
  C664     1.0000 0.69760  0.57740  0.68940  Biso   1.000  C
  C665     1.0000 0.35470  0.98010  0.34950  Biso   1.000  C
  C666     1.0000 0.64530  0.98010  0.15050  Biso   1.000  C
  C667     1.0000 0.85470  0.48010  0.34950  Biso   1.000  C
  C668     1.0000 0.14530  0.48010  0.15050  Biso   1.000  C
  C669     1.0000 0.64530  0.01990  0.65050  Biso   1.000  C
  C670     1.0000 0.35470  0.01990  0.84950  Biso   1.000  C
  C671     1.0000 0.14530  0.51990  0.65050  Biso   1.000  C
  C672     1.0000 0.85470  0.51990  0.84950  Biso   1.000  C
  H1017    1.0000 0.36230  0.99630  0.32460  Biso   1.000  H
  H1018    1.0000 0.63770  0.99630  0.17540  Biso   1.000  H
  H1019    1.0000 0.86230  0.49630  0.32460  Biso   1.000  H
  H1020    1.0000 0.13770  0.49630  0.17540  Biso   1.000  H
  H1021    1.0000 0.63770  0.00370  0.67540  Biso   1.000  H
  H1022    1.0000 0.36230  0.00370  0.82460  Biso   1.000  H
  H1023    1.0000 0.13770  0.50370  0.67540  Biso   1.000  H
  H1024    1.0000 0.86230  0.50370  0.82460  Biso   1.000  H
  C673     1.0000 0.27590  0.14470  0.36580  Biso   1.000  C
  C674     1.0000 0.72410  0.14470  0.13420  Biso   1.000  C
  C675     1.0000 0.77590  0.64470  0.36580  Biso   1.000  C
  C676     1.0000 0.22410  0.64470  0.13420  Biso   1.000  C
  C677     1.0000 0.72410  0.85530  0.63420  Biso   1.000  C
  C678     1.0000 0.27590  0.85530  0.86580  Biso   1.000  C
  C679     1.0000 0.22410  0.35530  0.63420  Biso   1.000  C
  C680     1.0000 0.77590  0.35530  0.86580  Biso   1.000  C
  H1025    1.0000 0.25760  0.14050  0.37050  Biso   1.000  H
  H1026    1.0000 0.74240  0.14050  0.12950  Biso   1.000  H
  H1027    1.0000 0.75760  0.64050  0.37050  Biso   1.000  H
  H1028    1.0000 0.24240  0.64050  0.12950  Biso   1.000  H
  H1029    1.0000 0.74240  0.85950  0.62950  Biso   1.000  H
  H1030    1.0000 0.25760  0.85950  0.87050  Biso   1.000  H
  H1031    1.0000 0.24240  0.35950  0.62950  Biso   1.000  H
  H1032    1.0000 0.75760  0.35950  0.87050  Biso   1.000  H
  C681     1.0000 0.32290  0.13560  0.39060  Biso   1.000  C
  C682     1.0000 0.67710  0.13560  0.10940  Biso   1.000  C
  C683     1.0000 0.82290  0.63560  0.39060  Biso   1.000  C
  C684     1.0000 0.17710  0.63560  0.10940  Biso   1.000  C
  C685     1.0000 0.67710  0.86440  0.60940  Biso   1.000  C
  C686     1.0000 0.32290  0.86440  0.89060  Biso   1.000  C
  C687     1.0000 0.17710  0.36440  0.60940  Biso   1.000  C
  C688     1.0000 0.82290  0.36440  0.89060  Biso   1.000  C
  H1033    1.0000 0.33660  0.12750  0.41290  Biso   1.000  H
  H1034    1.0000 0.66340  0.12750  0.08710  Biso   1.000  H
  H1035    1.0000 0.83660  0.62750  0.41290  Biso   1.000  H
  H1036    1.0000 0.16340  0.62750  0.08710  Biso   1.000  H
  H1037    1.0000 0.66340  0.87250  0.58710  Biso   1.000  H
  H1038    1.0000 0.33660  0.87250  0.91290  Biso   1.000  H
  H1039    1.0000 0.16340  0.37250  0.58710  Biso   1.000  H
  H1040    1.0000 0.83660  0.37250  0.91290  Biso   1.000  H
  C689     1.0000 0.02660  0.89480  0.37040  Biso   1.000  C
  C690     1.0000 0.97340  0.89480  0.12960  Biso   1.000  C
  C691     1.0000 0.52660  0.39480  0.37040  Biso   1.000  C
  C692     1.0000 0.47340  0.39480  0.12960  Biso   1.000  C
  C693     1.0000 0.97340  0.10520  0.62960  Biso   1.000  C
  C694     1.0000 0.02660  0.10520  0.87040  Biso   1.000  C
  C695     1.0000 0.47340  0.60520  0.62960  Biso   1.000  C
  C696     1.0000 0.52660  0.60520  0.87040  Biso   1.000  C
  H1041    1.0000 0.00840  0.88740  0.37450  Biso   1.000  H
  H1042    1.0000 0.99160  0.88740  0.12550  Biso   1.000  H
  H1043    1.0000 0.50840  0.38740  0.37450  Biso   1.000  H
  H1044    1.0000 0.49160  0.38740  0.12550  Biso   1.000  H
  H1045    1.0000 0.99160  0.11260  0.62550  Biso   1.000  H
  H1046    1.0000 0.00840  0.11260  0.87450  Biso   1.000  H
  H1047    1.0000 0.49160  0.61260  0.62550  Biso   1.000  H
  H1048    1.0000 0.50840  0.61260  0.87450  Biso   1.000  H
  C697     1.0000 0.32950  0.15150  0.34840  Biso   1.000  C
  C698     1.0000 0.67050  0.15150  0.15160  Biso   1.000  C
  C699     1.0000 0.82950  0.65150  0.34840  Biso   1.000  C
  C700     1.0000 0.17050  0.65150  0.15160  Biso   1.000  C
  C701     1.0000 0.67050  0.84850  0.65160  Biso   1.000  C
  C702     1.0000 0.32950  0.84850  0.84840  Biso   1.000  C
  C703     1.0000 0.17050  0.34850  0.65160  Biso   1.000  C
  C704     1.0000 0.82950  0.34850  0.84840  Biso   1.000  C
  H1049    1.0000 0.34770  0.15310  0.34270  Biso   1.000  H
  H1050    1.0000 0.65230  0.15310  0.15730  Biso   1.000  H
  H1051    1.0000 0.84770  0.65310  0.34270  Biso   1.000  H
  H1052    1.0000 0.15230  0.65310  0.15730  Biso   1.000  H
  H1053    1.0000 0.65230  0.84690  0.65730  Biso   1.000  H
  H1054    1.0000 0.34770  0.84690  0.84270  Biso   1.000  H
  H1055    1.0000 0.15230  0.34690  0.65730  Biso   1.000  H
  H1056    1.0000 0.84770  0.34690  0.84270  Biso   1.000  H
  C705     1.0000 0.36940  0.98420  0.38960  Biso   1.000  C
  C706     1.0000 0.63060  0.98420  0.11040  Biso   1.000  C
  C707     1.0000 0.86940  0.48420  0.38960  Biso   1.000  C
  C708     1.0000 0.13060  0.48420  0.11040  Biso   1.000  C
  C709     1.0000 0.63060  0.01580  0.61040  Biso   1.000  C
  C710     1.0000 0.36940  0.01580  0.88960  Biso   1.000  C
  C711     1.0000 0.13060  0.51580  0.61040  Biso   1.000  C
  C712     1.0000 0.86940  0.51580  0.88960  Biso   1.000  C
  H1057    1.0000 0.38660  0.00470  0.39220  Biso   1.000  H
  H1058    1.0000 0.61340  0.00470  0.10780  Biso   1.000  H
  H1059    1.0000 0.88660  0.50470  0.39220  Biso   1.000  H
  H1060    1.0000 0.11340  0.50470  0.10780  Biso   1.000  H
  H1061    1.0000 0.61340  0.99530  0.60780  Biso   1.000  H
  H1062    1.0000 0.38660  0.99530  0.89220  Biso   1.000  H
  H1063    1.0000 0.11340  0.49530  0.60780  Biso   1.000  H
  H1064    1.0000 0.88660  0.49530  0.89220  Biso   1.000  H
  C713     1.0000 0.31690  0.93000  0.38140  Biso   1.000  C
  C714     1.0000 0.68310  0.93000  0.11860  Biso   1.000  C
  C715     1.0000 0.81690  0.43000  0.38140  Biso   1.000  C
  C716     1.0000 0.18310  0.43000  0.11860  Biso   1.000  C
  C717     1.0000 0.68310  0.07000  0.61860  Biso   1.000  C
  C718     1.0000 0.31690  0.07000  0.88140  Biso   1.000  C
  C719     1.0000 0.18310  0.57000  0.61860  Biso   1.000  C
  C720     1.0000 0.81690  0.57000  0.88140  Biso   1.000  C
  H1065    1.0000 0.29900  0.91380  0.37890  Biso   1.000  H
  H1066    1.0000 0.70100  0.91380  0.12110  Biso   1.000  H
  H1067    1.0000 0.79900  0.41380  0.37890  Biso   1.000  H
  H1068    1.0000 0.20100  0.41380  0.12110  Biso   1.000  H
  H1069    1.0000 0.70100  0.08620  0.62110  Biso   1.000  H
  H1070    1.0000 0.29900  0.08620  0.87890  Biso   1.000  H
  H1071    1.0000 0.20100  0.58620  0.62110  Biso   1.000  H
  H1072    1.0000 0.79900  0.58620  0.87890  Biso   1.000  H
  C721     1.0000 0.28360  0.16450  0.32400  Biso   1.000  C
  C722     1.0000 0.71640  0.16450  0.17600  Biso   1.000  C
  C723     1.0000 0.78360  0.66450  0.32400  Biso   1.000  C
  C724     1.0000 0.21640  0.66450  0.17600  Biso   1.000  C
  C725     1.0000 0.71640  0.83550  0.67600  Biso   1.000  C
  C726     1.0000 0.28360  0.83550  0.82400  Biso   1.000  C
  C727     1.0000 0.21640  0.33550  0.67600  Biso   1.000  C
  C728     1.0000 0.78360  0.33550  0.82400  Biso   1.000  C
  H1073    1.0000 0.27020  0.17760  0.30220  Biso   1.000  H
  H1074    1.0000 0.72980  0.17760  0.19780  Biso   1.000  H
  H1075    1.0000 0.77020  0.67760  0.30220  Biso   1.000  H
  H1076    1.0000 0.22980  0.67760  0.19780  Biso   1.000  H
  H1077    1.0000 0.72980  0.82240  0.69780  Biso   1.000  H
  H1078    1.0000 0.27020  0.82240  0.80220  Biso   1.000  H
  H1079    1.0000 0.22980  0.32240  0.69780  Biso   1.000  H
  H1080    1.0000 0.77020  0.32240  0.80220  Biso   1.000  H
  C729     1.0000 0.03340  0.91530  0.32950  Biso   1.000  C
  C730     1.0000 0.96660  0.91530  0.17050  Biso   1.000  C
  C731     1.0000 0.53340  0.41530  0.32950  Biso   1.000  C
  C732     1.0000 0.46660  0.41530  0.17050  Biso   1.000  C
  C733     1.0000 0.96660  0.08470  0.67050  Biso   1.000  C
  C734     1.0000 0.03340  0.08470  0.82950  Biso   1.000  C
  C735     1.0000 0.46660  0.58470  0.67050  Biso   1.000  C
  C736     1.0000 0.53340  0.58470  0.82950  Biso   1.000  C
  H1081    1.0000 0.02010  0.91970  0.30620  Biso   1.000  H
  H1082    1.0000 0.97990  0.91970  0.19380  Biso   1.000  H
  H1083    1.0000 0.52010  0.41970  0.30620  Biso   1.000  H
  H1084    1.0000 0.47990  0.41970  0.19380  Biso   1.000  H
  H1085    1.0000 0.97990  0.08030  0.69380  Biso   1.000  H
  H1086    1.0000 0.02010  0.08030  0.80620  Biso   1.000  H
  H1087    1.0000 0.47990  0.58030  0.69380  Biso   1.000  H
  H1088    1.0000 0.52010  0.58030  0.80620  Biso   1.000  H
  C737     1.0000 0.05970  0.92880  0.32370  Biso   1.000  C
  C738     1.0000 0.94030  0.92880  0.17630  Biso   1.000  C
  C739     1.0000 0.55970  0.42880  0.32370  Biso   1.000  C
  C740     1.0000 0.44030  0.42880  0.17630  Biso   1.000  C
  C741     1.0000 0.94030  0.07120  0.67630  Biso   1.000  C
  C742     1.0000 0.05970  0.07120  0.82370  Biso   1.000  C
  C743     1.0000 0.44030  0.57120  0.67630  Biso   1.000  C
  C744     1.0000 0.55970  0.57120  0.82370  Biso   1.000  C
  H1089    1.0000 0.06440  0.94410  0.29640  Biso   1.000  H
  H1090    1.0000 0.93560  0.94410  0.20360  Biso   1.000  H
  H1091    1.0000 0.56440  0.44410  0.29640  Biso   1.000  H
  H1092    1.0000 0.43560  0.44410  0.20360  Biso   1.000  H
  H1093    1.0000 0.93560  0.05590  0.70360  Biso   1.000  H
  H1094    1.0000 0.06440  0.05590  0.79640  Biso   1.000  H
  H1095    1.0000 0.43560  0.55590  0.70360  Biso   1.000  H
  H1096    1.0000 0.56440  0.55590  0.79640  Biso   1.000  H
  C745     1.0000 0.33180  0.93150  0.42180  Biso   1.000  C
  C746     1.0000 0.66820  0.93150  0.07820  Biso   1.000  C
  C747     1.0000 0.83180  0.43150  0.42180  Biso   1.000  C
  C748     1.0000 0.16820  0.43150  0.07820  Biso   1.000  C
  C749     1.0000 0.66820  0.06850  0.57820  Biso   1.000  C
  C750     1.0000 0.33180  0.06850  0.92180  Biso   1.000  C
  C751     1.0000 0.16820  0.56850  0.57820  Biso   1.000  C
  C752     1.0000 0.83180  0.56850  0.92180  Biso   1.000  C
  H1097    1.0000 0.32390  0.91490  0.44640  Biso   1.000  H
  H1098    1.0000 0.67610  0.91490  0.05360  Biso   1.000  H
  H1099    1.0000 0.82390  0.41490  0.44640  Biso   1.000  H
  H1100    1.0000 0.17610  0.41490  0.05360  Biso   1.000  H
  H1101    1.0000 0.67610  0.08510  0.55360  Biso   1.000  H
  H1102    1.0000 0.32390  0.08510  0.94640  Biso   1.000  H
  H1103    1.0000 0.17610  0.58510  0.55360  Biso   1.000  H
  H1104    1.0000 0.82390  0.58510  0.94640  Biso   1.000  H
  C753     1.0000 0.07200  0.89880  0.39760  Biso   1.000  C
  C754     1.0000 0.92800  0.89880  0.10240  Biso   1.000  C
  C755     1.0000 0.57200  0.39880  0.39760  Biso   1.000  C
  C756     1.0000 0.42800  0.39880  0.10240  Biso   1.000  C
  C757     1.0000 0.92800  0.10120  0.60240  Biso   1.000  C
  C758     1.0000 0.07200  0.10120  0.89760  Biso   1.000  C
  C759     1.0000 0.42800  0.60120  0.60240  Biso   1.000  C
  C760     1.0000 0.57200  0.60120  0.89760  Biso   1.000  C
  H1105    1.0000 0.08550  0.89350  0.42050  Biso   1.000  H
  H1106    1.0000 0.91450  0.89350  0.07950  Biso   1.000  H
  H1107    1.0000 0.58550  0.39350  0.42050  Biso   1.000  H
  H1108    1.0000 0.41450  0.39350  0.07950  Biso   1.000  H
  H1109    1.0000 0.91450  0.10650  0.57950  Biso   1.000  H
  H1110    1.0000 0.08550  0.10650  0.92050  Biso   1.000  H
  H1111    1.0000 0.41450  0.60650  0.57950  Biso   1.000  H
  H1112    1.0000 0.58550  0.60650  0.92050  Biso   1.000  H
  C761     1.0000 0.35810  0.95700  0.42660  Biso   1.000  C
  C762     1.0000 0.64190  0.95700  0.07340  Biso   1.000  C
  C763     1.0000 0.85810  0.45700  0.42660  Biso   1.000  C
  C764     1.0000 0.14190  0.45700  0.07340  Biso   1.000  C
  C765     1.0000 0.64190  0.04300  0.57340  Biso   1.000  C
  C766     1.0000 0.35810  0.04300  0.92660  Biso   1.000  C
  C767     1.0000 0.14190  0.54300  0.57340  Biso   1.000  C
  C768     1.0000 0.85810  0.54300  0.92660  Biso   1.000  C
  H1113    1.0000 0.36810  0.95620  0.45390  Biso   1.000  H
  H1114    1.0000 0.63190  0.95620  0.04610  Biso   1.000  H
  H1115    1.0000 0.86810  0.45620  0.45390  Biso   1.000  H
  H1116    1.0000 0.13190  0.45620  0.04610  Biso   1.000  H
  H1117    1.0000 0.63190  0.04380  0.54610  Biso   1.000  H
  H1118    1.0000 0.36810  0.04380  0.95390  Biso   1.000  H
  H1119    1.0000 0.13190  0.54380  0.54610  Biso   1.000  H
  H1120    1.0000 0.86810  0.54380  0.95390  Biso   1.000  H
  C769     1.0000 0.07930  0.92050  0.35710  Biso   1.000  C
  C770     1.0000 0.92070  0.92050  0.14290  Biso   1.000  C
  C771     1.0000 0.57930  0.42050  0.35710  Biso   1.000  C
  C772     1.0000 0.42070  0.42050  0.14290  Biso   1.000  C
  C773     1.0000 0.92070  0.07950  0.64290  Biso   1.000  C
  C774     1.0000 0.07930  0.07950  0.85710  Biso   1.000  C
  C775     1.0000 0.42070  0.57950  0.64290  Biso   1.000  C
  C776     1.0000 0.57930  0.57950  0.85710  Biso   1.000  C
  H1121    1.0000 0.09740  0.92920  0.35290  Biso   1.000  H
  H1122    1.0000 0.90260  0.92920  0.14710  Biso   1.000  H
  H1123    1.0000 0.59740  0.42920  0.35290  Biso   1.000  H
  H1124    1.0000 0.40260  0.42920  0.14710  Biso   1.000  H
  H1125    1.0000 0.90260  0.07080  0.64710  Biso   1.000  H
  H1126    1.0000 0.09740  0.07080  0.85290  Biso   1.000  H
  H1127    1.0000 0.40260  0.57080  0.64710  Biso   1.000  H
  H1128    1.0000 0.59740  0.57080  0.85290  Biso   1.000  H
  C777     1.0000 0.10550  0.71320  0.43020  Biso   1.000  C
  C778     1.0000 0.89450  0.71320  0.06980  Biso   1.000  C
  C779     1.0000 0.60550  0.21320  0.43020  Biso   1.000  C
  C780     1.0000 0.39450  0.21320  0.06980  Biso   1.000  C
  C781     1.0000 0.89450  0.28680  0.56980  Biso   1.000  C
  C782     1.0000 0.10550  0.28680  0.93020  Biso   1.000  C
  C783     1.0000 0.39450  0.78680  0.56980  Biso   1.000  C
  C784     1.0000 0.60550  0.78680  0.93020  Biso   1.000  C
  H1129    1.0000 0.11580  0.71400  0.45710  Biso   1.000  H
  H1130    1.0000 0.88420  0.71400  0.04290  Biso   1.000  H
  H1131    1.0000 0.61580  0.21400  0.45710  Biso   1.000  H
  H1132    1.0000 0.38420  0.21400  0.04290  Biso   1.000  H
  H1133    1.0000 0.88420  0.28600  0.54290  Biso   1.000  H
  H1134    1.0000 0.11580  0.28600  0.95710  Biso   1.000  H
  H1135    1.0000 0.38420  0.78600  0.54290  Biso   1.000  H
  H1136    1.0000 0.61580  0.78600  0.95710  Biso   1.000  H
  C785     1.0000 0.30970  0.16490  0.31480  Biso   1.000  C
  C786     1.0000 0.69030  0.16490  0.18520  Biso   1.000  C
  C787     1.0000 0.80970  0.66490  0.31480  Biso   1.000  C
  C788     1.0000 0.19030  0.66490  0.18520  Biso   1.000  C
  C789     1.0000 0.69030  0.83510  0.68520  Biso   1.000  C
  C790     1.0000 0.30970  0.83510  0.81480  Biso   1.000  C
  C791     1.0000 0.19030  0.33510  0.68520  Biso   1.000  C
  C792     1.0000 0.80970  0.33510  0.81480  Biso   1.000  C
  H1137    1.0000 0.31430  0.17390  0.28650  Biso   1.000  H
  H1138    1.0000 0.68570  0.17390  0.21350  Biso   1.000  H
  H1139    1.0000 0.81430  0.67390  0.28650  Biso   1.000  H
  H1140    1.0000 0.18570  0.67390  0.21350  Biso   1.000  H
  H1141    1.0000 0.68570  0.82610  0.71350  Biso   1.000  H
  H1142    1.0000 0.31430  0.82610  0.78650  Biso   1.000  H
  H1143    1.0000 0.18570  0.32610  0.71350  Biso   1.000  H
  H1144    1.0000 0.81430  0.32610  0.78650  Biso   1.000  H
  C793     1.0000 0.08060  0.68410  0.42630  Biso   1.000  C
  C794     1.0000 0.91940  0.68410  0.07370  Biso   1.000  C
  C795     1.0000 0.58060  0.18410  0.42630  Biso   1.000  C
  C796     1.0000 0.41940  0.18410  0.07370  Biso   1.000  C
  C797     1.0000 0.91940  0.31590  0.57370  Biso   1.000  C
  C798     1.0000 0.08060  0.31590  0.92630  Biso   1.000  C
  C799     1.0000 0.41940  0.81590  0.57370  Biso   1.000  C
  C800     1.0000 0.58060  0.81590  0.92630  Biso   1.000  C
  H1145    1.0000 0.07360  0.66490  0.45100  Biso   1.000  H
  H1146    1.0000 0.92640  0.66490  0.04900  Biso   1.000  H
  H1147    1.0000 0.57360  0.16490  0.45100  Biso   1.000  H
  H1148    1.0000 0.42640  0.16490  0.04900  Biso   1.000  H
  H1149    1.0000 0.92640  0.33510  0.54900  Biso   1.000  H
  H1150    1.0000 0.07360  0.33510  0.95100  Biso   1.000  H
  H1151    1.0000 0.42640  0.83510  0.54900  Biso   1.000  H
  H1152    1.0000 0.57360  0.83510  0.95100  Biso   1.000  H
  C801     1.0000 0.12550  0.80140  0.57800  Biso   1.000  C
  C802     1.0000 0.87450  0.80140  0.92200  Biso   1.000  C
  C803     1.0000 0.62550  0.30140  0.57800  Biso   1.000  C
  C804     1.0000 0.37450  0.30140  0.92200  Biso   1.000  C
  C805     1.0000 0.87450  0.19860  0.42200  Biso   1.000  C
  C806     1.0000 0.12550  0.19860  0.07800  Biso   1.000  C
  C807     1.0000 0.37450  0.69860  0.42200  Biso   1.000  C
  C808     1.0000 0.62550  0.69860  0.07800  Biso   1.000  C
  H1153    1.0000 0.11460  0.76270  0.58680  Biso   1.000  H
  H1154    1.0000 0.88540  0.76270  0.91320  Biso   1.000  H
  H1155    1.0000 0.61460  0.26270  0.58680  Biso   1.000  H
  H1156    1.0000 0.38540  0.26270  0.91320  Biso   1.000  H
  H1157    1.0000 0.88540  0.23730  0.41320  Biso   1.000  H
  H1158    1.0000 0.11460  0.23730  0.08680  Biso   1.000  H
  H1159    1.0000 0.38540  0.73730  0.41320  Biso   1.000  H
  H1160    1.0000 0.61460  0.73730  0.08680  Biso   1.000  H
  H1161    1.0000 0.12870  0.83390  0.60200  Biso   1.000  H
  H1162    1.0000 0.87130  0.83390  0.89800  Biso   1.000  H
  H1163    1.0000 0.62870  0.33390  0.60200  Biso   1.000  H
  H1164    1.0000 0.37130  0.33390  0.89800  Biso   1.000  H
  H1165    1.0000 0.87130  0.16610  0.39800  Biso   1.000  H
  H1166    1.0000 0.12870  0.16610  0.10200  Biso   1.000  H
  H1167    1.0000 0.37130  0.66610  0.39800  Biso   1.000  H
  H1168    1.0000 0.62870  0.66610  0.10200  Biso   1.000  H
  H1169    1.0000 0.14260  0.78380  0.56970  Biso   1.000  H
  H1170    1.0000 0.85740  0.78380  0.93030  Biso   1.000  H
  H1171    1.0000 0.64260  0.28380  0.56970  Biso   1.000  H
  H1172    1.0000 0.35740  0.28380  0.93030  Biso   1.000  H
  H1173    1.0000 0.85740  0.21620  0.43030  Biso   1.000  H
  H1174    1.0000 0.14260  0.21620  0.06970  Biso   1.000  H
  H1175    1.0000 0.35740  0.71620  0.43030  Biso   1.000  H
  H1176    1.0000 0.64260  0.71620  0.06970  Biso   1.000  H
  C809     1.0000 0.11130  0.83720  0.54090  Biso   1.000  C
  C810     1.0000 0.88870  0.83720  0.95910  Biso   1.000  C
  C811     1.0000 0.61130  0.33720  0.54090  Biso   1.000  C
  C812     1.0000 0.38870  0.33720  0.95910  Biso   1.000  C
  C813     1.0000 0.88870  0.16280  0.45910  Biso   1.000  C
  C814     1.0000 0.11130  0.16280  0.04090  Biso   1.000  C
  C815     1.0000 0.38870  0.66280  0.45910  Biso   1.000  C
  C816     1.0000 0.61130  0.66280  0.04090  Biso   1.000  C
  H1177    1.0000 0.10730  0.80350  0.51690  Biso   1.000  H
  H1178    1.0000 0.89270  0.80350  0.98310  Biso   1.000  H
  H1179    1.0000 0.60730  0.30350  0.51690  Biso   1.000  H
  H1180    1.0000 0.39270  0.30350  0.98310  Biso   1.000  H
  H1181    1.0000 0.89270  0.19650  0.48310  Biso   1.000  H
  H1182    1.0000 0.10730  0.19650  0.01690  Biso   1.000  H
  H1183    1.0000 0.39270  0.69650  0.48310  Biso   1.000  H
  H1184    1.0000 0.60730  0.69650  0.01690  Biso   1.000  H
  C817     1.0000 0.11520  0.74210  0.39320  Biso   1.000  C
  C818     1.0000 0.88480  0.74210  0.10680  Biso   1.000  C
  C819     1.0000 0.61520  0.24210  0.39320  Biso   1.000  C
  C820     1.0000 0.38480  0.24210  0.10680  Biso   1.000  C
  C821     1.0000 0.88480  0.25790  0.60680  Biso   1.000  C
  C822     1.0000 0.11520  0.25790  0.89320  Biso   1.000  C
  C823     1.0000 0.38480  0.75790  0.60680  Biso   1.000  C
  C824     1.0000 0.61520  0.75790  0.89320  Biso   1.000  C
  H1185    1.0000 0.13240  0.76240  0.39520  Biso   1.000  H
  H1186    1.0000 0.86760  0.76240  0.10480  Biso   1.000  H
  H1187    1.0000 0.63240  0.26240  0.39520  Biso   1.000  H
  H1188    1.0000 0.36760  0.26240  0.10480  Biso   1.000  H
  H1189    1.0000 0.86760  0.23760  0.60480  Biso   1.000  H
  H1190    1.0000 0.13240  0.23760  0.89520  Biso   1.000  H
  H1191    1.0000 0.36760  0.73760  0.60480  Biso   1.000  H
  H1192    1.0000 0.63240  0.73760  0.89520  Biso   1.000  H
  C825     1.0000 0.12860  0.89040  0.52730  Biso   1.000  C
  C826     1.0000 0.87140  0.89040  0.97270  Biso   1.000  C
  C827     1.0000 0.62860  0.39040  0.52730  Biso   1.000  C
  C828     1.0000 0.37140  0.39040  0.97270  Biso   1.000  C
  C829     1.0000 0.87140  0.10960  0.47270  Biso   1.000  C
  C830     1.0000 0.12860  0.10960  0.02730  Biso   1.000  C
  C831     1.0000 0.37140  0.60960  0.47270  Biso   1.000  C
  C832     1.0000 0.62860  0.60960  0.02730  Biso   1.000  C
  H1193    1.0000 0.12040  0.91250  0.50120  Biso   1.000  H
  H1194    1.0000 0.87960  0.91250  0.99880  Biso   1.000  H
  H1195    1.0000 0.62040  0.41250  0.50120  Biso   1.000  H
  H1196    1.0000 0.37960  0.41250  0.99880  Biso   1.000  H
  H1197    1.0000 0.87960  0.08750  0.49880  Biso   1.000  H
  H1198    1.0000 0.12040  0.08750  0.00120  Biso   1.000  H
  H1199    1.0000 0.37960  0.58750  0.49880  Biso   1.000  H
  H1200    1.0000 0.62040  0.58750  0.00120  Biso   1.000  H
  H1201    1.0000 0.14570  0.86980  0.52140  Biso   1.000  H
  H1202    1.0000 0.85430  0.86980  0.97860  Biso   1.000  H
  H1203    1.0000 0.64570  0.36980  0.52140  Biso   1.000  H
  H1204    1.0000 0.35430  0.36980  0.97860  Biso   1.000  H
  H1205    1.0000 0.85430  0.13020  0.47860  Biso   1.000  H
  H1206    1.0000 0.14570  0.13020  0.02140  Biso   1.000  H
  H1207    1.0000 0.35430  0.63020  0.47860  Biso   1.000  H
  H1208    1.0000 0.64570  0.63020  0.02140  Biso   1.000  H
  H1209    1.0000 0.13160  0.92500  0.55020  Biso   1.000  H
  H1210    1.0000 0.86840  0.92500  0.94980  Biso   1.000  H
  H1211    1.0000 0.63160  0.42500  0.55020  Biso   1.000  H
  H1212    1.0000 0.36840  0.42500  0.94980  Biso   1.000  H
  H1213    1.0000 0.86840  0.07500  0.44980  Biso   1.000  H
  H1214    1.0000 0.13160  0.07500  0.05020  Biso   1.000  H
  H1215    1.0000 0.36840  0.57500  0.44980  Biso   1.000  H
  H1216    1.0000 0.63160  0.57500  0.05020  Biso   1.000  H
