data_image0
_cell_length_a       20.303
_cell_length_b       20.303
_cell_length_c       53.196
_cell_angle_alpha    90
_cell_angle_beta     90
_cell_angle_gamma    120

_symmetry_space_group_name_H-M    "P 1"
_symmetry_int_tables_number       1

loop_
  _symmetry_equiv_pos_as_xyz
  'x, y, z'

loop_
  _atom_site_label
  _atom_site_occupancy
  _atom_site_fract_x
  _atom_site_fract_y
  _atom_site_fract_z
  _atom_site_thermal_displace_type
  _atom_site_B_iso_or_equiv
  _atom_site_type_symbol
  Cu1      1.0000 0.33322  0.33500  0.07733  Biso   1.000  Cu
  Cu2      1.0000 0.66500  0.99822  0.07733  Biso   1.000  Cu
  Cu3      1.0000 0.00178  0.66678  0.07733  Biso   1.000  Cu
  Cu4      1.0000 0.33500  0.33322  0.92267  Biso   1.000  Cu
  Cu5      1.0000 0.99822  0.66500  0.92267  Biso   1.000  Cu
  Cu6      1.0000 0.66678  0.00178  0.92267  Biso   1.000  Cu
  Cu7      1.0000 0.99989  0.66833  0.41066  Biso   1.000  Cu
  Cu8      1.0000 0.33167  0.33155  0.41066  Biso   1.000  Cu
  Cu9      1.0000 0.66845  0.00011  0.41066  Biso   1.000  Cu
  Cu10     1.0000 0.00167  0.66655  0.25600  Biso   1.000  Cu
  Cu11     1.0000 0.66489  0.99833  0.25600  Biso   1.000  Cu
  Cu12     1.0000 0.33345  0.33511  0.25600  Biso   1.000  Cu
  Cu13     1.0000 0.66655  0.00167  0.74400  Biso   1.000  Cu
  Cu14     1.0000 0.99833  0.66489  0.74400  Biso   1.000  Cu
  Cu15     1.0000 0.33511  0.33345  0.74400  Biso   1.000  Cu
  Cu16     1.0000 0.66833  0.99989  0.58934  Biso   1.000  Cu
  Cu17     1.0000 0.33155  0.33167  0.58934  Biso   1.000  Cu
  Cu18     1.0000 0.00011  0.66845  0.58934  Biso   1.000  Cu
  Cu19     1.0000 0.66678  0.66500  0.92267  Biso   1.000  Cu
  Cu20     1.0000 0.33500  0.00178  0.92267  Biso   1.000  Cu
  Cu21     1.0000 0.99822  0.33322  0.92267  Biso   1.000  Cu
  Cu22     1.0000 0.66500  0.66678  0.07733  Biso   1.000  Cu
  Cu23     1.0000 0.00178  0.33500  0.07733  Biso   1.000  Cu
  Cu24     1.0000 0.33322  0.99822  0.07733  Biso   1.000  Cu
  Cu25     1.0000 0.33345  0.99833  0.25600  Biso   1.000  Cu
  Cu26     1.0000 0.00167  0.33511  0.25600  Biso   1.000  Cu
  Cu27     1.0000 0.66489  0.66655  0.25600  Biso   1.000  Cu
  Cu28     1.0000 0.33167  0.00011  0.41066  Biso   1.000  Cu
  Cu29     1.0000 0.66845  0.66833  0.41066  Biso   1.000  Cu
  Cu30     1.0000 0.99989  0.33155  0.41066  Biso   1.000  Cu
  Cu31     1.0000 0.00011  0.33167  0.58934  Biso   1.000  Cu
  Cu32     1.0000 0.66833  0.66845  0.58934  Biso   1.000  Cu
  Cu33     1.0000 0.33155  0.99989  0.58934  Biso   1.000  Cu
  Cu34     1.0000 0.99833  0.33345  0.74400  Biso   1.000  Cu
  Cu35     1.0000 0.33511  0.00167  0.74400  Biso   1.000  Cu
  Cu36     1.0000 0.66655  0.66489  0.74400  Biso   1.000  Cu
  W1       1.0000 0.06059  0.12117  0.06863  Biso   1.000  W
  W2       1.0000 0.87883  0.93942  0.06863  Biso   1.000  W
  W3       1.0000 0.06058  0.93941  0.06863  Biso   1.000  W
  W4       1.0000 0.12117  0.06059  0.93137  Biso   1.000  W
  W5       1.0000 0.93942  0.87883  0.93137  Biso   1.000  W
  W6       1.0000 0.93941  0.06058  0.93137  Biso   1.000  W
  W7       1.0000 0.72725  0.45450  0.40197  Biso   1.000  W
  W8       1.0000 0.54550  0.27275  0.40197  Biso   1.000  W
  W9       1.0000 0.72725  0.27275  0.40197  Biso   1.000  W
  W10      1.0000 0.78784  0.39392  0.26470  Biso   1.000  W
  W11      1.0000 0.60608  0.21216  0.26470  Biso   1.000  W
  W12      1.0000 0.60608  0.39392  0.26470  Biso   1.000  W
  W13      1.0000 0.39392  0.78784  0.73530  Biso   1.000  W
  W14      1.0000 0.21216  0.60608  0.73530  Biso   1.000  W
  W15      1.0000 0.39392  0.60608  0.73530  Biso   1.000  W
  W16      1.0000 0.45450  0.72725  0.59803  Biso   1.000  W
  W17      1.0000 0.27275  0.54550  0.59803  Biso   1.000  W
  W18      1.0000 0.27275  0.72725  0.59803  Biso   1.000  W
  W19      1.0000 0.17317  0.17770  0.12140  Biso   1.000  W
  W20      1.0000 0.82230  0.99548  0.12140  Biso   1.000  W
  W21      1.0000 0.00452  0.82683  0.12140  Biso   1.000  W
  W22      1.0000 0.17770  0.17317  0.87860  Biso   1.000  W
  W23      1.0000 0.99548  0.82230  0.87860  Biso   1.000  W
  W24      1.0000 0.82683  0.00452  0.87860  Biso   1.000  W
  W25      1.0000 0.83984  0.51103  0.45473  Biso   1.000  W
  W26      1.0000 0.48897  0.32881  0.45473  Biso   1.000  W
  W27      1.0000 0.67119  0.16016  0.45473  Biso   1.000  W
  W28      1.0000 0.84436  0.50651  0.21193  Biso   1.000  W
  W29      1.0000 0.66214  0.15564  0.21193  Biso   1.000  W
  W30      1.0000 0.49349  0.33786  0.21193  Biso   1.000  W
  W31      1.0000 0.50651  0.84436  0.78807  Biso   1.000  W
  W32      1.0000 0.15564  0.66214  0.78807  Biso   1.000  W
  W33      1.0000 0.33786  0.49349  0.78807  Biso   1.000  W
  W34      1.0000 0.51103  0.83984  0.54527  Biso   1.000  W
  W35      1.0000 0.32881  0.48897  0.54527  Biso   1.000  W
  W36      1.0000 0.16016  0.67119  0.54527  Biso   1.000  W
  W37      1.0000 0.82683  0.82230  0.87860  Biso   1.000  W
  W38      1.0000 0.17770  0.00452  0.87860  Biso   1.000  W
  W39      1.0000 0.99548  0.17317  0.87860  Biso   1.000  W
  W40      1.0000 0.82230  0.82683  0.12140  Biso   1.000  W
  W41      1.0000 0.00452  0.17770  0.12140  Biso   1.000  W
  W42      1.0000 0.17317  0.99548  0.12140  Biso   1.000  W
  W43      1.0000 0.49349  0.15564  0.21193  Biso   1.000  W
  W44      1.0000 0.84436  0.33786  0.21193  Biso   1.000  W
  W45      1.0000 0.66214  0.50651  0.21193  Biso   1.000  W
  W46      1.0000 0.48897  0.16016  0.45473  Biso   1.000  W
  W47      1.0000 0.67119  0.51103  0.45473  Biso   1.000  W
  W48      1.0000 0.83984  0.32881  0.45473  Biso   1.000  W
  W49      1.0000 0.16016  0.48897  0.54527  Biso   1.000  W
  W50      1.0000 0.51103  0.67119  0.54527  Biso   1.000  W
  W51      1.0000 0.32881  0.83984  0.54527  Biso   1.000  W
  W52      1.0000 0.15564  0.49349  0.78807  Biso   1.000  W
  W53      1.0000 0.33786  0.84436  0.78807  Biso   1.000  W
  W54      1.0000 0.50651  0.66214  0.78807  Biso   1.000  W
  W55      1.0000 0.11237  0.05618  0.17829  Biso   1.000  W
  W56      1.0000 0.94382  0.05619  0.17829  Biso   1.000  W
  W57      1.0000 0.94381  0.88763  0.17829  Biso   1.000  W
  W58      1.0000 0.05618  0.11237  0.82171  Biso   1.000  W
  W59      1.0000 0.05619  0.94382  0.82171  Biso   1.000  W
  W60      1.0000 0.88763  0.94381  0.82171  Biso   1.000  W
  W61      1.0000 0.77904  0.38952  0.51163  Biso   1.000  W
  W62      1.0000 0.61048  0.38952  0.51163  Biso   1.000  W
  W63      1.0000 0.61048  0.22096  0.51163  Biso   1.000  W
  W64      1.0000 0.72285  0.44570  0.15504  Biso   1.000  W
  W65      1.0000 0.72285  0.27715  0.15504  Biso   1.000  W
  W66      1.0000 0.55430  0.27715  0.15504  Biso   1.000  W
  W67      1.0000 0.44570  0.72285  0.84496  Biso   1.000  W
  W68      1.0000 0.27715  0.72285  0.84496  Biso   1.000  W
  W69      1.0000 0.27715  0.55430  0.84496  Biso   1.000  W
  W70      1.0000 0.38952  0.77904  0.48837  Biso   1.000  W
  W71      1.0000 0.38952  0.61048  0.48837  Biso   1.000  W
  W72      1.0000 0.22096  0.61048  0.48837  Biso   1.000  W
  W73      1.0000 0.22054  0.61027  0.07026  Biso   1.000  W
  W74      1.0000 0.38973  0.61027  0.07026  Biso   1.000  W
  W75      1.0000 0.38973  0.77946  0.07026  Biso   1.000  W
  W76      1.0000 0.61027  0.22054  0.92974  Biso   1.000  W
  W77      1.0000 0.61027  0.38973  0.92974  Biso   1.000  W
  W78      1.0000 0.77946  0.38973  0.92974  Biso   1.000  W
  W79      1.0000 0.88721  0.94360  0.40360  Biso   1.000  W
  W80      1.0000 0.05640  0.94360  0.40360  Biso   1.000  W
  W81      1.0000 0.05640  0.11279  0.40360  Biso   1.000  W
  W82      1.0000 0.27694  0.55387  0.26307  Biso   1.000  W
  W83      1.0000 0.27694  0.72306  0.26307  Biso   1.000  W
  W84      1.0000 0.44613  0.72306  0.26307  Biso   1.000  W
  W85      1.0000 0.55387  0.27694  0.73693  Biso   1.000  W
  W86      1.0000 0.72306  0.27694  0.73693  Biso   1.000  W
  W87      1.0000 0.72306  0.44613  0.73693  Biso   1.000  W
  W88      1.0000 0.94360  0.88721  0.59640  Biso   1.000  W
  W89      1.0000 0.94360  0.05640  0.59640  Biso   1.000  W
  W90      1.0000 0.11279  0.05640  0.59640  Biso   1.000  W
  W91      1.0000 0.51148  0.67103  0.01350  Biso   1.000  W
  W92      1.0000 0.32897  0.84045  0.01350  Biso   1.000  W
  W93      1.0000 0.15955  0.48852  0.01350  Biso   1.000  W
  W94      1.0000 0.67103  0.51148  0.98650  Biso   1.000  W
  W95      1.0000 0.84045  0.32897  0.98650  Biso   1.000  W
  W96      1.0000 0.48852  0.15955  0.98650  Biso   1.000  W
  W97      1.0000 0.17815  0.00436  0.34683  Biso   1.000  W
  W98      1.0000 0.99564  0.17378  0.34683  Biso   1.000  W
  W99      1.0000 0.82622  0.82185  0.34683  Biso   1.000  W
  W100     1.0000 0.33770  0.84481  0.31983  Biso   1.000  W
  W101     1.0000 0.50712  0.66230  0.31983  Biso   1.000  W
  W102     1.0000 0.15519  0.49288  0.31983  Biso   1.000  W
  W103     1.0000 0.84481  0.33770  0.68017  Biso   1.000  W
  W104     1.0000 0.66230  0.50712  0.68017  Biso   1.000  W
  W105     1.0000 0.49288  0.15519  0.68017  Biso   1.000  W
  W106     1.0000 0.00436  0.17815  0.65317  Biso   1.000  W
  W107     1.0000 0.17378  0.99564  0.65317  Biso   1.000  W
  W108     1.0000 0.82185  0.82622  0.65317  Biso   1.000  W
  W109     1.0000 0.48852  0.32897  0.98650  Biso   1.000  W
  W110     1.0000 0.67103  0.15955  0.98650  Biso   1.000  W
  W111     1.0000 0.84045  0.51148  0.98650  Biso   1.000  W
  W112     1.0000 0.32897  0.48852  0.01350  Biso   1.000  W
  W113     1.0000 0.15955  0.67103  0.01350  Biso   1.000  W
  W114     1.0000 0.51148  0.84045  0.01350  Biso   1.000  W
  W115     1.0000 0.15519  0.66230  0.31983  Biso   1.000  W
  W116     1.0000 0.33770  0.49288  0.31983  Biso   1.000  W
  W117     1.0000 0.50712  0.84481  0.31983  Biso   1.000  W
  W118     1.0000 0.99564  0.82185  0.34683  Biso   1.000  W
  W119     1.0000 0.82622  0.00436  0.34683  Biso   1.000  W
  W120     1.0000 0.17815  0.17378  0.34683  Biso   1.000  W
  W121     1.0000 0.82185  0.99564  0.65317  Biso   1.000  W
  W122     1.0000 0.00436  0.82622  0.65317  Biso   1.000  W
  W123     1.0000 0.17378  0.17815  0.65317  Biso   1.000  W
  W124     1.0000 0.66230  0.15519  0.68017  Biso   1.000  W
  W125     1.0000 0.49288  0.33770  0.68017  Biso   1.000  W
  W126     1.0000 0.84481  0.50712  0.68017  Biso   1.000  W
  W127     1.0000 0.45469  0.72734  0.96106  Biso   1.000  W
  W128     1.0000 0.27266  0.72735  0.96106  Biso   1.000  W
  W129     1.0000 0.27265  0.54531  0.96106  Biso   1.000  W
  W130     1.0000 0.72734  0.45469  0.03894  Biso   1.000  W
  W131     1.0000 0.72735  0.27266  0.03894  Biso   1.000  W
  W132     1.0000 0.54531  0.27265  0.03894  Biso   1.000  W
  W133     1.0000 0.12136  0.06067  0.29439  Biso   1.000  W
  W134     1.0000 0.93933  0.06068  0.29439  Biso   1.000  W
  W135     1.0000 0.93932  0.87864  0.29439  Biso   1.000  W
  W136     1.0000 0.39401  0.78802  0.37227  Biso   1.000  W
  W137     1.0000 0.39402  0.60599  0.37227  Biso   1.000  W
  W138     1.0000 0.21198  0.60598  0.37227  Biso   1.000  W
  W139     1.0000 0.78802  0.39401  0.62773  Biso   1.000  W
  W140     1.0000 0.60599  0.39402  0.62773  Biso   1.000  W
  W141     1.0000 0.60598  0.21198  0.62773  Biso   1.000  W
  W142     1.0000 0.06067  0.12136  0.70561  Biso   1.000  W
  W143     1.0000 0.06068  0.93933  0.70561  Biso   1.000  W
  W144     1.0000 0.87864  0.93932  0.70561  Biso   1.000  W
  P1       1.0000 0.00000  0.00000  0.12213  Biso   1.000  P
  P2       1.0000 0.00000  0.00000  0.87787  Biso   1.000  P
  P3       1.0000 0.66667  0.33333  0.45546  Biso   1.000  P
  P4       1.0000 0.66667  0.33333  0.21120  Biso   1.000  P
  P5       1.0000 0.33333  0.66667  0.78880  Biso   1.000  P
  P6       1.0000 0.33333  0.66667  0.54454  Biso   1.000  P
  P7       1.0000 0.33330  0.66670  0.01424  Biso   1.000  P
  P8       1.0000 0.66670  0.33330  0.98576  Biso   1.000  P
  P9       1.0000 0.99997  0.00003  0.34757  Biso   1.000  P
  P10      1.0000 0.33337  0.66663  0.31909  Biso   1.000  P
  P11      1.0000 0.66663  0.33337  0.68091  Biso   1.000  P
  P12      1.0000 0.00003  0.99997  0.65243  Biso   1.000  P
  N1       1.0000 0.24740  0.35510  0.07626  Biso   1.000  N
  N2       1.0000 0.64490  0.89230  0.07626  Biso   1.000  N
  N3       1.0000 0.10770  0.75260  0.07626  Biso   1.000  N
  N4       1.0000 0.35510  0.24740  0.92374  Biso   1.000  N
  N5       1.0000 0.89230  0.64490  0.92374  Biso   1.000  N
  N6       1.0000 0.75260  0.10770  0.92374  Biso   1.000  N
  N7       1.0000 0.91407  0.68843  0.40959  Biso   1.000  N
  N8       1.0000 0.31157  0.22563  0.40959  Biso   1.000  N
  N9       1.0000 0.77437  0.08593  0.40959  Biso   1.000  N
  N10      1.0000 0.02177  0.58073  0.25707  Biso   1.000  N
  N11      1.0000 0.55897  0.97823  0.25707  Biso   1.000  N
  N12      1.0000 0.41927  0.44103  0.25707  Biso   1.000  N
  N13      1.0000 0.58073  0.02177  0.74293  Biso   1.000  N
  N14      1.0000 0.97823  0.55897  0.74293  Biso   1.000  N
  N15      1.0000 0.44103  0.41927  0.74293  Biso   1.000  N
  N16      1.0000 0.68843  0.91407  0.59041  Biso   1.000  N
  N17      1.0000 0.22563  0.31157  0.59041  Biso   1.000  N
  N18      1.0000 0.08593  0.77437  0.59041  Biso   1.000  N
  N19      1.0000 0.75260  0.64490  0.92374  Biso   1.000  N
  N20      1.0000 0.35510  0.10770  0.92374  Biso   1.000  N
  N21      1.0000 0.89230  0.24740  0.92374  Biso   1.000  N
  N22      1.0000 0.64490  0.75260  0.07626  Biso   1.000  N
  N23      1.0000 0.10770  0.35510  0.07626  Biso   1.000  N
  N24      1.0000 0.24740  0.89230  0.07626  Biso   1.000  N
  N25      1.0000 0.41927  0.97823  0.25707  Biso   1.000  N
  N26      1.0000 0.02177  0.44103  0.25707  Biso   1.000  N
  N27      1.0000 0.55897  0.58073  0.25707  Biso   1.000  N
  N28      1.0000 0.31157  0.08593  0.40959  Biso   1.000  N
  N29      1.0000 0.77437  0.68843  0.40959  Biso   1.000  N
  N30      1.0000 0.91407  0.22563  0.40959  Biso   1.000  N
  N31      1.0000 0.08593  0.31157  0.59041  Biso   1.000  N
  N32      1.0000 0.68843  0.77437  0.59041  Biso   1.000  N
  N33      1.0000 0.22563  0.91407  0.59041  Biso   1.000  N
  N34      1.0000 0.97823  0.41927  0.74293  Biso   1.000  N
  N35      1.0000 0.44103  0.02177  0.74293  Biso   1.000  N
  N36      1.0000 0.58073  0.55897  0.74293  Biso   1.000  N
  N37      1.0000 0.33650  0.23820  0.07375  Biso   1.000  N
  N38      1.0000 0.76180  0.09830  0.07375  Biso   1.000  N
  N39      1.0000 0.90170  0.66350  0.07375  Biso   1.000  N
  N40      1.0000 0.23820  0.33650  0.92625  Biso   1.000  N
  N41      1.0000 0.09830  0.76180  0.92625  Biso   1.000  N
  N42      1.0000 0.66350  0.90170  0.92625  Biso   1.000  N
  N43      1.0000 0.00317  0.57153  0.40708  Biso   1.000  N
  N44      1.0000 0.42847  0.43163  0.40708  Biso   1.000  N
  N45      1.0000 0.56837  0.99683  0.40708  Biso   1.000  N
  N46      1.0000 0.90487  0.66983  0.25958  Biso   1.000  N
  N47      1.0000 0.76497  0.09513  0.25958  Biso   1.000  N
  N48      1.0000 0.33017  0.23503  0.25958  Biso   1.000  N
  N49      1.0000 0.66983  0.90487  0.74042  Biso   1.000  N
  N50      1.0000 0.09513  0.76497  0.74042  Biso   1.000  N
  N51      1.0000 0.23503  0.33017  0.74042  Biso   1.000  N
  N52      1.0000 0.57153  0.00317  0.59292  Biso   1.000  N
  N53      1.0000 0.43163  0.42847  0.59292  Biso   1.000  N
  N54      1.0000 0.99683  0.56837  0.59292  Biso   1.000  N
  N55      1.0000 0.66350  0.76180  0.92625  Biso   1.000  N
  N56      1.0000 0.23820  0.90170  0.92625  Biso   1.000  N
  N57      1.0000 0.09830  0.33650  0.92625  Biso   1.000  N
  N58      1.0000 0.76180  0.66350  0.07375  Biso   1.000  N
  N59      1.0000 0.90170  0.23820  0.07375  Biso   1.000  N
  N60      1.0000 0.33650  0.09830  0.07375  Biso   1.000  N
  N61      1.0000 0.33017  0.09513  0.25958  Biso   1.000  N
  N62      1.0000 0.90487  0.23503  0.25958  Biso   1.000  N
  N63      1.0000 0.76497  0.66983  0.25958  Biso   1.000  N
  N64      1.0000 0.42847  0.99683  0.40708  Biso   1.000  N
  N65      1.0000 0.56837  0.57153  0.40708  Biso   1.000  N
  N66      1.0000 0.00317  0.43163  0.40708  Biso   1.000  N
  N67      1.0000 0.99683  0.42847  0.59292  Biso   1.000  N
  N68      1.0000 0.57153  0.56837  0.59292  Biso   1.000  N
  N69      1.0000 0.43163  0.00317  0.59292  Biso   1.000  N
  N70      1.0000 0.09513  0.33017  0.74042  Biso   1.000  N
  N71      1.0000 0.23503  0.90487  0.74042  Biso   1.000  N
  N72      1.0000 0.66983  0.76497  0.74042  Biso   1.000  N
  N73      1.0000 0.44370  0.41850  0.07955  Biso   1.000  N
  N74      1.0000 0.58150  0.02520  0.07955  Biso   1.000  N
  N75      1.0000 0.97480  0.55630  0.07955  Biso   1.000  N
  N76      1.0000 0.41850  0.44370  0.92045  Biso   1.000  N
  N77      1.0000 0.02520  0.58150  0.92045  Biso   1.000  N
  N78      1.0000 0.55630  0.97480  0.92045  Biso   1.000  N
  N79      1.0000 0.11037  0.75183  0.41288  Biso   1.000  N
  N80      1.0000 0.24817  0.35853  0.41288  Biso   1.000  N
  N81      1.0000 0.64147  0.88963  0.41288  Biso   1.000  N
  N82      1.0000 0.08517  0.77703  0.25378  Biso   1.000  N
  N83      1.0000 0.69187  0.91483  0.25378  Biso   1.000  N
  N84      1.0000 0.22297  0.30813  0.25378  Biso   1.000  N
  N85      1.0000 0.77703  0.08517  0.74622  Biso   1.000  N
  N86      1.0000 0.91483  0.69187  0.74622  Biso   1.000  N
  N87      1.0000 0.30813  0.22297  0.74622  Biso   1.000  N
  N88      1.0000 0.75183  0.11037  0.58712  Biso   1.000  N
  N89      1.0000 0.35853  0.24817  0.58712  Biso   1.000  N
  N90      1.0000 0.88963  0.64147  0.58712  Biso   1.000  N
  N91      1.0000 0.55630  0.58150  0.92045  Biso   1.000  N
  N92      1.0000 0.41850  0.97480  0.92045  Biso   1.000  N
  N93      1.0000 0.02520  0.44370  0.92045  Biso   1.000  N
  N94      1.0000 0.58150  0.55630  0.07955  Biso   1.000  N
  N95      1.0000 0.97480  0.41850  0.07955  Biso   1.000  N
  N96      1.0000 0.44370  0.02520  0.07955  Biso   1.000  N
  N97      1.0000 0.22297  0.91483  0.25378  Biso   1.000  N
  N98      1.0000 0.08517  0.30813  0.25378  Biso   1.000  N
  N99      1.0000 0.69187  0.77703  0.25378  Biso   1.000  N
  N100     1.0000 0.24817  0.88963  0.41288  Biso   1.000  N
  N101     1.0000 0.64147  0.75183  0.41288  Biso   1.000  N
  N102     1.0000 0.11037  0.35853  0.41288  Biso   1.000  N
  N103     1.0000 0.88963  0.24817  0.58712  Biso   1.000  N
  N104     1.0000 0.75183  0.64147  0.58712  Biso   1.000  N
  N105     1.0000 0.35853  0.11037  0.58712  Biso   1.000  N
  N106     1.0000 0.91483  0.22297  0.74622  Biso   1.000  N
  N107     1.0000 0.30813  0.08517  0.74622  Biso   1.000  N
  N108     1.0000 0.77703  0.69187  0.74622  Biso   1.000  N
  O1       1.0000 0.04070  0.08150  0.11324  Biso   1.000  O
  O2       1.0000 0.91850  0.95920  0.11324  Biso   1.000  O
  O3       1.0000 0.04080  0.95930  0.11324  Biso   1.000  O
  O4       1.0000 0.08150  0.04070  0.88676  Biso   1.000  O
  O5       1.0000 0.95920  0.91850  0.88676  Biso   1.000  O
  O6       1.0000 0.95930  0.04080  0.88676  Biso   1.000  O
  O7       1.0000 0.70737  0.41483  0.44657  Biso   1.000  O
  O8       1.0000 0.58517  0.29253  0.44657  Biso   1.000  O
  O9       1.0000 0.70747  0.29263  0.44657  Biso   1.000  O
  O10      1.0000 0.74817  0.37403  0.22009  Biso   1.000  O
  O11      1.0000 0.62587  0.25183  0.22009  Biso   1.000  O
  O12      1.0000 0.62597  0.37413  0.22009  Biso   1.000  O
  O13      1.0000 0.37403  0.74817  0.77991  Biso   1.000  O
  O14      1.0000 0.25183  0.62587  0.77991  Biso   1.000  O
  O15      1.0000 0.37413  0.62597  0.77991  Biso   1.000  O
  O16      1.0000 0.41483  0.70737  0.55343  Biso   1.000  O
  O17      1.0000 0.29253  0.58517  0.55343  Biso   1.000  O
  O18      1.0000 0.29263  0.70747  0.55343  Biso   1.000  O
  O19      1.0000 0.00000  0.00000  0.15120  Biso   1.000  O
  O20      1.0000 0.00000  0.00000  0.84880  Biso   1.000  O
  O21      1.0000 0.66667  0.33333  0.48453  Biso   1.000  O
  O22      1.0000 0.66667  0.33333  0.18213  Biso   1.000  O
  O23      1.0000 0.33333  0.66667  0.81787  Biso   1.000  O
  O24      1.0000 0.33333  0.66667  0.51547  Biso   1.000  O
  O25      1.0000 0.15600  0.18100  0.08625  Biso   1.000  O
  O26      1.0000 0.81900  0.97500  0.08625  Biso   1.000  O
  O27      1.0000 0.02500  0.84400  0.08625  Biso   1.000  O
  O28      1.0000 0.18100  0.15600  0.91375  Biso   1.000  O
  O29      1.0000 0.97500  0.81900  0.91375  Biso   1.000  O
  O30      1.0000 0.84400  0.02500  0.91375  Biso   1.000  O
  O31      1.0000 0.82267  0.51433  0.41958  Biso   1.000  O
  O32      1.0000 0.48567  0.30833  0.41958  Biso   1.000  O
  O33      1.0000 0.69167  0.17733  0.41958  Biso   1.000  O
  O34      1.0000 0.84767  0.48933  0.24708  Biso   1.000  O
  O35      1.0000 0.64167  0.15233  0.24708  Biso   1.000  O
  O36      1.0000 0.51067  0.35833  0.24708  Biso   1.000  O
  O37      1.0000 0.48933  0.84767  0.75292  Biso   1.000  O
  O38      1.0000 0.15233  0.64167  0.75292  Biso   1.000  O
  O39      1.0000 0.35833  0.51067  0.75292  Biso   1.000  O
  O40      1.0000 0.51433  0.82267  0.58042  Biso   1.000  O
  O41      1.0000 0.30833  0.48567  0.58042  Biso   1.000  O
  O42      1.0000 0.17733  0.69167  0.58042  Biso   1.000  O
  O43      1.0000 0.84400  0.81900  0.91375  Biso   1.000  O
  O44      1.0000 0.18100  0.02500  0.91375  Biso   1.000  O
  O45      1.0000 0.97500  0.15600  0.91375  Biso   1.000  O
  O46      1.0000 0.81900  0.84400  0.08625  Biso   1.000  O
  O47      1.0000 0.02500  0.18100  0.08625  Biso   1.000  O
  O48      1.0000 0.15600  0.97500  0.08625  Biso   1.000  O
  O49      1.0000 0.51067  0.15233  0.24708  Biso   1.000  O
  O50      1.0000 0.84767  0.35833  0.24708  Biso   1.000  O
  O51      1.0000 0.64167  0.48933  0.24708  Biso   1.000  O
  O52      1.0000 0.48567  0.17733  0.41958  Biso   1.000  O
  O53      1.0000 0.69167  0.51433  0.41958  Biso   1.000  O
  O54      1.0000 0.82267  0.30833  0.41958  Biso   1.000  O
  O55      1.0000 0.17733  0.48567  0.58042  Biso   1.000  O
  O56      1.0000 0.51433  0.69167  0.58042  Biso   1.000  O
  O57      1.0000 0.30833  0.82267  0.58042  Biso   1.000  O
  O58      1.0000 0.15233  0.51067  0.75292  Biso   1.000  O
  O59      1.0000 0.35833  0.84767  0.75292  Biso   1.000  O
  O60      1.0000 0.48933  0.64167  0.75292  Biso   1.000  O
  O61      1.0000 0.95730  0.04270  0.06467  Biso   1.000  O
  O62      1.0000 0.95730  0.91460  0.06467  Biso   1.000  O
  O63      1.0000 0.08540  0.04270  0.06467  Biso   1.000  O
  O64      1.0000 0.04270  0.95730  0.93533  Biso   1.000  O
  O65      1.0000 0.91460  0.95730  0.93533  Biso   1.000  O
  O66      1.0000 0.04270  0.08540  0.93533  Biso   1.000  O
  O67      1.0000 0.62397  0.37603  0.39800  Biso   1.000  O
  O68      1.0000 0.62397  0.24793  0.39800  Biso   1.000  O
  O69      1.0000 0.75207  0.37603  0.39800  Biso   1.000  O
  O70      1.0000 0.70937  0.29063  0.26866  Biso   1.000  O
  O71      1.0000 0.58127  0.29063  0.26866  Biso   1.000  O
  O72      1.0000 0.70937  0.41873  0.26866  Biso   1.000  O
  O73      1.0000 0.29063  0.70937  0.73134  Biso   1.000  O
  O74      1.0000 0.29063  0.58127  0.73134  Biso   1.000  O
  O75      1.0000 0.41873  0.70937  0.73134  Biso   1.000  O
  O76      1.0000 0.37603  0.62397  0.60200  Biso   1.000  O
  O77      1.0000 0.24793  0.62397  0.60200  Biso   1.000  O
  O78      1.0000 0.37603  0.75207  0.60200  Biso   1.000  O
  O79      1.0000 0.08160  0.16310  0.03986  Biso   1.000  O
  O80      1.0000 0.83690  0.91850  0.03986  Biso   1.000  O
  O81      1.0000 0.08150  0.91840  0.03986  Biso   1.000  O
  O82      1.0000 0.16310  0.08160  0.96014  Biso   1.000  O
  O83      1.0000 0.91850  0.83690  0.96014  Biso   1.000  O
  O84      1.0000 0.91840  0.08150  0.96014  Biso   1.000  O
  O85      1.0000 0.74827  0.49643  0.37319  Biso   1.000  O
  O86      1.0000 0.50357  0.25183  0.37319  Biso   1.000  O
  O87      1.0000 0.74817  0.25173  0.37319  Biso   1.000  O
  O88      1.0000 0.82977  0.41493  0.29347  Biso   1.000  O
  O89      1.0000 0.58517  0.17023  0.29347  Biso   1.000  O
  O90      1.0000 0.58507  0.41483  0.29347  Biso   1.000  O
  O91      1.0000 0.41493  0.82977  0.70653  Biso   1.000  O
  O92      1.0000 0.17023  0.58517  0.70653  Biso   1.000  O
  O93      1.0000 0.41483  0.58507  0.70653  Biso   1.000  O
  O94      1.0000 0.49643  0.74827  0.62681  Biso   1.000  O
  O95      1.0000 0.25183  0.50357  0.62681  Biso   1.000  O
  O96      1.0000 0.25173  0.74817  0.62681  Biso   1.000  O
  O97      1.0000 0.14800  0.13730  0.15461  Biso   1.000  O
  O98      1.0000 0.86270  0.01070  0.15461  Biso   1.000  O
  O99      1.0000 0.98930  0.85200  0.15461  Biso   1.000  O
  O100     1.0000 0.13730  0.14800  0.84539  Biso   1.000  O
  O101     1.0000 0.01070  0.86270  0.84539  Biso   1.000  O
  O102     1.0000 0.85200  0.98930  0.84539  Biso   1.000  O
  O103     1.0000 0.81467  0.47063  0.48794  Biso   1.000  O
  O104     1.0000 0.52937  0.34403  0.48794  Biso   1.000  O
  O105     1.0000 0.65597  0.18533  0.48794  Biso   1.000  O
  O106     1.0000 0.80397  0.48133  0.17872  Biso   1.000  O
  O107     1.0000 0.67737  0.19603  0.17872  Biso   1.000  O
  O108     1.0000 0.51867  0.32263  0.17872  Biso   1.000  O
  O109     1.0000 0.48133  0.80397  0.82128  Biso   1.000  O
  O110     1.0000 0.19603  0.67737  0.82128  Biso   1.000  O
  O111     1.0000 0.32263  0.51867  0.82128  Biso   1.000  O
  O112     1.0000 0.47063  0.81467  0.51206  Biso   1.000  O
  O113     1.0000 0.34403  0.52937  0.51206  Biso   1.000  O
  O114     1.0000 0.18533  0.65597  0.51206  Biso   1.000  O
  O115     1.0000 0.85200  0.86270  0.84539  Biso   1.000  O
  O116     1.0000 0.13730  0.98930  0.84539  Biso   1.000  O
  O117     1.0000 0.01070  0.14800  0.84539  Biso   1.000  O
  O118     1.0000 0.86270  0.85200  0.15461  Biso   1.000  O
  O119     1.0000 0.98930  0.13730  0.15461  Biso   1.000  O
  O120     1.0000 0.14800  0.01070  0.15461  Biso   1.000  O
  O121     1.0000 0.51867  0.19603  0.17872  Biso   1.000  O
  O122     1.0000 0.80397  0.32263  0.17872  Biso   1.000  O
  O123     1.0000 0.67737  0.48133  0.17872  Biso   1.000  O
  O124     1.0000 0.52937  0.18533  0.48794  Biso   1.000  O
  O125     1.0000 0.65597  0.47063  0.48794  Biso   1.000  O
  O126     1.0000 0.81467  0.34403  0.48794  Biso   1.000  O
  O127     1.0000 0.18533  0.52937  0.51206  Biso   1.000  O
  O128     1.0000 0.47063  0.65597  0.51206  Biso   1.000  O
  O129     1.0000 0.34403  0.81467  0.51206  Biso   1.000  O
  O130     1.0000 0.19603  0.51867  0.82128  Biso   1.000  O
  O131     1.0000 0.32263  0.80397  0.82128  Biso   1.000  O
  O132     1.0000 0.48133  0.67737  0.82128  Biso   1.000  O
  O133     1.0000 0.11230  0.22460  0.12590  Biso   1.000  O
  O134     1.0000 0.77540  0.88770  0.12590  Biso   1.000  O
  O135     1.0000 0.11230  0.88770  0.12590  Biso   1.000  O
  O136     1.0000 0.22460  0.11230  0.87410  Biso   1.000  O
  O137     1.0000 0.88770  0.77540  0.87410  Biso   1.000  O
  O138     1.0000 0.88770  0.11230  0.87410  Biso   1.000  O
  O139     1.0000 0.77897  0.55793  0.45923  Biso   1.000  O
  O140     1.0000 0.44207  0.22103  0.45923  Biso   1.000  O
  O141     1.0000 0.77897  0.22103  0.45923  Biso   1.000  O
  O142     1.0000 0.89127  0.44563  0.20743  Biso   1.000  O
  O143     1.0000 0.55437  0.10873  0.20743  Biso   1.000  O
  O144     1.0000 0.55437  0.44563  0.20743  Biso   1.000  O
  O145     1.0000 0.44563  0.89127  0.79257  Biso   1.000  O
  O146     1.0000 0.10873  0.55437  0.79257  Biso   1.000  O
  O147     1.0000 0.44563  0.55437  0.79257  Biso   1.000  O
  O148     1.0000 0.55793  0.77897  0.54077  Biso   1.000  O
  O149     1.0000 0.22103  0.44207  0.54077  Biso   1.000  O
  O150     1.0000 0.22103  0.77897  0.54077  Biso   1.000  O
  O151     1.0000 0.19210  0.09600  0.11514  Biso   1.000  O
  O152     1.0000 0.90400  0.09610  0.11514  Biso   1.000  O
  O153     1.0000 0.90390  0.80790  0.11514  Biso   1.000  O
  O154     1.0000 0.09600  0.19210  0.88486  Biso   1.000  O
  O155     1.0000 0.09610  0.90400  0.88486  Biso   1.000  O
  O156     1.0000 0.80790  0.90390  0.88486  Biso   1.000  O
  O157     1.0000 0.85877  0.42933  0.44847  Biso   1.000  O
  O158     1.0000 0.57067  0.42943  0.44847  Biso   1.000  O
  O159     1.0000 0.57057  0.14123  0.44847  Biso   1.000  O
  O160     1.0000 0.76267  0.52543  0.21819  Biso   1.000  O
  O161     1.0000 0.76277  0.23733  0.21819  Biso   1.000  O
  O162     1.0000 0.47457  0.23723  0.21819  Biso   1.000  O
  O163     1.0000 0.52543  0.76267  0.78181  Biso   1.000  O
  O164     1.0000 0.23733  0.76277  0.78181  Biso   1.000  O
  O165     1.0000 0.23723  0.47457  0.78181  Biso   1.000  O
  O166     1.0000 0.42933  0.85877  0.55153  Biso   1.000  O
  O167     1.0000 0.42943  0.57067  0.55153  Biso   1.000  O
  O168     1.0000 0.14123  0.57057  0.55153  Biso   1.000  O
  O169     1.0000 0.26250  0.25480  0.12498  Biso   1.000  O
  O170     1.0000 0.74520  0.00770  0.12498  Biso   1.000  O
  O171     1.0000 0.99230  0.73750  0.12498  Biso   1.000  O
  O172     1.0000 0.25480  0.26250  0.87502  Biso   1.000  O
  O173     1.0000 0.00770  0.74520  0.87502  Biso   1.000  O
  O174     1.0000 0.73750  0.99230  0.87502  Biso   1.000  O
  O175     1.0000 0.92917  0.58813  0.45831  Biso   1.000  O
  O176     1.0000 0.41187  0.34103  0.45831  Biso   1.000  O
  O177     1.0000 0.65897  0.07083  0.45831  Biso   1.000  O
  O178     1.0000 0.92147  0.59583  0.20835  Biso   1.000  O
  O179     1.0000 0.67437  0.07853  0.20835  Biso   1.000  O
  O180     1.0000 0.40417  0.32563  0.20835  Biso   1.000  O
  O181     1.0000 0.59583  0.92147  0.79165  Biso   1.000  O
  O182     1.0000 0.07853  0.67437  0.79165  Biso   1.000  O
  O183     1.0000 0.32563  0.40417  0.79165  Biso   1.000  O
  O184     1.0000 0.58813  0.92917  0.54169  Biso   1.000  O
  O185     1.0000 0.34103  0.41187  0.54169  Biso   1.000  O
  O186     1.0000 0.07083  0.65897  0.54169  Biso   1.000  O
  O187     1.0000 0.73750  0.74520  0.87502  Biso   1.000  O
  O188     1.0000 0.25480  0.99230  0.87502  Biso   1.000  O
  O189     1.0000 0.00770  0.26250  0.87502  Biso   1.000  O
  O190     1.0000 0.74520  0.73750  0.12498  Biso   1.000  O
  O191     1.0000 0.99230  0.25480  0.12498  Biso   1.000  O
  O192     1.0000 0.26250  0.00770  0.12498  Biso   1.000  O
  O193     1.0000 0.40417  0.07853  0.20835  Biso   1.000  O
  O194     1.0000 0.92147  0.32563  0.20835  Biso   1.000  O
  O195     1.0000 0.67437  0.59583  0.20835  Biso   1.000  O
  O196     1.0000 0.41187  0.07083  0.45831  Biso   1.000  O
  O197     1.0000 0.65897  0.58813  0.45831  Biso   1.000  O
  O198     1.0000 0.92917  0.34103  0.45831  Biso   1.000  O
  O199     1.0000 0.07083  0.41187  0.54169  Biso   1.000  O
  O200     1.0000 0.58813  0.65897  0.54169  Biso   1.000  O
  O201     1.0000 0.34103  0.92917  0.54169  Biso   1.000  O
  O202     1.0000 0.07853  0.40417  0.79165  Biso   1.000  O
  O203     1.0000 0.32563  0.92147  0.79165  Biso   1.000  O
  O204     1.0000 0.59583  0.67437  0.79165  Biso   1.000  O
  O205     1.0000 0.04350  0.08700  0.19063  Biso   1.000  O
  O206     1.0000 0.91300  0.95650  0.19063  Biso   1.000  O
  O207     1.0000 0.04350  0.95650  0.19063  Biso   1.000  O
  O208     1.0000 0.08700  0.04350  0.80937  Biso   1.000  O
  O209     1.0000 0.95650  0.91300  0.80937  Biso   1.000  O
  O210     1.0000 0.95650  0.04350  0.80937  Biso   1.000  O
  O211     1.0000 0.71017  0.42033  0.52396  Biso   1.000  O
  O212     1.0000 0.57967  0.28983  0.52396  Biso   1.000  O
  O213     1.0000 0.71017  0.28983  0.52396  Biso   1.000  O
  O214     1.0000 0.75367  0.37683  0.14270  Biso   1.000  O
  O215     1.0000 0.62317  0.24633  0.14270  Biso   1.000  O
  O216     1.0000 0.62317  0.37683  0.14270  Biso   1.000  O
  O217     1.0000 0.37683  0.75367  0.85730  Biso   1.000  O
  O218     1.0000 0.24633  0.62317  0.85730  Biso   1.000  O
  O219     1.0000 0.37683  0.62317  0.85730  Biso   1.000  O
  O220     1.0000 0.42033  0.71017  0.47604  Biso   1.000  O
  O221     1.0000 0.28983  0.57967  0.47604  Biso   1.000  O
  O222     1.0000 0.28983  0.71017  0.47604  Biso   1.000  O
  O223     1.0000 0.18240  0.09120  0.19945  Biso   1.000  O
  O224     1.0000 0.90880  0.09120  0.19945  Biso   1.000  O
  O225     1.0000 0.90880  0.81760  0.19945  Biso   1.000  O
  O226     1.0000 0.09120  0.18240  0.80055  Biso   1.000  O
  O227     1.0000 0.09120  0.90880  0.80055  Biso   1.000  O
  O228     1.0000 0.81760  0.90880  0.80055  Biso   1.000  O
  O229     1.0000 0.84907  0.42453  0.53278  Biso   1.000  O
  O230     1.0000 0.57547  0.42453  0.53278  Biso   1.000  O
  O231     1.0000 0.57547  0.15093  0.53278  Biso   1.000  O
  O232     1.0000 0.75787  0.51573  0.13388  Biso   1.000  O
  O233     1.0000 0.75787  0.24213  0.13388  Biso   1.000  O
  O234     1.0000 0.48427  0.24213  0.13388  Biso   1.000  O
  O235     1.0000 0.51573  0.75787  0.86612  Biso   1.000  O
  O236     1.0000 0.24213  0.75787  0.86612  Biso   1.000  O
  O237     1.0000 0.24213  0.48427  0.86612  Biso   1.000  O
  O238     1.0000 0.42453  0.84907  0.46722  Biso   1.000  O
  O239     1.0000 0.42453  0.57547  0.46722  Biso   1.000  O
  O240     1.0000 0.15093  0.57547  0.46722  Biso   1.000  O
  O241     1.0000 0.33330  0.66670  0.04320  Biso   1.000  O
  O242     1.0000 0.66670  0.33330  0.95680  Biso   1.000  O
  O243     1.0000 0.99997  0.00003  0.37653  Biso   1.000  O
  O244     1.0000 0.33337  0.66663  0.29013  Biso   1.000  O
  O245     1.0000 0.66663  0.33337  0.70987  Biso   1.000  O
  O246     1.0000 0.00003  0.99997  0.62347  Biso   1.000  O
  O247     1.0000 0.41490  0.70740  0.00561  Biso   1.000  O
  O248     1.0000 0.29260  0.70750  0.00561  Biso   1.000  O
  O249     1.0000 0.29250  0.58510  0.00561  Biso   1.000  O
  O250     1.0000 0.70740  0.41490  0.99439  Biso   1.000  O
  O251     1.0000 0.70750  0.29260  0.99439  Biso   1.000  O
  O252     1.0000 0.58510  0.29250  0.99439  Biso   1.000  O
  O253     1.0000 0.08157  0.04073  0.33894  Biso   1.000  O
  O254     1.0000 0.95927  0.04083  0.33894  Biso   1.000  O
  O255     1.0000 0.95917  0.91843  0.33894  Biso   1.000  O
  O256     1.0000 0.37407  0.74823  0.32772  Biso   1.000  O
  O257     1.0000 0.37417  0.62593  0.32772  Biso   1.000  O
  O258     1.0000 0.25177  0.62583  0.32772  Biso   1.000  O
  O259     1.0000 0.74823  0.37407  0.67228  Biso   1.000  O
  O260     1.0000 0.62593  0.37417  0.67228  Biso   1.000  O
  O261     1.0000 0.62583  0.25177  0.67228  Biso   1.000  O
  O262     1.0000 0.04073  0.08157  0.66106  Biso   1.000  O
  O263     1.0000 0.04083  0.95927  0.66106  Biso   1.000  O
  O264     1.0000 0.91843  0.95917  0.66106  Biso   1.000  O
  O265     1.0000 0.18460  0.52900  0.04599  Biso   1.000  O
  O266     1.0000 0.47100  0.65560  0.04599  Biso   1.000  O
  O267     1.0000 0.34440  0.81540  0.04599  Biso   1.000  O
  O268     1.0000 0.52900  0.18460  0.95401  Biso   1.000  O
  O269     1.0000 0.65560  0.47100  0.95401  Biso   1.000  O
  O270     1.0000 0.81540  0.34440  0.95401  Biso   1.000  O
  O271     1.0000 0.85127  0.86233  0.37932  Biso   1.000  O
  O272     1.0000 0.13767  0.98893  0.37932  Biso   1.000  O
  O273     1.0000 0.01107  0.14873  0.37932  Biso   1.000  O
  O274     1.0000 0.19567  0.51793  0.28734  Biso   1.000  O
  O275     1.0000 0.32227  0.80433  0.28734  Biso   1.000  O
  O276     1.0000 0.48207  0.67773  0.28734  Biso   1.000  O
  O277     1.0000 0.51793  0.19567  0.71266  Biso   1.000  O
  O278     1.0000 0.80433  0.32227  0.71266  Biso   1.000  O
  O279     1.0000 0.67773  0.48207  0.71266  Biso   1.000  O
  O280     1.0000 0.86233  0.85127  0.62068  Biso   1.000  O
  O281     1.0000 0.98893  0.13767  0.62068  Biso   1.000  O
  O282     1.0000 0.14873  0.01107  0.62068  Biso   1.000  O
  O283     1.0000 0.81540  0.47100  0.95401  Biso   1.000  O
  O284     1.0000 0.52900  0.34440  0.95401  Biso   1.000  O
  O285     1.0000 0.65560  0.18460  0.95401  Biso   1.000  O
  O286     1.0000 0.47100  0.81540  0.04599  Biso   1.000  O
  O287     1.0000 0.34440  0.52900  0.04599  Biso   1.000  O
  O288     1.0000 0.18460  0.65560  0.04599  Biso   1.000  O
  O289     1.0000 0.48207  0.80433  0.28734  Biso   1.000  O
  O290     1.0000 0.19567  0.67773  0.28734  Biso   1.000  O
  O291     1.0000 0.32227  0.51793  0.28734  Biso   1.000  O
  O292     1.0000 0.13767  0.14873  0.37932  Biso   1.000  O
  O293     1.0000 0.01107  0.86233  0.37932  Biso   1.000  O
  O294     1.0000 0.85127  0.98893  0.37932  Biso   1.000  O
  O295     1.0000 0.14873  0.13767  0.62068  Biso   1.000  O
  O296     1.0000 0.86233  0.01107  0.62068  Biso   1.000  O
  O297     1.0000 0.98893  0.85127  0.62068  Biso   1.000  O
  O298     1.0000 0.80433  0.48207  0.71266  Biso   1.000  O
  O299     1.0000 0.67773  0.19567  0.71266  Biso   1.000  O
  O300     1.0000 0.51793  0.32227  0.71266  Biso   1.000  O
  O301     1.0000 0.29040  0.70960  0.08270  Biso   1.000  O
  O302     1.0000 0.29040  0.58080  0.08270  Biso   1.000  O
  O303     1.0000 0.41920  0.70960  0.08270  Biso   1.000  O
  O304     1.0000 0.70960  0.29040  0.91730  Biso   1.000  O
  O305     1.0000 0.58080  0.29040  0.91730  Biso   1.000  O
  O306     1.0000 0.70960  0.41920  0.91730  Biso   1.000  O
  O307     1.0000 0.95707  0.04293  0.41603  Biso   1.000  O
  O308     1.0000 0.95707  0.91413  0.41603  Biso   1.000  O
  O309     1.0000 0.08587  0.04293  0.41603  Biso   1.000  O
  O310     1.0000 0.37627  0.62373  0.25063  Biso   1.000  O
  O311     1.0000 0.24747  0.62373  0.25063  Biso   1.000  O
  O312     1.0000 0.37627  0.75253  0.25063  Biso   1.000  O
  O313     1.0000 0.62373  0.37627  0.74937  Biso   1.000  O
  O314     1.0000 0.62373  0.24747  0.74937  Biso   1.000  O
  O315     1.0000 0.75253  0.37627  0.74937  Biso   1.000  O
  O316     1.0000 0.04293  0.95707  0.58397  Biso   1.000  O
  O317     1.0000 0.91413  0.95707  0.58397  Biso   1.000  O
  O318     1.0000 0.04293  0.08587  0.58397  Biso   1.000  O
  O319     1.0000 0.15140  0.57570  0.09227  Biso   1.000  O
  O320     1.0000 0.42430  0.57570  0.09227  Biso   1.000  O
  O321     1.0000 0.42430  0.84860  0.09227  Biso   1.000  O
  O322     1.0000 0.57570  0.15140  0.90773  Biso   1.000  O
  O323     1.0000 0.57570  0.42430  0.90773  Biso   1.000  O
  O324     1.0000 0.84860  0.42430  0.90773  Biso   1.000  O
  O325     1.0000 0.81807  0.90903  0.42560  Biso   1.000  O
  O326     1.0000 0.09097  0.90903  0.42560  Biso   1.000  O
  O327     1.0000 0.09097  0.18193  0.42560  Biso   1.000  O
  O328     1.0000 0.24237  0.48473  0.24106  Biso   1.000  O
  O329     1.0000 0.24237  0.75763  0.24106  Biso   1.000  O
  O330     1.0000 0.51527  0.75763  0.24106  Biso   1.000  O
  O331     1.0000 0.48473  0.24237  0.75894  Biso   1.000  O
  O332     1.0000 0.75763  0.24237  0.75894  Biso   1.000  O
  O333     1.0000 0.75763  0.51527  0.75894  Biso   1.000  O
  O334     1.0000 0.90903  0.81807  0.57440  Biso   1.000  O
  O335     1.0000 0.90903  0.09097  0.57440  Biso   1.000  O
  O336     1.0000 0.18193  0.09097  0.57440  Biso   1.000  O
  O337     1.0000 0.51430  0.69160  0.97851  Biso   1.000  O
  O338     1.0000 0.30840  0.82270  0.97851  Biso   1.000  O
  O339     1.0000 0.17730  0.48570  0.97851  Biso   1.000  O
  O340     1.0000 0.69160  0.51430  0.02149  Biso   1.000  O
  O341     1.0000 0.82270  0.30840  0.02149  Biso   1.000  O
  O342     1.0000 0.48570  0.17730  0.02149  Biso   1.000  O
  O343     1.0000 0.18097  0.02493  0.31184  Biso   1.000  O
  O344     1.0000 0.97507  0.15603  0.31184  Biso   1.000  O
  O345     1.0000 0.84397  0.81903  0.31184  Biso   1.000  O
  O346     1.0000 0.35827  0.84763  0.35482  Biso   1.000  O
  O347     1.0000 0.48937  0.64173  0.35482  Biso   1.000  O
  O348     1.0000 0.15237  0.51063  0.35482  Biso   1.000  O
  O349     1.0000 0.84763  0.35827  0.64518  Biso   1.000  O
  O350     1.0000 0.64173  0.48937  0.64518  Biso   1.000  O
  O351     1.0000 0.51063  0.15237  0.64518  Biso   1.000  O
  O352     1.0000 0.02493  0.18097  0.68816  Biso   1.000  O
  O353     1.0000 0.15603  0.97507  0.68816  Biso   1.000  O
  O354     1.0000 0.81903  0.84397  0.68816  Biso   1.000  O
  O355     1.0000 0.48570  0.30840  0.02149  Biso   1.000  O
  O356     1.0000 0.69160  0.17730  0.02149  Biso   1.000  O
  O357     1.0000 0.82270  0.51430  0.02149  Biso   1.000  O
  O358     1.0000 0.30840  0.48570  0.97851  Biso   1.000  O
  O359     1.0000 0.17730  0.69160  0.97851  Biso   1.000  O
  O360     1.0000 0.51430  0.82270  0.97851  Biso   1.000  O
  O361     1.0000 0.15237  0.64173  0.35482  Biso   1.000  O
  O362     1.0000 0.35827  0.51063  0.35482  Biso   1.000  O
  O363     1.0000 0.48937  0.84763  0.35482  Biso   1.000  O
  O364     1.0000 0.97507  0.81903  0.31184  Biso   1.000  O
  O365     1.0000 0.84397  0.02493  0.31184  Biso   1.000  O
  O366     1.0000 0.18097  0.15603  0.31184  Biso   1.000  O
  O367     1.0000 0.81903  0.97507  0.68816  Biso   1.000  O
  O368     1.0000 0.02493  0.84397  0.68816  Biso   1.000  O
  O369     1.0000 0.15603  0.18097  0.68816  Biso   1.000  O
  O370     1.0000 0.64173  0.15237  0.64518  Biso   1.000  O
  O371     1.0000 0.51063  0.35827  0.64518  Biso   1.000  O
  O372     1.0000 0.84763  0.48937  0.64518  Biso   1.000  O
  O373     1.0000 0.43000  0.57000  0.00710  Biso   1.000  O
  O374     1.0000 0.43000  0.86000  0.00710  Biso   1.000  O
  O375     1.0000 0.14000  0.57000  0.00710  Biso   1.000  O
  O376     1.0000 0.57000  0.43000  0.99290  Biso   1.000  O
  O377     1.0000 0.86000  0.43000  0.99290  Biso   1.000  O
  O378     1.0000 0.57000  0.14000  0.99290  Biso   1.000  O
  O379     1.0000 0.09667  0.90333  0.34043  Biso   1.000  O
  O380     1.0000 0.09667  0.19333  0.34043  Biso   1.000  O
  O381     1.0000 0.80667  0.90333  0.34043  Biso   1.000  O
  O382     1.0000 0.23667  0.76333  0.32623  Biso   1.000  O
  O383     1.0000 0.52667  0.76333  0.32623  Biso   1.000  O
  O384     1.0000 0.23667  0.47333  0.32623  Biso   1.000  O
  O385     1.0000 0.76333  0.23667  0.67377  Biso   1.000  O
  O386     1.0000 0.76333  0.52667  0.67377  Biso   1.000  O
  O387     1.0000 0.47333  0.23667  0.67377  Biso   1.000  O
  O388     1.0000 0.90333  0.09667  0.65957  Biso   1.000  O
  O389     1.0000 0.19333  0.09667  0.65957  Biso   1.000  O
  O390     1.0000 0.90333  0.80667  0.65957  Biso   1.000  O
  O391     1.0000 0.55600  0.77800  0.01910  Biso   1.000  O
  O392     1.0000 0.22200  0.77800  0.01910  Biso   1.000  O
  O393     1.0000 0.22200  0.44400  0.01910  Biso   1.000  O
  O394     1.0000 0.77800  0.55600  0.98090  Biso   1.000  O
  O395     1.0000 0.77800  0.22200  0.98090  Biso   1.000  O
  O396     1.0000 0.44400  0.22200  0.98090  Biso   1.000  O
  O397     1.0000 0.22267  0.11133  0.35243  Biso   1.000  O
  O398     1.0000 0.88867  0.11133  0.35243  Biso   1.000  O
  O399     1.0000 0.88867  0.77733  0.35243  Biso   1.000  O
  O400     1.0000 0.44467  0.88933  0.31423  Biso   1.000  O
  O401     1.0000 0.44467  0.55533  0.31423  Biso   1.000  O
  O402     1.0000 0.11067  0.55533  0.31423  Biso   1.000  O
  O403     1.0000 0.88933  0.44467  0.68577  Biso   1.000  O
  O404     1.0000 0.55533  0.44467  0.68577  Biso   1.000  O
  O405     1.0000 0.55533  0.11067  0.68577  Biso   1.000  O
  O406     1.0000 0.11133  0.22267  0.64757  Biso   1.000  O
  O407     1.0000 0.11133  0.88867  0.64757  Biso   1.000  O
  O408     1.0000 0.77733  0.88867  0.64757  Biso   1.000  O
  O409     1.0000 0.58900  0.65960  0.01758  Biso   1.000  O
  O410     1.0000 0.34040  0.92940  0.01758  Biso   1.000  O
  O411     1.0000 0.07060  0.41100  0.01758  Biso   1.000  O
  O412     1.0000 0.65960  0.58900  0.98242  Biso   1.000  O
  O413     1.0000 0.92940  0.34040  0.98242  Biso   1.000  O
  O414     1.0000 0.41100  0.07060  0.98242  Biso   1.000  O
  O415     1.0000 0.25567  0.99293  0.35091  Biso   1.000  O
  O416     1.0000 0.00707  0.26273  0.35091  Biso   1.000  O
  O417     1.0000 0.73727  0.74433  0.35091  Biso   1.000  O
  O418     1.0000 0.32627  0.92233  0.31575  Biso   1.000  O
  O419     1.0000 0.59607  0.67373  0.31575  Biso   1.000  O
  O420     1.0000 0.07767  0.40393  0.31575  Biso   1.000  O
  O421     1.0000 0.92233  0.32627  0.68425  Biso   1.000  O
  O422     1.0000 0.67373  0.59607  0.68425  Biso   1.000  O
  O423     1.0000 0.40393  0.07767  0.68425  Biso   1.000  O
  O424     1.0000 0.99293  0.25567  0.64909  Biso   1.000  O
  O425     1.0000 0.26273  0.00707  0.64909  Biso   1.000  O
  O426     1.0000 0.74433  0.73727  0.64909  Biso   1.000  O
  O427     1.0000 0.41100  0.34040  0.98242  Biso   1.000  O
  O428     1.0000 0.65960  0.07060  0.98242  Biso   1.000  O
  O429     1.0000 0.92940  0.58900  0.98242  Biso   1.000  O
  O430     1.0000 0.34040  0.41100  0.01758  Biso   1.000  O
  O431     1.0000 0.07060  0.65960  0.01758  Biso   1.000  O
  O432     1.0000 0.58900  0.92940  0.01758  Biso   1.000  O
  O433     1.0000 0.07767  0.67373  0.31575  Biso   1.000  O
  O434     1.0000 0.32627  0.40393  0.31575  Biso   1.000  O
  O435     1.0000 0.59607  0.92233  0.31575  Biso   1.000  O
  O436     1.0000 0.00707  0.74433  0.35091  Biso   1.000  O
  O437     1.0000 0.73727  0.99293  0.35091  Biso   1.000  O
  O438     1.0000 0.25567  0.26273  0.35091  Biso   1.000  O
  O439     1.0000 0.74433  0.00707  0.64909  Biso   1.000  O
  O440     1.0000 0.99293  0.73727  0.64909  Biso   1.000  O
  O441     1.0000 0.26273  0.25567  0.64909  Biso   1.000  O
  O442     1.0000 0.67373  0.07767  0.68425  Biso   1.000  O
  O443     1.0000 0.40393  0.32627  0.68425  Biso   1.000  O
  O444     1.0000 0.92233  0.59607  0.68425  Biso   1.000  O
  O445     1.0000 0.37690  0.75380  0.95727  Biso   1.000  O
  O446     1.0000 0.24620  0.62310  0.95727  Biso   1.000  O
  O447     1.0000 0.37690  0.62310  0.95727  Biso   1.000  O
  O448     1.0000 0.75380  0.37690  0.04273  Biso   1.000  O
  O449     1.0000 0.62310  0.24620  0.04273  Biso   1.000  O
  O450     1.0000 0.62310  0.37690  0.04273  Biso   1.000  O
  O451     1.0000 0.04357  0.08713  0.29060  Biso   1.000  O
  O452     1.0000 0.91287  0.95643  0.29060  Biso   1.000  O
  O453     1.0000 0.04357  0.95643  0.29060  Biso   1.000  O
  O454     1.0000 0.42047  0.71023  0.37606  Biso   1.000  O
  O455     1.0000 0.28977  0.57953  0.37606  Biso   1.000  O
  O456     1.0000 0.28977  0.71023  0.37606  Biso   1.000  O
  O457     1.0000 0.71023  0.42047  0.62394  Biso   1.000  O
  O458     1.0000 0.57953  0.28977  0.62394  Biso   1.000  O
  O459     1.0000 0.71023  0.28977  0.62394  Biso   1.000  O
  O460     1.0000 0.08713  0.04357  0.70940  Biso   1.000  O
  O461     1.0000 0.95643  0.91287  0.70940  Biso   1.000  O
  O462     1.0000 0.95643  0.04357  0.70940  Biso   1.000  O
  O463     1.0000 0.49520  0.74760  0.93240  Biso   1.000  O
  O464     1.0000 0.25240  0.74760  0.93240  Biso   1.000  O
  O465     1.0000 0.25240  0.50480  0.93240  Biso   1.000  O
  O466     1.0000 0.74760  0.49520  0.06760  Biso   1.000  O
  O467     1.0000 0.74760  0.25240  0.06760  Biso   1.000  O
  O468     1.0000 0.50480  0.25240  0.06760  Biso   1.000  O
  O469     1.0000 0.16187  0.08093  0.26573  Biso   1.000  O
  O470     1.0000 0.91907  0.08093  0.26573  Biso   1.000  O
  O471     1.0000 0.91907  0.83813  0.26573  Biso   1.000  O
  O472     1.0000 0.41427  0.82853  0.40093  Biso   1.000  O
  O473     1.0000 0.41427  0.58573  0.40093  Biso   1.000  O
  O474     1.0000 0.17147  0.58573  0.40093  Biso   1.000  O
  O475     1.0000 0.82853  0.41427  0.59907  Biso   1.000  O
  O476     1.0000 0.58573  0.41427  0.59907  Biso   1.000  O
  O477     1.0000 0.58573  0.17147  0.59907  Biso   1.000  O
  O478     1.0000 0.08093  0.16187  0.73427  Biso   1.000  O
  O479     1.0000 0.08093  0.91907  0.73427  Biso   1.000  O
  O480     1.0000 0.83813  0.91907  0.73427  Biso   1.000  O
  C1       1.0000 0.19850  0.32750  0.05807  Biso   1.000  C
  C2       1.0000 0.67250  0.87100  0.05807  Biso   1.000  C
  C3       1.0000 0.12900  0.80150  0.05807  Biso   1.000  C
  C4       1.0000 0.32750  0.19850  0.94193  Biso   1.000  C
  C5       1.0000 0.87100  0.67250  0.94193  Biso   1.000  C
  C6       1.0000 0.80150  0.12900  0.94193  Biso   1.000  C
  C7       1.0000 0.86517  0.66083  0.39140  Biso   1.000  C
  C8       1.0000 0.33917  0.20433  0.39140  Biso   1.000  C
  C9       1.0000 0.79567  0.13483  0.39140  Biso   1.000  C
  C10      1.0000 0.99417  0.53183  0.27526  Biso   1.000  C
  C11      1.0000 0.53767  0.00583  0.27526  Biso   1.000  C
  C12      1.0000 0.46817  0.46233  0.27526  Biso   1.000  C
  C13      1.0000 0.53183  0.99417  0.72474  Biso   1.000  C
  C14      1.0000 0.00583  0.53767  0.72474  Biso   1.000  C
  C15      1.0000 0.46233  0.46817  0.72474  Biso   1.000  C
  C16      1.0000 0.66083  0.86517  0.60860  Biso   1.000  C
  C17      1.0000 0.20433  0.33917  0.60860  Biso   1.000  C
  C18      1.0000 0.13483  0.79567  0.60860  Biso   1.000  C
  C19      1.0000 0.80150  0.67250  0.94193  Biso   1.000  C
  C20      1.0000 0.32750  0.12900  0.94193  Biso   1.000  C
  C21      1.0000 0.87100  0.19850  0.94193  Biso   1.000  C
  C22      1.0000 0.67250  0.80150  0.05807  Biso   1.000  C
  C23      1.0000 0.12900  0.32750  0.05807  Biso   1.000  C
  C24      1.0000 0.19850  0.87100  0.05807  Biso   1.000  C
  C25      1.0000 0.46817  0.00583  0.27526  Biso   1.000  C
  C26      1.0000 0.99417  0.46233  0.27526  Biso   1.000  C
  C27      1.0000 0.53767  0.53183  0.27526  Biso   1.000  C
  C28      1.0000 0.33917  0.13483  0.39140  Biso   1.000  C
  C29      1.0000 0.79567  0.66083  0.39140  Biso   1.000  C
  C30      1.0000 0.86517  0.20433  0.39140  Biso   1.000  C
  C31      1.0000 0.13483  0.33917  0.60860  Biso   1.000  C
  C32      1.0000 0.66083  0.79567  0.60860  Biso   1.000  C
  C33      1.0000 0.20433  0.86517  0.60860  Biso   1.000  C
  C34      1.0000 0.00583  0.46817  0.72474  Biso   1.000  C
  C35      1.0000 0.46233  0.99417  0.72474  Biso   1.000  C
  C36      1.0000 0.53183  0.53767  0.72474  Biso   1.000  C
  H1       1.0000 0.20980  0.30650  0.04430  Biso   1.000  H
  H2       1.0000 0.69350  0.90330  0.04430  Biso   1.000  H
  H3       1.0000 0.09670  0.79020  0.04430  Biso   1.000  H
  H4       1.0000 0.30650  0.20980  0.95570  Biso   1.000  H
  H5       1.0000 0.90330  0.69350  0.95570  Biso   1.000  H
  H6       1.0000 0.79020  0.09670  0.95570  Biso   1.000  H
  H7       1.0000 0.87647  0.63983  0.37763  Biso   1.000  H
  H8       1.0000 0.36017  0.23663  0.37763  Biso   1.000  H
  H9       1.0000 0.76337  0.12353  0.37763  Biso   1.000  H
  H10      1.0000 0.97317  0.54313  0.28903  Biso   1.000  H
  H11      1.0000 0.56997  0.02683  0.28903  Biso   1.000  H
  H12      1.0000 0.45687  0.43003  0.28903  Biso   1.000  H
  H13      1.0000 0.54313  0.97317  0.71097  Biso   1.000  H
  H14      1.0000 0.02683  0.56997  0.71097  Biso   1.000  H
  H15      1.0000 0.43003  0.45687  0.71097  Biso   1.000  H
  H16      1.0000 0.63983  0.87647  0.62237  Biso   1.000  H
  H17      1.0000 0.23663  0.36017  0.62237  Biso   1.000  H
  H18      1.0000 0.12353  0.76337  0.62237  Biso   1.000  H
  H19      1.0000 0.79020  0.69350  0.95570  Biso   1.000  H
  H20      1.0000 0.30650  0.09670  0.95570  Biso   1.000  H
  H21      1.0000 0.90330  0.20980  0.95570  Biso   1.000  H
  H22      1.0000 0.69350  0.79020  0.04430  Biso   1.000  H
  H23      1.0000 0.09670  0.30650  0.04430  Biso   1.000  H
  H24      1.0000 0.20980  0.90330  0.04430  Biso   1.000  H
  H25      1.0000 0.45687  0.02683  0.28903  Biso   1.000  H
  H26      1.0000 0.97317  0.43003  0.28903  Biso   1.000  H
  H27      1.0000 0.56997  0.54313  0.28903  Biso   1.000  H
  H28      1.0000 0.36017  0.12353  0.37763  Biso   1.000  H
  H29      1.0000 0.76337  0.63983  0.37763  Biso   1.000  H
  H30      1.0000 0.87647  0.23663  0.37763  Biso   1.000  H
  H31      1.0000 0.12353  0.36017  0.62237  Biso   1.000  H
  H32      1.0000 0.63983  0.76337  0.62237  Biso   1.000  H
  H33      1.0000 0.23663  0.87647  0.62237  Biso   1.000  H
  H34      1.0000 0.02683  0.45687  0.71097  Biso   1.000  H
  H35      1.0000 0.43003  0.97317  0.71097  Biso   1.000  H
  H36      1.0000 0.54313  0.56997  0.71097  Biso   1.000  H
  C37      1.0000 0.22810  0.38860  0.09630  Biso   1.000  C
  C38      1.0000 0.61140  0.83950  0.09630  Biso   1.000  C
  C39      1.0000 0.16050  0.77190  0.09630  Biso   1.000  C
  C40      1.0000 0.38860  0.22810  0.90370  Biso   1.000  C
  C41      1.0000 0.83950  0.61140  0.90370  Biso   1.000  C
  C42      1.0000 0.77190  0.16050  0.90370  Biso   1.000  C
  C43      1.0000 0.89477  0.72193  0.42963  Biso   1.000  C
  C44      1.0000 0.27807  0.17283  0.42963  Biso   1.000  C
  C45      1.0000 0.82717  0.10523  0.42963  Biso   1.000  C
  C46      1.0000 0.05527  0.56143  0.23703  Biso   1.000  C
  C47      1.0000 0.50617  0.94473  0.23703  Biso   1.000  C
  C48      1.0000 0.43857  0.49383  0.23703  Biso   1.000  C
  C49      1.0000 0.56143  0.05527  0.76297  Biso   1.000  C
  C50      1.0000 0.94473  0.50617  0.76297  Biso   1.000  C
  C51      1.0000 0.49383  0.43857  0.76297  Biso   1.000  C
  C52      1.0000 0.72193  0.89477  0.57037  Biso   1.000  C
  C53      1.0000 0.17283  0.27807  0.57037  Biso   1.000  C
  C54      1.0000 0.10523  0.82717  0.57037  Biso   1.000  C
  C55      1.0000 0.77190  0.61140  0.90370  Biso   1.000  C
  C56      1.0000 0.38860  0.16050  0.90370  Biso   1.000  C
  C57      1.0000 0.83950  0.22810  0.90370  Biso   1.000  C
  C58      1.0000 0.61140  0.77190  0.09630  Biso   1.000  C
  C59      1.0000 0.16050  0.38860  0.09630  Biso   1.000  C
  C60      1.0000 0.22810  0.83950  0.09630  Biso   1.000  C
  C61      1.0000 0.43857  0.94473  0.23703  Biso   1.000  C
  C62      1.0000 0.05527  0.49383  0.23703  Biso   1.000  C
  C63      1.0000 0.50617  0.56143  0.23703  Biso   1.000  C
  C64      1.0000 0.27807  0.10523  0.42963  Biso   1.000  C
  C65      1.0000 0.82717  0.72193  0.42963  Biso   1.000  C
  C66      1.0000 0.89477  0.17283  0.42963  Biso   1.000  C
  C67      1.0000 0.10523  0.27807  0.57037  Biso   1.000  C
  C68      1.0000 0.72193  0.82717  0.57037  Biso   1.000  C
  C69      1.0000 0.17283  0.89477  0.57037  Biso   1.000  C
  C70      1.0000 0.94473  0.43857  0.76297  Biso   1.000  C
  C71      1.0000 0.49383  0.05527  0.76297  Biso   1.000  C
  C72      1.0000 0.56143  0.50617  0.76297  Biso   1.000  C
  C73      1.0000 0.27900  0.42440  0.11640  Biso   1.000  C
  C74      1.0000 0.57560  0.85460  0.11640  Biso   1.000  C
  C75      1.0000 0.14540  0.72100  0.11640  Biso   1.000  C
  C76      1.0000 0.42440  0.27900  0.88360  Biso   1.000  C
  C77      1.0000 0.85460  0.57560  0.88360  Biso   1.000  C
  C78      1.0000 0.72100  0.14540  0.88360  Biso   1.000  C
  C79      1.0000 0.94567  0.75773  0.44973  Biso   1.000  C
  C80      1.0000 0.24227  0.18793  0.44973  Biso   1.000  C
  C81      1.0000 0.81207  0.05433  0.44973  Biso   1.000  C
  C82      1.0000 0.09107  0.61233  0.21693  Biso   1.000  C
  C83      1.0000 0.52127  0.90893  0.21693  Biso   1.000  C
  C84      1.0000 0.38767  0.47873  0.21693  Biso   1.000  C
  C85      1.0000 0.61233  0.09107  0.78307  Biso   1.000  C
  C86      1.0000 0.90893  0.52127  0.78307  Biso   1.000  C
  C87      1.0000 0.47873  0.38767  0.78307  Biso   1.000  C
  C88      1.0000 0.75773  0.94567  0.55027  Biso   1.000  C
  C89      1.0000 0.18793  0.24227  0.55027  Biso   1.000  C
  C90      1.0000 0.05433  0.81207  0.55027  Biso   1.000  C
  C91      1.0000 0.72100  0.57560  0.88360  Biso   1.000  C
  C92      1.0000 0.42440  0.14540  0.88360  Biso   1.000  C
  C93      1.0000 0.85460  0.27900  0.88360  Biso   1.000  C
  C94      1.0000 0.57560  0.72100  0.11640  Biso   1.000  C
  C95      1.0000 0.14540  0.42440  0.11640  Biso   1.000  C
  C96      1.0000 0.27900  0.85460  0.11640  Biso   1.000  C
  C97      1.0000 0.38767  0.90893  0.21693  Biso   1.000  C
  C98      1.0000 0.09107  0.47873  0.21693  Biso   1.000  C
  C99      1.0000 0.52127  0.61233  0.21693  Biso   1.000  C
  C100     1.0000 0.24227  0.05433  0.44973  Biso   1.000  C
  C101     1.0000 0.81207  0.75773  0.44973  Biso   1.000  C
  C102     1.0000 0.94567  0.18793  0.44973  Biso   1.000  C
  C103     1.0000 0.05433  0.24227  0.55027  Biso   1.000  C
  C104     1.0000 0.75773  0.81207  0.55027  Biso   1.000  C
  C105     1.0000 0.18793  0.94567  0.55027  Biso   1.000  C
  C106     1.0000 0.90893  0.38767  0.78307  Biso   1.000  C
  C107     1.0000 0.47873  0.09107  0.78307  Biso   1.000  C
  C108     1.0000 0.61233  0.52127  0.78307  Biso   1.000  C
  H37      1.0000 0.32490  0.42470  0.11670  Biso   1.000  H
  H38      1.0000 0.57530  0.90020  0.11670  Biso   1.000  H
  H39      1.0000 0.09980  0.67510  0.11670  Biso   1.000  H
  H40      1.0000 0.42470  0.32490  0.88330  Biso   1.000  H
  H41      1.0000 0.90020  0.57530  0.88330  Biso   1.000  H
  H42      1.0000 0.67510  0.09980  0.88330  Biso   1.000  H
  H43      1.0000 0.99157  0.75803  0.45003  Biso   1.000  H
  H44      1.0000 0.24197  0.23353  0.45003  Biso   1.000  H
  H45      1.0000 0.76647  0.00843  0.45003  Biso   1.000  H
  H46      1.0000 0.09137  0.65823  0.21663  Biso   1.000  H
  H47      1.0000 0.56687  0.90863  0.21663  Biso   1.000  H
  H48      1.0000 0.34177  0.43313  0.21663  Biso   1.000  H
  H49      1.0000 0.65823  0.09137  0.78337  Biso   1.000  H
  H50      1.0000 0.90863  0.56687  0.78337  Biso   1.000  H
  H51      1.0000 0.43313  0.34177  0.78337  Biso   1.000  H
  H52      1.0000 0.75803  0.99157  0.54997  Biso   1.000  H
  H53      1.0000 0.23353  0.24197  0.54997  Biso   1.000  H
  H54      1.0000 0.00843  0.76647  0.54997  Biso   1.000  H
  H55      1.0000 0.67510  0.57530  0.88330  Biso   1.000  H
  H56      1.0000 0.42470  0.09980  0.88330  Biso   1.000  H
  H57      1.0000 0.90020  0.32490  0.88330  Biso   1.000  H
  H58      1.0000 0.57530  0.67510  0.11670  Biso   1.000  H
  H59      1.0000 0.09980  0.42470  0.11670  Biso   1.000  H
  H60      1.0000 0.32490  0.90020  0.11670  Biso   1.000  H
  H61      1.0000 0.34177  0.90863  0.21663  Biso   1.000  H
  H62      1.0000 0.09137  0.43313  0.21663  Biso   1.000  H
  H63      1.0000 0.56687  0.65823  0.21663  Biso   1.000  H
  H64      1.0000 0.24197  0.00843  0.45003  Biso   1.000  H
  H65      1.0000 0.76647  0.75803  0.45003  Biso   1.000  H
  H66      1.0000 0.99157  0.23353  0.45003  Biso   1.000  H
  H67      1.0000 0.00843  0.24197  0.54997  Biso   1.000  H
  H68      1.0000 0.75803  0.76647  0.54997  Biso   1.000  H
  H69      1.0000 0.23353  0.99157  0.54997  Biso   1.000  H
  H70      1.0000 0.90863  0.34177  0.78337  Biso   1.000  H
  H71      1.0000 0.43313  0.09137  0.78337  Biso   1.000  H
  H72      1.0000 0.65823  0.56687  0.78337  Biso   1.000  H
  C109     1.0000 0.26230  0.45830  0.13510  Biso   1.000  C
  C110     1.0000 0.54170  0.80400  0.13510  Biso   1.000  C
  C111     1.0000 0.19600  0.73770  0.13510  Biso   1.000  C
  C112     1.0000 0.45830  0.26230  0.86490  Biso   1.000  C
  C113     1.0000 0.80400  0.54170  0.86490  Biso   1.000  C
  C114     1.0000 0.73770  0.19600  0.86490  Biso   1.000  C
  C115     1.0000 0.92897  0.79163  0.46843  Biso   1.000  C
  C116     1.0000 0.20837  0.13733  0.46843  Biso   1.000  C
  C117     1.0000 0.86267  0.07103  0.46843  Biso   1.000  C
  C118     1.0000 0.12497  0.59563  0.19823  Biso   1.000  C
  C119     1.0000 0.47067  0.87503  0.19823  Biso   1.000  C
  C120     1.0000 0.40437  0.52933  0.19823  Biso   1.000  C
  C121     1.0000 0.59563  0.12497  0.80177  Biso   1.000  C
  C122     1.0000 0.87503  0.47067  0.80177  Biso   1.000  C
  C123     1.0000 0.52933  0.40437  0.80177  Biso   1.000  C
  C124     1.0000 0.79163  0.92897  0.53157  Biso   1.000  C
  C125     1.0000 0.13733  0.20837  0.53157  Biso   1.000  C
  C126     1.0000 0.07103  0.86267  0.53157  Biso   1.000  C
  C127     1.0000 0.73770  0.54170  0.86490  Biso   1.000  C
  C128     1.0000 0.45830  0.19600  0.86490  Biso   1.000  C
  C129     1.0000 0.80400  0.26230  0.86490  Biso   1.000  C
  C130     1.0000 0.54170  0.73770  0.13510  Biso   1.000  C
  C131     1.0000 0.19600  0.45830  0.13510  Biso   1.000  C
  C132     1.0000 0.26230  0.80400  0.13510  Biso   1.000  C
  C133     1.0000 0.40437  0.87503  0.19823  Biso   1.000  C
  C134     1.0000 0.12497  0.52933  0.19823  Biso   1.000  C
  C135     1.0000 0.47067  0.59563  0.19823  Biso   1.000  C
  C136     1.0000 0.20837  0.07103  0.46843  Biso   1.000  C
  C137     1.0000 0.86267  0.79163  0.46843  Biso   1.000  C
  C138     1.0000 0.92897  0.13733  0.46843  Biso   1.000  C
  C139     1.0000 0.07103  0.20837  0.53157  Biso   1.000  C
  C140     1.0000 0.79163  0.86267  0.53157  Biso   1.000  C
  C141     1.0000 0.13733  0.92897  0.53157  Biso   1.000  C
  C142     1.0000 0.87503  0.40437  0.80177  Biso   1.000  C
  C143     1.0000 0.52933  0.12497  0.80177  Biso   1.000  C
  C144     1.0000 0.59563  0.47067  0.80177  Biso   1.000  C
  H73      1.0000 0.29680  0.48180  0.14820  Biso   1.000  H
  H74      1.0000 0.51820  0.81500  0.14820  Biso   1.000  H
  H75      1.0000 0.18500  0.70320  0.14820  Biso   1.000  H
  H76      1.0000 0.48180  0.29680  0.85180  Biso   1.000  H
  H77      1.0000 0.81500  0.51820  0.85180  Biso   1.000  H
  H78      1.0000 0.70320  0.18500  0.85180  Biso   1.000  H
  H79      1.0000 0.96347  0.81513  0.48153  Biso   1.000  H
  H80      1.0000 0.18487  0.14833  0.48153  Biso   1.000  H
  H81      1.0000 0.85167  0.03653  0.48153  Biso   1.000  H
  H82      1.0000 0.14847  0.63013  0.18513  Biso   1.000  H
  H83      1.0000 0.48167  0.85153  0.18513  Biso   1.000  H
  H84      1.0000 0.36987  0.51833  0.18513  Biso   1.000  H
  H85      1.0000 0.63013  0.14847  0.81487  Biso   1.000  H
  H86      1.0000 0.85153  0.48167  0.81487  Biso   1.000  H
  H87      1.0000 0.51833  0.36987  0.81487  Biso   1.000  H
  H88      1.0000 0.81513  0.96347  0.51847  Biso   1.000  H
  H89      1.0000 0.14833  0.18487  0.51847  Biso   1.000  H
  H90      1.0000 0.03653  0.85167  0.51847  Biso   1.000  H
  H91      1.0000 0.70320  0.51820  0.85180  Biso   1.000  H
  H92      1.0000 0.48180  0.18500  0.85180  Biso   1.000  H
  H93      1.0000 0.81500  0.29680  0.85180  Biso   1.000  H
  H94      1.0000 0.51820  0.70320  0.14820  Biso   1.000  H
  H95      1.0000 0.18500  0.48180  0.14820  Biso   1.000  H
  H96      1.0000 0.29680  0.81500  0.14820  Biso   1.000  H
  H97      1.0000 0.36987  0.85153  0.18513  Biso   1.000  H
  H98      1.0000 0.14847  0.51833  0.18513  Biso   1.000  H
  H99      1.0000 0.48167  0.63013  0.18513  Biso   1.000  H
  H100     1.0000 0.18487  0.03653  0.48153  Biso   1.000  H
  H101     1.0000 0.85167  0.81513  0.48153  Biso   1.000  H
  H102     1.0000 0.96347  0.14833  0.48153  Biso   1.000  H
  H103     1.0000 0.03653  0.18487  0.51847  Biso   1.000  H
  H104     1.0000 0.81513  0.85167  0.51847  Biso   1.000  H
  H105     1.0000 0.14833  0.96347  0.51847  Biso   1.000  H
  H106     1.0000 0.85153  0.36987  0.81487  Biso   1.000  H
  H107     1.0000 0.51833  0.14847  0.81487  Biso   1.000  H
  H108     1.0000 0.63013  0.48167  0.81487  Biso   1.000  H
  C145     1.0000 0.36170  0.21480  0.09290  Biso   1.000  C
  C146     1.0000 0.78520  0.14690  0.09290  Biso   1.000  C
  C147     1.0000 0.85310  0.63830  0.09290  Biso   1.000  C
  C148     1.0000 0.21480  0.36170  0.90710  Biso   1.000  C
  C149     1.0000 0.14690  0.78520  0.90710  Biso   1.000  C
  C150     1.0000 0.63830  0.85310  0.90710  Biso   1.000  C
  C151     1.0000 0.02837  0.54813  0.42623  Biso   1.000  C
  C152     1.0000 0.45187  0.48023  0.42623  Biso   1.000  C
  C153     1.0000 0.51977  0.97163  0.42623  Biso   1.000  C
  C154     1.0000 0.88147  0.69503  0.24043  Biso   1.000  C
  C155     1.0000 0.81357  0.11853  0.24043  Biso   1.000  C
  C156     1.0000 0.30497  0.18643  0.24043  Biso   1.000  C
  C157     1.0000 0.69503  0.88147  0.75957  Biso   1.000  C
  C158     1.0000 0.11853  0.81357  0.75957  Biso   1.000  C
  C159     1.0000 0.18643  0.30497  0.75957  Biso   1.000  C
  C160     1.0000 0.54813  0.02837  0.57377  Biso   1.000  C
  C161     1.0000 0.48023  0.45187  0.57377  Biso   1.000  C
  C162     1.0000 0.97163  0.51977  0.57377  Biso   1.000  C
  C163     1.0000 0.63830  0.78520  0.90710  Biso   1.000  C
  C164     1.0000 0.21480  0.85310  0.90710  Biso   1.000  C
  C165     1.0000 0.14690  0.36170  0.90710  Biso   1.000  C
  C166     1.0000 0.78520  0.63830  0.09290  Biso   1.000  C
  C167     1.0000 0.85310  0.21480  0.09290  Biso   1.000  C
  C168     1.0000 0.36170  0.14690  0.09290  Biso   1.000  C
  C169     1.0000 0.30497  0.11853  0.24043  Biso   1.000  C
  C170     1.0000 0.88147  0.18643  0.24043  Biso   1.000  C
  C171     1.0000 0.81357  0.69503  0.24043  Biso   1.000  C
  C172     1.0000 0.45187  0.97163  0.42623  Biso   1.000  C
  C173     1.0000 0.51977  0.54813  0.42623  Biso   1.000  C
  C174     1.0000 0.02837  0.48023  0.42623  Biso   1.000  C
  C175     1.0000 0.97163  0.45187  0.57377  Biso   1.000  C
  C176     1.0000 0.54813  0.51977  0.57377  Biso   1.000  C
  C177     1.0000 0.48023  0.02837  0.57377  Biso   1.000  C
  C178     1.0000 0.11853  0.30497  0.75957  Biso   1.000  C
  C179     1.0000 0.18643  0.88147  0.75957  Biso   1.000  C
  C180     1.0000 0.69503  0.81357  0.75957  Biso   1.000  C
  H109     1.0000 0.38030  0.24580  0.10700  Biso   1.000  H
  H110     1.0000 0.75420  0.13450  0.10700  Biso   1.000  H
  H111     1.0000 0.86550  0.61970  0.10700  Biso   1.000  H
  H112     1.0000 0.24580  0.38030  0.89300  Biso   1.000  H
  H113     1.0000 0.13450  0.75420  0.89300  Biso   1.000  H
  H114     1.0000 0.61970  0.86550  0.89300  Biso   1.000  H
  H115     1.0000 0.04697  0.57913  0.44033  Biso   1.000  H
  H116     1.0000 0.42087  0.46783  0.44033  Biso   1.000  H
  H117     1.0000 0.53217  0.95303  0.44033  Biso   1.000  H
  H118     1.0000 0.91247  0.71363  0.22633  Biso   1.000  H
  H119     1.0000 0.80117  0.08753  0.22633  Biso   1.000  H
  H120     1.0000 0.28637  0.19883  0.22633  Biso   1.000  H
  H121     1.0000 0.71363  0.91247  0.77367  Biso   1.000  H
  H122     1.0000 0.08753  0.80117  0.77367  Biso   1.000  H
  H123     1.0000 0.19883  0.28637  0.77367  Biso   1.000  H
  H124     1.0000 0.57913  0.04697  0.55967  Biso   1.000  H
  H125     1.0000 0.46783  0.42087  0.55967  Biso   1.000  H
  H126     1.0000 0.95303  0.53217  0.55967  Biso   1.000  H
  H127     1.0000 0.61970  0.75420  0.89300  Biso   1.000  H
  H128     1.0000 0.24580  0.86550  0.89300  Biso   1.000  H
  H129     1.0000 0.13450  0.38030  0.89300  Biso   1.000  H
  H130     1.0000 0.75420  0.61970  0.10700  Biso   1.000  H
  H131     1.0000 0.86550  0.24580  0.10700  Biso   1.000  H
  H132     1.0000 0.38030  0.13450  0.10700  Biso   1.000  H
  H133     1.0000 0.28637  0.08753  0.22633  Biso   1.000  H
  H134     1.0000 0.91247  0.19883  0.22633  Biso   1.000  H
  H135     1.0000 0.80117  0.71363  0.22633  Biso   1.000  H
  H136     1.0000 0.42087  0.95303  0.44033  Biso   1.000  H
  H137     1.0000 0.53217  0.57913  0.44033  Biso   1.000  H
  H138     1.0000 0.04697  0.46783  0.44033  Biso   1.000  H
  H139     1.0000 0.95303  0.42087  0.55967  Biso   1.000  H
  H140     1.0000 0.57913  0.53217  0.55967  Biso   1.000  H
  H141     1.0000 0.46783  0.04697  0.55967  Biso   1.000  H
  H142     1.0000 0.08753  0.28637  0.77367  Biso   1.000  H
  H143     1.0000 0.19883  0.91247  0.77367  Biso   1.000  H
  H144     1.0000 0.71363  0.80117  0.77367  Biso   1.000  H
  C181     1.0000 0.31330  0.19180  0.05310  Biso   1.000  C
  C182     1.0000 0.80820  0.12150  0.05310  Biso   1.000  C
  C183     1.0000 0.87850  0.68670  0.05310  Biso   1.000  C
  C184     1.0000 0.19180  0.31330  0.94690  Biso   1.000  C
  C185     1.0000 0.12150  0.80820  0.94690  Biso   1.000  C
  C186     1.0000 0.68670  0.87850  0.94690  Biso   1.000  C
  C187     1.0000 0.97997  0.52513  0.38643  Biso   1.000  C
  C188     1.0000 0.47487  0.45483  0.38643  Biso   1.000  C
  C189     1.0000 0.54517  0.02003  0.38643  Biso   1.000  C
  C190     1.0000 0.85847  0.64663  0.28023  Biso   1.000  C
  C191     1.0000 0.78817  0.14153  0.28023  Biso   1.000  C
  C192     1.0000 0.35337  0.21183  0.28023  Biso   1.000  C
  C193     1.0000 0.64663  0.85847  0.71977  Biso   1.000  C
  C194     1.0000 0.14153  0.78817  0.71977  Biso   1.000  C
  C195     1.0000 0.21183  0.35337  0.71977  Biso   1.000  C
  C196     1.0000 0.52513  0.97997  0.61357  Biso   1.000  C
  C197     1.0000 0.45483  0.47487  0.61357  Biso   1.000  C
  C198     1.0000 0.02003  0.54517  0.61357  Biso   1.000  C
  C199     1.0000 0.68670  0.80820  0.94690  Biso   1.000  C
  C200     1.0000 0.19180  0.87850  0.94690  Biso   1.000  C
  C201     1.0000 0.12150  0.31330  0.94690  Biso   1.000  C
  C202     1.0000 0.80820  0.68670  0.05310  Biso   1.000  C
  C203     1.0000 0.87850  0.19180  0.05310  Biso   1.000  C
  C204     1.0000 0.31330  0.12150  0.05310  Biso   1.000  C
  C205     1.0000 0.35337  0.14153  0.28023  Biso   1.000  C
  C206     1.0000 0.85847  0.21183  0.28023  Biso   1.000  C
  C207     1.0000 0.78817  0.64663  0.28023  Biso   1.000  C
  C208     1.0000 0.47487  0.02003  0.38643  Biso   1.000  C
  C209     1.0000 0.54517  0.52513  0.38643  Biso   1.000  C
  C210     1.0000 0.97997  0.45483  0.38643  Biso   1.000  C
  C211     1.0000 0.02003  0.47487  0.61357  Biso   1.000  C
  C212     1.0000 0.52513  0.54517  0.61357  Biso   1.000  C
  C213     1.0000 0.45483  0.97997  0.61357  Biso   1.000  C
  C214     1.0000 0.14153  0.35337  0.71977  Biso   1.000  C
  C215     1.0000 0.21183  0.85847  0.71977  Biso   1.000  C
  C216     1.0000 0.64663  0.78817  0.71977  Biso   1.000  C
  C217     1.0000 0.28900  0.21340  0.03160  Biso   1.000  C
  C218     1.0000 0.78660  0.07560  0.03160  Biso   1.000  C
  C219     1.0000 0.92440  0.71100  0.03160  Biso   1.000  C
  C220     1.0000 0.21340  0.28900  0.96840  Biso   1.000  C
  C221     1.0000 0.07560  0.78660  0.96840  Biso   1.000  C
  C222     1.0000 0.71100  0.92440  0.96840  Biso   1.000  C
  C223     1.0000 0.95567  0.54673  0.36493  Biso   1.000  C
  C224     1.0000 0.45327  0.40893  0.36493  Biso   1.000  C
  C225     1.0000 0.59107  0.04433  0.36493  Biso   1.000  C
  C226     1.0000 0.88007  0.62233  0.30173  Biso   1.000  C
  C227     1.0000 0.74227  0.11993  0.30173  Biso   1.000  C
  C228     1.0000 0.37767  0.25773  0.30173  Biso   1.000  C
  C229     1.0000 0.62233  0.88007  0.69827  Biso   1.000  C
  C230     1.0000 0.11993  0.74227  0.69827  Biso   1.000  C
  C231     1.0000 0.25773  0.37767  0.69827  Biso   1.000  C
  C232     1.0000 0.54673  0.95567  0.63507  Biso   1.000  C
  C233     1.0000 0.40893  0.45327  0.63507  Biso   1.000  C
  C234     1.0000 0.04433  0.59107  0.63507  Biso   1.000  C
  C235     1.0000 0.71100  0.78660  0.96840  Biso   1.000  C
  C236     1.0000 0.21340  0.92440  0.96840  Biso   1.000  C
  C237     1.0000 0.07560  0.28900  0.96840  Biso   1.000  C
  C238     1.0000 0.78660  0.71100  0.03160  Biso   1.000  C
  C239     1.0000 0.92440  0.21340  0.03160  Biso   1.000  C
  C240     1.0000 0.28900  0.07560  0.03160  Biso   1.000  C
  C241     1.0000 0.37767  0.11993  0.30173  Biso   1.000  C
  C242     1.0000 0.88007  0.25773  0.30173  Biso   1.000  C
  C243     1.0000 0.74227  0.62233  0.30173  Biso   1.000  C
  C244     1.0000 0.45327  0.04433  0.36493  Biso   1.000  C
  C245     1.0000 0.59107  0.54673  0.36493  Biso   1.000  C
  C246     1.0000 0.95567  0.40893  0.36493  Biso   1.000  C
  C247     1.0000 0.04433  0.45327  0.63507  Biso   1.000  C
  C248     1.0000 0.54673  0.59107  0.63507  Biso   1.000  C
  C249     1.0000 0.40893  0.95567  0.63507  Biso   1.000  C
  C250     1.0000 0.11993  0.37767  0.69827  Biso   1.000  C
  C251     1.0000 0.25773  0.88007  0.69827  Biso   1.000  C
  C252     1.0000 0.62233  0.74227  0.69827  Biso   1.000  C
  H145     1.0000 0.29170  0.26050  0.03100  Biso   1.000  H
  H146     1.0000 0.73950  0.03120  0.03100  Biso   1.000  H
  H147     1.0000 0.96880  0.70830  0.03100  Biso   1.000  H
  H148     1.0000 0.26050  0.29170  0.96900  Biso   1.000  H
  H149     1.0000 0.03120  0.73950  0.96900  Biso   1.000  H
  H150     1.0000 0.70830  0.96880  0.96900  Biso   1.000  H
  H151     1.0000 0.95837  0.59383  0.36433  Biso   1.000  H
  H152     1.0000 0.40617  0.36453  0.36433  Biso   1.000  H
  H153     1.0000 0.63547  0.04163  0.36433  Biso   1.000  H
  H154     1.0000 0.92717  0.62503  0.30233  Biso   1.000  H
  H155     1.0000 0.69787  0.07283  0.30233  Biso   1.000  H
  H156     1.0000 0.37497  0.30213  0.30233  Biso   1.000  H
  H157     1.0000 0.62503  0.92717  0.69767  Biso   1.000  H
  H158     1.0000 0.07283  0.69787  0.69767  Biso   1.000  H
  H159     1.0000 0.30213  0.37497  0.69767  Biso   1.000  H
  H160     1.0000 0.59383  0.95837  0.63567  Biso   1.000  H
  H161     1.0000 0.36453  0.40617  0.63567  Biso   1.000  H
  H162     1.0000 0.04163  0.63547  0.63567  Biso   1.000  H
  H163     1.0000 0.70830  0.73950  0.96900  Biso   1.000  H
  H164     1.0000 0.26050  0.96880  0.96900  Biso   1.000  H
  H165     1.0000 0.03120  0.29170  0.96900  Biso   1.000  H
  H166     1.0000 0.73950  0.70830  0.03100  Biso   1.000  H
  H167     1.0000 0.96880  0.26050  0.03100  Biso   1.000  H
  H168     1.0000 0.29170  0.03120  0.03100  Biso   1.000  H
  H169     1.0000 0.37497  0.07283  0.30233  Biso   1.000  H
  H170     1.0000 0.92717  0.30213  0.30233  Biso   1.000  H
  H171     1.0000 0.69787  0.62503  0.30233  Biso   1.000  H
  H172     1.0000 0.40617  0.04163  0.36433  Biso   1.000  H
  H173     1.0000 0.63547  0.59383  0.36433  Biso   1.000  H
  H174     1.0000 0.95837  0.36453  0.36433  Biso   1.000  H
  H175     1.0000 0.04163  0.40617  0.63567  Biso   1.000  H
  H176     1.0000 0.59383  0.63547  0.63567  Biso   1.000  H
  H177     1.0000 0.36453  0.95837  0.63567  Biso   1.000  H
  H178     1.0000 0.07283  0.37497  0.69767  Biso   1.000  H
  H179     1.0000 0.30213  0.92717  0.69767  Biso   1.000  H
  H180     1.0000 0.62503  0.69787  0.69767  Biso   1.000  H
  C253     1.0000 0.26210  0.16630  0.01220  Biso   1.000  C
  C254     1.0000 0.83370  0.09580  0.01220  Biso   1.000  C
  C255     1.0000 0.90420  0.73790  0.01220  Biso   1.000  C
  C256     1.0000 0.16630  0.26210  0.98780  Biso   1.000  C
  C257     1.0000 0.09580  0.83370  0.98780  Biso   1.000  C
  C258     1.0000 0.73790  0.90420  0.98780  Biso   1.000  C
  C259     1.0000 0.92877  0.49963  0.34553  Biso   1.000  C
  C260     1.0000 0.50037  0.42913  0.34553  Biso   1.000  C
  C261     1.0000 0.57087  0.07123  0.34553  Biso   1.000  C
  C262     1.0000 0.83297  0.59543  0.32113  Biso   1.000  C
  C263     1.0000 0.76247  0.16703  0.32113  Biso   1.000  C
  C264     1.0000 0.40457  0.23753  0.32113  Biso   1.000  C
  C265     1.0000 0.59543  0.83297  0.67887  Biso   1.000  C
  C266     1.0000 0.16703  0.76247  0.67887  Biso   1.000  C
  C267     1.0000 0.23753  0.40457  0.67887  Biso   1.000  C
  C268     1.0000 0.49963  0.92877  0.65447  Biso   1.000  C
  C269     1.0000 0.42913  0.50037  0.65447  Biso   1.000  C
  C270     1.0000 0.07123  0.57087  0.65447  Biso   1.000  C
  C271     1.0000 0.73790  0.83370  0.98780  Biso   1.000  C
  C272     1.0000 0.16630  0.90420  0.98780  Biso   1.000  C
  C273     1.0000 0.09580  0.26210  0.98780  Biso   1.000  C
  C274     1.0000 0.83370  0.73790  0.01220  Biso   1.000  C
  C275     1.0000 0.90420  0.16630  0.01220  Biso   1.000  C
  C276     1.0000 0.26210  0.09580  0.01220  Biso   1.000  C
  C277     1.0000 0.40457  0.16703  0.32113  Biso   1.000  C
  C278     1.0000 0.83297  0.23753  0.32113  Biso   1.000  C
  C279     1.0000 0.76247  0.59543  0.32113  Biso   1.000  C
  C280     1.0000 0.50037  0.07123  0.34553  Biso   1.000  C
  C281     1.0000 0.57087  0.49963  0.34553  Biso   1.000  C
  C282     1.0000 0.92877  0.42913  0.34553  Biso   1.000  C
  C283     1.0000 0.07123  0.50037  0.65447  Biso   1.000  C
  C284     1.0000 0.49963  0.57087  0.65447  Biso   1.000  C
  C285     1.0000 0.42913  0.92877  0.65447  Biso   1.000  C
  C286     1.0000 0.16703  0.40457  0.67887  Biso   1.000  C
  C287     1.0000 0.23753  0.83297  0.67887  Biso   1.000  C
  C288     1.0000 0.59543  0.76247  0.67887  Biso   1.000  C
  H181     1.0000 0.24300  0.17930  0.99830  Biso   1.000  H
  H182     1.0000 0.82070  0.06370  0.99830  Biso   1.000  H
  H183     1.0000 0.93630  0.75700  0.99830  Biso   1.000  H
  H184     1.0000 0.17930  0.24300  0.00170  Biso   1.000  H
  H185     1.0000 0.06370  0.82070  0.00170  Biso   1.000  H
  H186     1.0000 0.75700  0.93630  0.00170  Biso   1.000  H
  H187     1.0000 0.90967  0.51263  0.33163  Biso   1.000  H
  H188     1.0000 0.48737  0.39703  0.33163  Biso   1.000  H
  H189     1.0000 0.60297  0.09033  0.33163  Biso   1.000  H
  H190     1.0000 0.84597  0.57633  0.33503  Biso   1.000  H
  H191     1.0000 0.73037  0.15403  0.33503  Biso   1.000  H
  H192     1.0000 0.42367  0.26963  0.33503  Biso   1.000  H
  H193     1.0000 0.57633  0.84597  0.66497  Biso   1.000  H
  H194     1.0000 0.15403  0.73037  0.66497  Biso   1.000  H
  H195     1.0000 0.26963  0.42367  0.66497  Biso   1.000  H
  H196     1.0000 0.51263  0.90967  0.66837  Biso   1.000  H
  H197     1.0000 0.39703  0.48737  0.66837  Biso   1.000  H
  H198     1.0000 0.09033  0.60297  0.66837  Biso   1.000  H
  H199     1.0000 0.75700  0.82070  0.00170  Biso   1.000  H
  H200     1.0000 0.17930  0.93630  0.00170  Biso   1.000  H
  H201     1.0000 0.06370  0.24300  0.00170  Biso   1.000  H
  H202     1.0000 0.82070  0.75700  0.99830  Biso   1.000  H
  H203     1.0000 0.93630  0.17930  0.99830  Biso   1.000  H
  H204     1.0000 0.24300  0.06370  0.99830  Biso   1.000  H
  H205     1.0000 0.42367  0.15403  0.33503  Biso   1.000  H
  H206     1.0000 0.84597  0.26963  0.33503  Biso   1.000  H
  H207     1.0000 0.73037  0.57633  0.33503  Biso   1.000  H
  H208     1.0000 0.48737  0.09033  0.33163  Biso   1.000  H
  H209     1.0000 0.60297  0.51263  0.33163  Biso   1.000  H
  H210     1.0000 0.90967  0.39703  0.33163  Biso   1.000  H
  H211     1.0000 0.09033  0.48737  0.66837  Biso   1.000  H
  H212     1.0000 0.51263  0.60297  0.66837  Biso   1.000  H
  H213     1.0000 0.39703  0.90967  0.66837  Biso   1.000  H
  H214     1.0000 0.15403  0.42367  0.66497  Biso   1.000  H
  H215     1.0000 0.26963  0.84597  0.66497  Biso   1.000  H
  H216     1.0000 0.57633  0.73037  0.66497  Biso   1.000  H
  C289     1.0000 0.47740  0.45300  0.05850  Biso   1.000  C
  C290     1.0000 0.54700  0.02440  0.05850  Biso   1.000  C
  C291     1.0000 0.97560  0.52260  0.05850  Biso   1.000  C
  C292     1.0000 0.45300  0.47740  0.94150  Biso   1.000  C
  C293     1.0000 0.02440  0.54700  0.94150  Biso   1.000  C
  C294     1.0000 0.52260  0.97560  0.94150  Biso   1.000  C
  C295     1.0000 0.14407  0.78633  0.39183  Biso   1.000  C
  C296     1.0000 0.21367  0.35773  0.39183  Biso   1.000  C
  C297     1.0000 0.64227  0.85593  0.39183  Biso   1.000  C
  C298     1.0000 0.11967  0.81073  0.27483  Biso   1.000  C
  C299     1.0000 0.69107  0.88033  0.27483  Biso   1.000  C
  C300     1.0000 0.18927  0.30893  0.27483  Biso   1.000  C
  C301     1.0000 0.81073  0.11967  0.72517  Biso   1.000  C
  C302     1.0000 0.88033  0.69107  0.72517  Biso   1.000  C
  C303     1.0000 0.30893  0.18927  0.72517  Biso   1.000  C
  C304     1.0000 0.78633  0.14407  0.60817  Biso   1.000  C
  C305     1.0000 0.35773  0.21367  0.60817  Biso   1.000  C
  C306     1.0000 0.85593  0.64227  0.60817  Biso   1.000  C
  C307     1.0000 0.52260  0.54700  0.94150  Biso   1.000  C
  C308     1.0000 0.45300  0.97560  0.94150  Biso   1.000  C
  C309     1.0000 0.02440  0.47740  0.94150  Biso   1.000  C
  C310     1.0000 0.54700  0.52260  0.05850  Biso   1.000  C
  C311     1.0000 0.97560  0.45300  0.05850  Biso   1.000  C
  C312     1.0000 0.47740  0.02440  0.05850  Biso   1.000  C
  C313     1.0000 0.18927  0.88033  0.27483  Biso   1.000  C
  C314     1.0000 0.11967  0.30893  0.27483  Biso   1.000  C
  C315     1.0000 0.69107  0.81073  0.27483  Biso   1.000  C
  C316     1.0000 0.21367  0.85593  0.39183  Biso   1.000  C
  C317     1.0000 0.64227  0.78633  0.39183  Biso   1.000  C
  C318     1.0000 0.14407  0.35773  0.39183  Biso   1.000  C
  C319     1.0000 0.85593  0.21367  0.60817  Biso   1.000  C
  C320     1.0000 0.78633  0.64227  0.60817  Biso   1.000  C
  C321     1.0000 0.35773  0.14407  0.60817  Biso   1.000  C
  C322     1.0000 0.88033  0.18927  0.72517  Biso   1.000  C
  C323     1.0000 0.30893  0.11967  0.72517  Biso   1.000  C
  C324     1.0000 0.81073  0.69107  0.72517  Biso   1.000  C
  H217     1.0000 0.45490  0.43100  0.04320  Biso   1.000  H
  H218     1.0000 0.56900  0.02390  0.04320  Biso   1.000  H
  H219     1.0000 0.97610  0.54510  0.04320  Biso   1.000  H
  H220     1.0000 0.43100  0.45490  0.95680  Biso   1.000  H
  H221     1.0000 0.02390  0.56900  0.95680  Biso   1.000  H
  H222     1.0000 0.54510  0.97610  0.95680  Biso   1.000  H
  H223     1.0000 0.12157  0.76433  0.37653  Biso   1.000  H
  H224     1.0000 0.23567  0.35723  0.37653  Biso   1.000  H
  H225     1.0000 0.64277  0.87843  0.37653  Biso   1.000  H
  H226     1.0000 0.09767  0.78823  0.29013  Biso   1.000  H
  H227     1.0000 0.69057  0.90233  0.29013  Biso   1.000  H
  H228     1.0000 0.21177  0.30943  0.29013  Biso   1.000  H
  H229     1.0000 0.78823  0.09767  0.70987  Biso   1.000  H
  H230     1.0000 0.90233  0.69057  0.70987  Biso   1.000  H
  H231     1.0000 0.30943  0.21177  0.70987  Biso   1.000  H
  H232     1.0000 0.76433  0.12157  0.62347  Biso   1.000  H
  H233     1.0000 0.35723  0.23567  0.62347  Biso   1.000  H
  H234     1.0000 0.87843  0.64277  0.62347  Biso   1.000  H
  H235     1.0000 0.54510  0.56900  0.95680  Biso   1.000  H
  H236     1.0000 0.43100  0.97610  0.95680  Biso   1.000  H
  H237     1.0000 0.02390  0.45490  0.95680  Biso   1.000  H
  H238     1.0000 0.56900  0.54510  0.04320  Biso   1.000  H
  H239     1.0000 0.97610  0.43100  0.04320  Biso   1.000  H
  H240     1.0000 0.45490  0.02390  0.04320  Biso   1.000  H
  H241     1.0000 0.21177  0.90233  0.29013  Biso   1.000  H
  H242     1.0000 0.09767  0.30943  0.29013  Biso   1.000  H
  H243     1.0000 0.69057  0.78823  0.29013  Biso   1.000  H
  H244     1.0000 0.23567  0.87843  0.37653  Biso   1.000  H
  H245     1.0000 0.64277  0.76433  0.37653  Biso   1.000  H
  H246     1.0000 0.12157  0.35723  0.37653  Biso   1.000  H
  H247     1.0000 0.87843  0.23567  0.62347  Biso   1.000  H
  H248     1.0000 0.76433  0.64277  0.62347  Biso   1.000  H
  H249     1.0000 0.35723  0.12157  0.62347  Biso   1.000  H
  H250     1.0000 0.90233  0.21177  0.70987  Biso   1.000  H
  H251     1.0000 0.30943  0.09767  0.70987  Biso   1.000  H
  H252     1.0000 0.78823  0.69057  0.70987  Biso   1.000  H
  C325     1.0000 0.48080  0.44980  0.10191  Biso   1.000  C
  C326     1.0000 0.55020  0.03100  0.10191  Biso   1.000  C
  C327     1.0000 0.96900  0.51920  0.10191  Biso   1.000  C
  C328     1.0000 0.44980  0.48080  0.89809  Biso   1.000  C
  C329     1.0000 0.03100  0.55020  0.89809  Biso   1.000  C
  C330     1.0000 0.51920  0.96900  0.89809  Biso   1.000  C
  C331     1.0000 0.14747  0.78313  0.43524  Biso   1.000  C
  C332     1.0000 0.21687  0.36433  0.43524  Biso   1.000  C
  C333     1.0000 0.63567  0.85253  0.43524  Biso   1.000  C
  C334     1.0000 0.11647  0.81413  0.23142  Biso   1.000  C
  C335     1.0000 0.69767  0.88353  0.23142  Biso   1.000  C
  C336     1.0000 0.18587  0.30233  0.23142  Biso   1.000  C
  C337     1.0000 0.81413  0.11647  0.76858  Biso   1.000  C
  C338     1.0000 0.88353  0.69767  0.76858  Biso   1.000  C
  C339     1.0000 0.30233  0.18587  0.76858  Biso   1.000  C
  C340     1.0000 0.78313  0.14747  0.56476  Biso   1.000  C
  C341     1.0000 0.36433  0.21687  0.56476  Biso   1.000  C
  C342     1.0000 0.85253  0.63567  0.56476  Biso   1.000  C
  C343     1.0000 0.51920  0.55020  0.89809  Biso   1.000  C
  C344     1.0000 0.44980  0.96900  0.89809  Biso   1.000  C
  C345     1.0000 0.03100  0.48080  0.89809  Biso   1.000  C
  C346     1.0000 0.55020  0.51920  0.10191  Biso   1.000  C
  C347     1.0000 0.96900  0.44980  0.10191  Biso   1.000  C
  C348     1.0000 0.48080  0.03100  0.10191  Biso   1.000  C
  C349     1.0000 0.18587  0.88353  0.23142  Biso   1.000  C
  C350     1.0000 0.11647  0.30233  0.23142  Biso   1.000  C
  C351     1.0000 0.69767  0.81413  0.23142  Biso   1.000  C
  C352     1.0000 0.21687  0.85253  0.43524  Biso   1.000  C
  C353     1.0000 0.63567  0.78313  0.43524  Biso   1.000  C
  C354     1.0000 0.14747  0.36433  0.43524  Biso   1.000  C
  C355     1.0000 0.85253  0.21687  0.56476  Biso   1.000  C
  C356     1.0000 0.78313  0.63567  0.56476  Biso   1.000  C
  C357     1.0000 0.36433  0.14747  0.56476  Biso   1.000  C
  C358     1.0000 0.88353  0.18587  0.76858  Biso   1.000  C
  C359     1.0000 0.30233  0.11647  0.76858  Biso   1.000  C
  C360     1.0000 0.81413  0.69767  0.76858  Biso   1.000  C
  C361     1.0000 0.44880  0.41410  0.12510  Biso   1.000  C
  C362     1.0000 0.58590  0.03470  0.12510  Biso   1.000  C
  C363     1.0000 0.96530  0.55120  0.12510  Biso   1.000  C
  C364     1.0000 0.41410  0.44880  0.87490  Biso   1.000  C
  C365     1.0000 0.03470  0.58590  0.87490  Biso   1.000  C
  C366     1.0000 0.55120  0.96530  0.87490  Biso   1.000  C
  C367     1.0000 0.11547  0.74743  0.45843  Biso   1.000  C
  C368     1.0000 0.25257  0.36803  0.45843  Biso   1.000  C
  C369     1.0000 0.63197  0.88453  0.45843  Biso   1.000  C
  C370     1.0000 0.08077  0.78213  0.20823  Biso   1.000  C
  C371     1.0000 0.70137  0.91923  0.20823  Biso   1.000  C
  C372     1.0000 0.21787  0.29863  0.20823  Biso   1.000  C
  C373     1.0000 0.78213  0.08077  0.79177  Biso   1.000  C
  C374     1.0000 0.91923  0.70137  0.79177  Biso   1.000  C
  C375     1.0000 0.29863  0.21787  0.79177  Biso   1.000  C
  C376     1.0000 0.74743  0.11547  0.54157  Biso   1.000  C
  C377     1.0000 0.36803  0.25257  0.54157  Biso   1.000  C
  C378     1.0000 0.88453  0.63197  0.54157  Biso   1.000  C
  C379     1.0000 0.55120  0.58590  0.87490  Biso   1.000  C
  C380     1.0000 0.41410  0.96530  0.87490  Biso   1.000  C
  C381     1.0000 0.03470  0.44880  0.87490  Biso   1.000  C
  C382     1.0000 0.58590  0.55120  0.12510  Biso   1.000  C
  C383     1.0000 0.96530  0.41410  0.12510  Biso   1.000  C
  C384     1.0000 0.44880  0.03470  0.12510  Biso   1.000  C
  C385     1.0000 0.21787  0.91923  0.20823  Biso   1.000  C
  C386     1.0000 0.08077  0.29863  0.20823  Biso   1.000  C
  C387     1.0000 0.70137  0.78213  0.20823  Biso   1.000  C
  C388     1.0000 0.25257  0.88453  0.45843  Biso   1.000  C
  C389     1.0000 0.63197  0.74743  0.45843  Biso   1.000  C
  C390     1.0000 0.11547  0.36803  0.45843  Biso   1.000  C
  C391     1.0000 0.88453  0.25257  0.54157  Biso   1.000  C
  C392     1.0000 0.74743  0.63197  0.54157  Biso   1.000  C
  C393     1.0000 0.36803  0.11547  0.54157  Biso   1.000  C
  C394     1.0000 0.91923  0.21787  0.79177  Biso   1.000  C
  C395     1.0000 0.29863  0.08077  0.79177  Biso   1.000  C
  C396     1.0000 0.78213  0.70137  0.79177  Biso   1.000  C
  H253     1.0000 0.40320  0.36810  0.12530  Biso   1.000  H
  H254     1.0000 0.63190  0.03510  0.12530  Biso   1.000  H
  H255     1.0000 0.96490  0.59680  0.12530  Biso   1.000  H
  H256     1.0000 0.36810  0.40320  0.87470  Biso   1.000  H
  H257     1.0000 0.03510  0.63190  0.87470  Biso   1.000  H
  H258     1.0000 0.59680  0.96490  0.87470  Biso   1.000  H
  H259     1.0000 0.06987  0.70143  0.45863  Biso   1.000  H
  H260     1.0000 0.29857  0.36843  0.45863  Biso   1.000  H
  H261     1.0000 0.63157  0.93013  0.45863  Biso   1.000  H
  H262     1.0000 0.03477  0.73653  0.20803  Biso   1.000  H
  H263     1.0000 0.70177  0.96523  0.20803  Biso   1.000  H
  H264     1.0000 0.26347  0.29823  0.20803  Biso   1.000  H
  H265     1.0000 0.73653  0.03477  0.79197  Biso   1.000  H
  H266     1.0000 0.96523  0.70177  0.79197  Biso   1.000  H
  H267     1.0000 0.29823  0.26347  0.79197  Biso   1.000  H
  H268     1.0000 0.70143  0.06987  0.54137  Biso   1.000  H
  H269     1.0000 0.36843  0.29857  0.54137  Biso   1.000  H
  H270     1.0000 0.93013  0.63157  0.54137  Biso   1.000  H
  H271     1.0000 0.59680  0.63190  0.87470  Biso   1.000  H
  H272     1.0000 0.36810  0.96490  0.87470  Biso   1.000  H
  H273     1.0000 0.03510  0.40320  0.87470  Biso   1.000  H
  H274     1.0000 0.63190  0.59680  0.12530  Biso   1.000  H
  H275     1.0000 0.96490  0.36810  0.12530  Biso   1.000  H
  H276     1.0000 0.40320  0.03510  0.12530  Biso   1.000  H
  H277     1.0000 0.26347  0.96523  0.20803  Biso   1.000  H
  H278     1.0000 0.03477  0.29823  0.20803  Biso   1.000  H
  H279     1.0000 0.70177  0.73653  0.20803  Biso   1.000  H
  H280     1.0000 0.29857  0.93013  0.45863  Biso   1.000  H
  H281     1.0000 0.63157  0.70143  0.45863  Biso   1.000  H
  H282     1.0000 0.06987  0.36843  0.45863  Biso   1.000  H
  H283     1.0000 0.93013  0.29857  0.54137  Biso   1.000  H
  H284     1.0000 0.70143  0.63157  0.54137  Biso   1.000  H
  H285     1.0000 0.36843  0.06987  0.54137  Biso   1.000  H
  H286     1.0000 0.96523  0.26347  0.79197  Biso   1.000  H
  H287     1.0000 0.29823  0.03477  0.79197  Biso   1.000  H
  H288     1.0000 0.73653  0.70177  0.79197  Biso   1.000  H
  C397     1.0000 0.48460  0.44690  0.14720  Biso   1.000  C
  C398     1.0000 0.55310  0.03770  0.14720  Biso   1.000  C
  C399     1.0000 0.96230  0.51540  0.14720  Biso   1.000  C
  C400     1.0000 0.44690  0.48460  0.85280  Biso   1.000  C
  C401     1.0000 0.03770  0.55310  0.85280  Biso   1.000  C
  C402     1.0000 0.51540  0.96230  0.85280  Biso   1.000  C
  C403     1.0000 0.15127  0.78023  0.48053  Biso   1.000  C
  C404     1.0000 0.21977  0.37103  0.48053  Biso   1.000  C
  C405     1.0000 0.62897  0.84873  0.48053  Biso   1.000  C
  C406     1.0000 0.11357  0.81793  0.18613  Biso   1.000  C
  C407     1.0000 0.70437  0.88643  0.18613  Biso   1.000  C
  C408     1.0000 0.18207  0.29563  0.18613  Biso   1.000  C
  C409     1.0000 0.81793  0.11357  0.81387  Biso   1.000  C
  C410     1.0000 0.88643  0.70437  0.81387  Biso   1.000  C
  C411     1.0000 0.29563  0.18207  0.81387  Biso   1.000  C
  C412     1.0000 0.78023  0.15127  0.51947  Biso   1.000  C
  C413     1.0000 0.37103  0.21977  0.51947  Biso   1.000  C
  C414     1.0000 0.84873  0.62897  0.51947  Biso   1.000  C
  C415     1.0000 0.51540  0.55310  0.85280  Biso   1.000  C
  C416     1.0000 0.44690  0.96230  0.85280  Biso   1.000  C
  C417     1.0000 0.03770  0.48460  0.85280  Biso   1.000  C
  C418     1.0000 0.55310  0.51540  0.14720  Biso   1.000  C
  C419     1.0000 0.96230  0.44690  0.14720  Biso   1.000  C
  C420     1.0000 0.48460  0.03770  0.14720  Biso   1.000  C
  C421     1.0000 0.18207  0.88643  0.18613  Biso   1.000  C
  C422     1.0000 0.11357  0.29563  0.18613  Biso   1.000  C
  C423     1.0000 0.70437  0.81793  0.18613  Biso   1.000  C
  C424     1.0000 0.21977  0.84873  0.48053  Biso   1.000  C
  C425     1.0000 0.62897  0.78023  0.48053  Biso   1.000  C
  C426     1.0000 0.15127  0.37103  0.48053  Biso   1.000  C
  C427     1.0000 0.84873  0.21977  0.51947  Biso   1.000  C
  C428     1.0000 0.78023  0.62897  0.51947  Biso   1.000  C
  C429     1.0000 0.37103  0.15127  0.51947  Biso   1.000  C
  C430     1.0000 0.88643  0.18207  0.81387  Biso   1.000  C
  C431     1.0000 0.29563  0.11357  0.81387  Biso   1.000  C
  C432     1.0000 0.81793  0.70437  0.81387  Biso   1.000  C
  H289     1.0000 0.46290  0.42320  0.16240  Biso   1.000  H
  H290     1.0000 0.57680  0.03970  0.16240  Biso   1.000  H
  H291     1.0000 0.96030  0.53710  0.16240  Biso   1.000  H
  H292     1.0000 0.42320  0.46290  0.83760  Biso   1.000  H
  H293     1.0000 0.03970  0.57680  0.83760  Biso   1.000  H
  H294     1.0000 0.53710  0.96030  0.83760  Biso   1.000  H
  H295     1.0000 0.12957  0.75653  0.49573  Biso   1.000  H
  H296     1.0000 0.24347  0.37303  0.49573  Biso   1.000  H
  H297     1.0000 0.62697  0.87043  0.49573  Biso   1.000  H
  H298     1.0000 0.08987  0.79623  0.17093  Biso   1.000  H
  H299     1.0000 0.70637  0.91013  0.17093  Biso   1.000  H
  H300     1.0000 0.20377  0.29363  0.17093  Biso   1.000  H
  H301     1.0000 0.79623  0.08987  0.82907  Biso   1.000  H
  H302     1.0000 0.91013  0.70637  0.82907  Biso   1.000  H
  H303     1.0000 0.29363  0.20377  0.82907  Biso   1.000  H
  H304     1.0000 0.75653  0.12957  0.50427  Biso   1.000  H
  H305     1.0000 0.37303  0.24347  0.50427  Biso   1.000  H
  H306     1.0000 0.87043  0.62697  0.50427  Biso   1.000  H
  H307     1.0000 0.53710  0.57680  0.83760  Biso   1.000  H
  H308     1.0000 0.42320  0.96030  0.83760  Biso   1.000  H
  H309     1.0000 0.03970  0.46290  0.83760  Biso   1.000  H
  H310     1.0000 0.57680  0.53710  0.16240  Biso   1.000  H
  H311     1.0000 0.96030  0.42320  0.16240  Biso   1.000  H
  H312     1.0000 0.46290  0.03970  0.16240  Biso   1.000  H
  H313     1.0000 0.20377  0.91013  0.17093  Biso   1.000  H
  H314     1.0000 0.08987  0.29363  0.17093  Biso   1.000  H
  H315     1.0000 0.70637  0.79623  0.17093  Biso   1.000  H
  H316     1.0000 0.24347  0.87043  0.49573  Biso   1.000  H
  H317     1.0000 0.62697  0.75653  0.49573  Biso   1.000  H
  H318     1.0000 0.12957  0.37303  0.49573  Biso   1.000  H
  H319     1.0000 0.87043  0.24347  0.50427  Biso   1.000  H
  H320     1.0000 0.75653  0.62697  0.50427  Biso   1.000  H
  H321     1.0000 0.37303  0.12957  0.50427  Biso   1.000  H
  H322     1.0000 0.91013  0.20377  0.82907  Biso   1.000  H
  H323     1.0000 0.29363  0.08987  0.82907  Biso   1.000  H
  H324     1.0000 0.79623  0.70637  0.82907  Biso   1.000  H
