data_image0
_cell_length_a       9.1145
_cell_length_b       23.718
_cell_length_c       35.093
_cell_angle_alpha    90
_cell_angle_beta     90.614
_cell_angle_gamma    90

_symmetry_space_group_name_H-M    "P 1"
_symmetry_int_tables_number       1

loop_
  _symmetry_equiv_pos_as_xyz
  'x, y, z'

loop_
  _atom_site_label
  _atom_site_occupancy
  _atom_site_fract_x
  _atom_site_fract_y
  _atom_site_fract_z
  _atom_site_thermal_displace_type
  _atom_site_B_iso_or_equiv
  _atom_site_type_symbol
  Cu1      1.0000 0.53319  0.21516  0.68864  Biso   1.000  Cu
  Cu2      1.0000 0.96681  0.71516  0.81136  Biso   1.000  Cu
  Cu3      1.0000 0.46681  0.78484  0.31136  Biso   1.000  Cu
  Cu4      1.0000 0.03319  0.28484  0.18864  Biso   1.000  Cu
  O1       1.0000 0.58130  0.25090  0.64330  Biso   1.000  O
  O2       1.0000 0.91870  0.75090  0.85670  Biso   1.000  O
  O3       1.0000 0.41870  0.74910  0.35670  Biso   1.000  O
  O4       1.0000 0.08130  0.24910  0.14330  Biso   1.000  O
  O5       1.0000 0.49710  0.16610  0.72920  Biso   1.000  O
  O6       1.0000 0.00290  0.66610  0.77080  Biso   1.000  O
  O7       1.0000 0.50290  0.83390  0.27080  Biso   1.000  O
  O8       1.0000 0.99710  0.33390  0.22920  Biso   1.000  O
  Cu5      1.0000 0.67894  0.31016  0.71807  Biso   1.000  Cu
  Cu6      1.0000 0.82106  0.81016  0.78193  Biso   1.000  Cu
  Cu7      1.0000 0.32106  0.68984  0.28193  Biso   1.000  Cu
  Cu8      1.0000 0.17894  0.18984  0.21807  Biso   1.000  Cu
  O9       1.0000 0.68220  0.32890  0.66690  Biso   1.000  O
  O10      1.0000 0.81780  0.82890  0.83310  Biso   1.000  O
  O11      1.0000 0.31780  0.67110  0.33310  Biso   1.000  O
  O12      1.0000 0.18220  0.17110  0.16690  Biso   1.000  O
  O13      1.0000 0.67780  0.30270  0.77080  Biso   1.000  O
  O14      1.0000 0.82220  0.80270  0.72920  Biso   1.000  O
  O15      1.0000 0.32220  0.69730  0.22920  Biso   1.000  O
  O16      1.0000 0.17780  0.19730  0.27080  Biso   1.000  O
  Cu9      1.0000 0.81597  0.20470  0.72316  Biso   1.000  Cu
  Cu10     1.0000 0.68403  0.70470  0.77684  Biso   1.000  Cu
  Cu11     1.0000 0.18403  0.79530  0.27684  Biso   1.000  Cu
  Cu12     1.0000 0.31597  0.29530  0.22316  Biso   1.000  Cu
  O17      1.0000 0.76870  0.21380  0.77430  Biso   1.000  O
  O18      1.0000 0.73130  0.71380  0.72570  Biso   1.000  O
  O19      1.0000 0.23130  0.78620  0.22570  Biso   1.000  O
  O20      1.0000 0.26870  0.28620  0.27430  Biso   1.000  O
  O21      1.0000 0.85310  0.18180  0.67370  Biso   1.000  O
  O22      1.0000 0.64690  0.68180  0.82630  Biso   1.000  O
  O23      1.0000 0.14690  0.81820  0.32630  Biso   1.000  O
  O24      1.0000 0.35310  0.31820  0.17370  Biso   1.000  O
  Cu13     1.0000 0.97837  0.29881  0.70043  Biso   1.000  Cu
  Cu14     1.0000 0.52163  0.79881  0.79957  Biso   1.000  Cu
  Cu15     1.0000 0.02163  0.70119  0.29957  Biso   1.000  Cu
  Cu16     1.0000 0.47837  0.20119  0.20043  Biso   1.000  Cu
  O25      1.0000 0.96470  0.26110  0.65450  Biso   1.000  O
  O26      1.0000 0.53530  0.76110  0.84550  Biso   1.000  O
  O27      1.0000 0.03530  0.73890  0.34550  Biso   1.000  O
  O28      1.0000 0.46470  0.23890  0.15450  Biso   1.000  O
  O29      1.0000 0.98700  0.34460  0.74310  Biso   1.000  O
  O30      1.0000 0.51300  0.84460  0.75690  Biso   1.000  O
  O31      1.0000 0.01300  0.65540  0.25690  Biso   1.000  O
  O32      1.0000 0.48700  0.15540  0.24310  Biso   1.000  O
  Cu17     1.0000 0.11383  0.22238  0.74715  Biso   1.000  Cu
  Cu18     1.0000 0.38617  0.72238  0.75285  Biso   1.000  Cu
  Cu19     1.0000 0.88617  0.77762  0.25285  Biso   1.000  Cu
  Cu20     1.0000 0.61383  0.27762  0.24715  Biso   1.000  Cu
  O33      1.0000 0.07580  0.27900  0.78270  Biso   1.000  O
  O34      1.0000 0.42420  0.77900  0.71730  Biso   1.000  O
  O35      1.0000 0.92420  0.72100  0.21730  Biso   1.000  O
  O36      1.0000 0.57580  0.22100  0.28270  Biso   1.000  O
  O37      1.0000 0.14550  0.15380  0.72160  Biso   1.000  O
  O38      1.0000 0.35450  0.65380  0.77840  Biso   1.000  O
  O39      1.0000 0.85450  0.84620  0.27840  Biso   1.000  O
  O40      1.0000 0.64550  0.34620  0.22160  Biso   1.000  O
  Cu21     1.0000 0.25042  0.26200  0.66979  Biso   1.000  Cu
  Cu22     1.0000 0.24958  0.76200  0.83021  Biso   1.000  Cu
  Cu23     1.0000 0.74958  0.73800  0.33021  Biso   1.000  Cu
  Cu24     1.0000 0.75042  0.23800  0.16979  Biso   1.000  Cu
  O41      1.0000 0.23540  0.18460  0.66660  Biso   1.000  O
  O42      1.0000 0.26460  0.68460  0.83340  Biso   1.000  O
  O43      1.0000 0.76460  0.81540  0.33340  Biso   1.000  O
  O44      1.0000 0.73540  0.31540  0.16660  Biso   1.000  O
  O45      1.0000 0.28400  0.33600  0.65660  Biso   1.000  O
  O46      1.0000 0.21600  0.83600  0.84340  Biso   1.000  O
  O47      1.0000 0.71600  0.66400  0.34340  Biso   1.000  O
  O48      1.0000 0.78400  0.16400  0.15660  Biso   1.000  O
  Cu25     1.0000 0.38548  0.29197  0.73533  Biso   1.000  Cu
  Cu26     1.0000 0.11452  0.79197  0.76467  Biso   1.000  Cu
  Cu27     1.0000 0.61452  0.70803  0.26467  Biso   1.000  Cu
  Cu28     1.0000 0.88548  0.20803  0.23533  Biso   1.000  Cu
  O49      1.0000 0.39470  0.36210  0.71090  Biso   1.000  O
  O50      1.0000 0.10530  0.86210  0.78910  Biso   1.000  O
  O51      1.0000 0.60530  0.63790  0.28910  Biso   1.000  O
  O52      1.0000 0.89470  0.13790  0.21090  Biso   1.000  O
  O53      1.0000 0.38910  0.22880  0.76640  Biso   1.000  O
  O54      1.0000 0.11090  0.72880  0.73360  Biso   1.000  O
  O55      1.0000 0.61090  0.77120  0.23360  Biso   1.000  O
  O56      1.0000 0.88910  0.27120  0.26640  Biso   1.000  O
  C1       1.0000 0.64510  0.29830  0.64090  Biso   1.000  C
  C2       1.0000 0.85490  0.79830  0.85910  Biso   1.000  C
  C3       1.0000 0.35490  0.70170  0.35910  Biso   1.000  C
  C4       1.0000 0.14510  0.20170  0.14090  Biso   1.000  C
  C5       1.0000 0.68860  0.31570  0.60050  Biso   1.000  C
  C6       1.0000 0.81140  0.81570  0.89950  Biso   1.000  C
  C7       1.0000 0.31140  0.68430  0.39950  Biso   1.000  C
  C8       1.0000 0.18860  0.18430  0.10050  Biso   1.000  C
  C9       1.0000 0.77840  0.36150  0.59620  Biso   1.000  C
  C10      1.0000 0.72160  0.86150  0.90380  Biso   1.000  C
  C11      1.0000 0.22160  0.63850  0.40380  Biso   1.000  C
  C12      1.0000 0.27840  0.13850  0.09620  Biso   1.000  C
  H1       1.0000 0.80950  0.38310  0.61760  Biso   1.000  H
  H2       1.0000 0.69050  0.88310  0.88240  Biso   1.000  H
  H3       1.0000 0.19050  0.61690  0.38240  Biso   1.000  H
  H4       1.0000 0.30950  0.11690  0.11760  Biso   1.000  H
  C13      1.0000 0.82400  0.37600  0.55910  Biso   1.000  C
  C14      1.0000 0.67600  0.87600  0.94090  Biso   1.000  C
  C15      1.0000 0.17600  0.62400  0.44090  Biso   1.000  C
  C16      1.0000 0.32400  0.12400  0.05910  Biso   1.000  C
  C17      1.0000 0.92700  0.42910  0.55540  Biso   1.000  C
  C18      1.0000 0.57300  0.92910  0.94460  Biso   1.000  C
  C19      1.0000 0.07300  0.57090  0.44460  Biso   1.000  C
  C20      1.0000 0.42700  0.07090  0.05540  Biso   1.000  C
  F1       1.0000 0.02900  0.42870  0.57790  Biso   1.000  F
  F2       1.0000 0.47100  0.92870  0.92210  Biso   1.000  F
  F3       1.0000 0.97100  0.57130  0.42210  Biso   1.000  F
  F4       1.0000 0.52900  0.07130  0.07790  Biso   1.000  F
  F5       1.0000 0.84000  0.47570  0.56880  Biso   1.000  F
  F6       1.0000 0.66000  0.97570  0.93120  Biso   1.000  F
  F7       1.0000 0.16000  0.52430  0.43120  Biso   1.000  F
  F8       1.0000 0.34000  0.02430  0.06880  Biso   1.000  F
  F9       1.0000 0.98700  0.43160  0.52190  Biso   1.000  F
  F10      1.0000 0.51300  0.93160  0.97810  Biso   1.000  F
  F11      1.0000 0.01300  0.56840  0.47810  Biso   1.000  F
  F12      1.0000 0.48700  0.06840  0.02190  Biso   1.000  F
  C21      1.0000 0.78220  0.34580  0.52920  Biso   1.000  C
  C22      1.0000 0.71780  0.84580  0.97080  Biso   1.000  C
  C23      1.0000 0.21780  0.65420  0.47080  Biso   1.000  C
  C24      1.0000 0.28220  0.15420  0.02920  Biso   1.000  C
  H5       1.0000 0.81320  0.35640  0.50440  Biso   1.000  H
  H6       1.0000 0.68680  0.85640  0.99560  Biso   1.000  H
  H7       1.0000 0.18680  0.64360  0.49560  Biso   1.000  H
  H8       1.0000 0.31320  0.14360  0.00440  Biso   1.000  H
  C25      1.0000 0.69320  0.29860  0.53370  Biso   1.000  C
  C26      1.0000 0.80680  0.79860  0.96630  Biso   1.000  C
  C27      1.0000 0.30680  0.70140  0.46630  Biso   1.000  C
  C28      1.0000 0.19320  0.20140  0.03370  Biso   1.000  C
  C29      1.0000 0.65100  0.26160  0.50020  Biso   1.000  C
  C30      1.0000 0.84900  0.76160  0.99980  Biso   1.000  C
  C31      1.0000 0.34900  0.73840  0.49980  Biso   1.000  C
  C32      1.0000 0.15100  0.23840  0.00020  Biso   1.000  C
  F13      1.0000 0.59400  0.21490  0.50740  Biso   1.000  F
  F14      1.0000 0.90600  0.71490  0.99260  Biso   1.000  F
  F15      1.0000 0.40600  0.78510  0.49260  Biso   1.000  F
  F16      1.0000 0.09400  0.28510  0.00740  Biso   1.000  F
  F17      1.0000 0.57200  0.28610  0.47590  Biso   1.000  F
  F18      1.0000 0.92800  0.78610  0.02410  Biso   1.000  F
  F19      1.0000 0.42800  0.71390  0.52410  Biso   1.000  F
  F20      1.0000 0.07200  0.21390  0.97590  Biso   1.000  F
  F21      1.0000 0.77200  0.25260  0.47680  Biso   1.000  F
  F22      1.0000 0.72800  0.75260  0.02320  Biso   1.000  F
  F23      1.0000 0.22800  0.74740  0.52320  Biso   1.000  F
  F24      1.0000 0.27200  0.24740  0.97680  Biso   1.000  F
  C33      1.0000 0.64740  0.28450  0.57010  Biso   1.000  C
  C34      1.0000 0.85260  0.78450  0.92990  Biso   1.000  C
  C35      1.0000 0.35260  0.71550  0.42990  Biso   1.000  C
  C36      1.0000 0.14740  0.21550  0.07010  Biso   1.000  C
  H9       1.0000 0.58640  0.25240  0.57360  Biso   1.000  H
  H10      1.0000 0.91360  0.75240  0.92640  Biso   1.000  H
  H11      1.0000 0.41360  0.74760  0.42640  Biso   1.000  H
  H12      1.0000 0.08640  0.24760  0.07360  Biso   1.000  H
  C37      1.0000 0.44170  0.17990  0.76010  Biso   1.000  C
  C38      1.0000 0.05830  0.67990  0.73990  Biso   1.000  C
  C39      1.0000 0.55830  0.82010  0.23990  Biso   1.000  C
  C40      1.0000 0.94170  0.32010  0.26010  Biso   1.000  C
  C41      1.0000 0.43280  0.13860  0.79220  Biso   1.000  C
  C42      1.0000 0.06720  0.63860  0.70780  Biso   1.000  C
  C43      1.0000 0.56720  0.86140  0.20780  Biso   1.000  C
  C44      1.0000 0.93280  0.36140  0.29220  Biso   1.000  C
  C45      1.0000 0.37540  0.15660  0.82710  Biso   1.000  C
  C46      1.0000 0.12460  0.65660  0.67290  Biso   1.000  C
  C47      1.0000 0.62460  0.84340  0.17290  Biso   1.000  C
  C48      1.0000 0.87540  0.34340  0.32710  Biso   1.000  C
  H13      1.0000 0.34110  0.19420  0.82970  Biso   1.000  H
  H14      1.0000 0.15890  0.69420  0.67030  Biso   1.000  H
  H15      1.0000 0.65890  0.80580  0.17030  Biso   1.000  H
  H16      1.0000 0.84110  0.30580  0.32970  Biso   1.000  H
  C49      1.0000 0.36840  0.11970  0.85770  Biso   1.000  C
  C50      1.0000 0.13160  0.61970  0.64230  Biso   1.000  C
  C51      1.0000 0.63160  0.88030  0.14230  Biso   1.000  C
  C52      1.0000 0.86840  0.38030  0.35770  Biso   1.000  C
  C53      1.0000 0.30980  0.13930  0.89430  Biso   1.000  C
  C54      1.0000 0.19020  0.63930  0.60570  Biso   1.000  C
  C55      1.0000 0.69020  0.86070  0.10570  Biso   1.000  C
  C56      1.0000 0.80980  0.36070  0.39430  Biso   1.000  C
  F25      1.0000 0.22000  0.18640  0.88950  Biso   1.000  F
  F26      1.0000 0.28000  0.68640  0.61050  Biso   1.000  F
  F27      1.0000 0.78000  0.81360  0.11050  Biso   1.000  F
  F28      1.0000 0.72000  0.31360  0.38950  Biso   1.000  F
  F29      1.0000 0.41000  0.15130  0.92000  Biso   1.000  F
  F30      1.0000 0.09000  0.65130  0.58000  Biso   1.000  F
  F31      1.0000 0.59000  0.84870  0.08000  Biso   1.000  F
  F32      1.0000 0.91000  0.34870  0.42000  Biso   1.000  F
  F33      1.0000 0.22100  0.10270  0.91220  Biso   1.000  F
  F34      1.0000 0.27900  0.60270  0.58780  Biso   1.000  F
  F35      1.0000 0.77900  0.89730  0.08780  Biso   1.000  F
  F36      1.0000 0.72100  0.39730  0.41220  Biso   1.000  F
  C57      1.0000 0.41790  0.06440  0.85230  Biso   1.000  C
  C58      1.0000 0.08210  0.56440  0.64770  Biso   1.000  C
  C59      1.0000 0.58210  0.93560  0.14770  Biso   1.000  C
  C60      1.0000 0.91790  0.43560  0.35230  Biso   1.000  C
  H17      1.0000 0.41030  0.03810  0.87260  Biso   1.000  H
  H18      1.0000 0.08970  0.53810  0.62740  Biso   1.000  H
  H19      1.0000 0.58970  0.96190  0.12740  Biso   1.000  H
  H20      1.0000 0.91030  0.46190  0.37260  Biso   1.000  H
  C61      1.0000 0.47600  0.04770  0.81910  Biso   1.000  C
  C62      1.0000 0.02400  0.54770  0.68090  Biso   1.000  C
  C63      1.0000 0.52400  0.95230  0.18090  Biso   1.000  C
  C64      1.0000 0.97600  0.45230  0.31910  Biso   1.000  C
  C65      1.0000 0.52930  0.98820  0.81450  Biso   1.000  C
  C66      1.0000 0.97070  0.48820  0.68550  Biso   1.000  C
  C67      1.0000 0.47070  0.01180  0.18550  Biso   1.000  C
  C68      1.0000 0.02930  0.51180  0.31450  Biso   1.000  C
  F37      1.0000 0.43000  0.95110  0.81600  Biso   1.000  F
  F38      1.0000 0.07000  0.45110  0.68400  Biso   1.000  F
  F39      1.0000 0.57000  0.04890  0.18400  Biso   1.000  F
  F40      1.0000 0.93000  0.54890  0.31600  Biso   1.000  F
  F41      1.0000 0.60900  0.97930  0.78300  Biso   1.000  F
  F42      1.0000 0.89100  0.47930  0.71700  Biso   1.000  F
  F43      1.0000 0.39100  0.02070  0.21700  Biso   1.000  F
  F44      1.0000 0.10900  0.52070  0.28300  Biso   1.000  F
  F45      1.0000 0.62800  0.97610  0.84390  Biso   1.000  F
  F46      1.0000 0.87200  0.47610  0.65610  Biso   1.000  F
  F47      1.0000 0.37200  0.02390  0.15610  Biso   1.000  F
  F48      1.0000 0.12800  0.52390  0.34390  Biso   1.000  F
  C69      1.0000 0.48260  0.08470  0.78770  Biso   1.000  C
  C70      1.0000 0.01740  0.58470  0.71230  Biso   1.000  C
  C71      1.0000 0.51740  0.91530  0.21230  Biso   1.000  C
  C72      1.0000 0.98260  0.41530  0.28770  Biso   1.000  C
  H21      1.0000 0.52070  0.07240  0.76400  Biso   1.000  H
  H22      1.0000 0.97930  0.57240  0.73600  Biso   1.000  H
  H23      1.0000 0.47930  0.92760  0.23600  Biso   1.000  H
  H24      1.0000 0.02070  0.42760  0.26400  Biso   1.000  H
  C73      1.0000 0.71400  0.25680  0.78830  Biso   1.000  C
  C74      1.0000 0.78600  0.75680  0.71170  Biso   1.000  C
  C75      1.0000 0.28600  0.74320  0.21170  Biso   1.000  C
  C76      1.0000 0.21400  0.24320  0.28830  Biso   1.000  C
  C77      1.0000 0.68780  0.25760  0.83000  Biso   1.000  C
  C78      1.0000 0.81220  0.75760  0.67000  Biso   1.000  C
  C79      1.0000 0.31220  0.74240  0.17000  Biso   1.000  C
  C80      1.0000 0.18780  0.24240  0.33000  Biso   1.000  C
  C81      1.0000 0.60850  0.30020  0.84750  Biso   1.000  C
  C82      1.0000 0.89150  0.80020  0.65250  Biso   1.000  C
  C83      1.0000 0.39150  0.69980  0.15250  Biso   1.000  C
  C84      1.0000 0.10850  0.19980  0.34750  Biso   1.000  C
  H25      1.0000 0.57110  0.33030  0.83250  Biso   1.000  H
  H26      1.0000 0.92890  0.83030  0.66750  Biso   1.000  H
  H27      1.0000 0.42890  0.66970  0.16750  Biso   1.000  H
  H28      1.0000 0.07110  0.16970  0.33250  Biso   1.000  H
  C85      1.0000 0.58320  0.30000  0.88490  Biso   1.000  C
  C86      1.0000 0.91680  0.80000  0.61510  Biso   1.000  C
  C87      1.0000 0.41680  0.70000  0.11510  Biso   1.000  C
  C88      1.0000 0.08320  0.20000  0.38490  Biso   1.000  C
  C89      1.0000 0.49200  0.34620  0.90370  Biso   1.000  C
  C90      1.0000 0.00800  0.84620  0.59630  Biso   1.000  C
  C91      1.0000 0.50800  0.65380  0.09630  Biso   1.000  C
  C92      1.0000 0.99200  0.15380  0.40370  Biso   1.000  C
  F49      1.0000 0.48000  0.34160  0.94060  Biso   1.000  F
  F50      1.0000 0.02000  0.84160  0.55940  Biso   1.000  F
  F51      1.0000 0.52000  0.65840  0.05940  Biso   1.000  F
  F52      1.0000 0.98000  0.15840  0.44060  Biso   1.000  F
  F53      1.0000 0.33800  0.33790  0.88860  Biso   1.000  F
  F54      1.0000 0.16200  0.83790  0.61140  Biso   1.000  F
  F55      1.0000 0.66200  0.66210  0.11140  Biso   1.000  F
  F56      1.0000 0.83800  0.16210  0.38860  Biso   1.000  F
  F57      1.0000 0.52400  0.39360  0.89170  Biso   1.000  F
  F58      1.0000 0.97600  0.89360  0.60830  Biso   1.000  F
  F59      1.0000 0.47600  0.60640  0.10830  Biso   1.000  F
  F60      1.0000 0.02400  0.10640  0.39170  Biso   1.000  F
  C93      1.0000 0.62810  0.25350  0.90770  Biso   1.000  C
  C94      1.0000 0.87190  0.75350  0.59230  Biso   1.000  C
  C95      1.0000 0.37190  0.74650  0.09230  Biso   1.000  C
  C96      1.0000 0.12810  0.24650  0.40770  Biso   1.000  C
  H29      1.0000 0.60270  0.25200  0.93390  Biso   1.000  H
  H30      1.0000 0.89730  0.75200  0.56610  Biso   1.000  H
  H31      1.0000 0.39730  0.74800  0.06610  Biso   1.000  H
  H32      1.0000 0.10270  0.24800  0.43390  Biso   1.000  H
  C97      1.0000 0.70900  0.21050  0.89160  Biso   1.000  C
  C98      1.0000 0.79100  0.71050  0.60840  Biso   1.000  C
  C99      1.0000 0.29100  0.78950  0.10840  Biso   1.000  C
  C100     1.0000 0.20900  0.28950  0.39160  Biso   1.000  C
  C101     1.0000 0.76250  0.16210  0.91450  Biso   1.000  C
  C102     1.0000 0.73750  0.66210  0.58550  Biso   1.000  C
  C103     1.0000 0.23750  0.83790  0.08550  Biso   1.000  C
  C104     1.0000 0.26250  0.33790  0.41450  Biso   1.000  C
  F61      1.0000 0.72300  0.16360  0.95050  Biso   1.000  F
  F62      1.0000 0.77700  0.66360  0.54950  Biso   1.000  F
  F63      1.0000 0.27700  0.83640  0.04950  Biso   1.000  F
  F64      1.0000 0.22300  0.33640  0.45050  Biso   1.000  F
  F65      1.0000 0.92500  0.16350  0.90990  Biso   1.000  F
  F66      1.0000 0.57500  0.66350  0.59010  Biso   1.000  F
  F67      1.0000 0.07500  0.83650  0.09010  Biso   1.000  F
  F68      1.0000 0.42500  0.33650  0.40990  Biso   1.000  F
  F69      1.0000 0.70800  0.10950  0.89770  Biso   1.000  F
  F70      1.0000 0.79200  0.60950  0.60230  Biso   1.000  F
  F71      1.0000 0.29200  0.89050  0.10230  Biso   1.000  F
  F72      1.0000 0.20800  0.39050  0.39770  Biso   1.000  F
  C105     1.0000 0.73630  0.21350  0.85240  Biso   1.000  C
  C106     1.0000 0.76370  0.71350  0.64760  Biso   1.000  C
  C107     1.0000 0.26370  0.78650  0.14760  Biso   1.000  C
  C108     1.0000 0.23630  0.28650  0.35240  Biso   1.000  C
  H33      1.0000 0.79050  0.18400  0.84090  Biso   1.000  H
  H34      1.0000 0.70950  0.68400  0.65910  Biso   1.000  H
  H35      1.0000 0.20950  0.81600  0.15910  Biso   1.000  H
  H36      1.0000 0.29050  0.31600  0.34090  Biso   1.000  H
  C109     1.0000 0.91430  0.21250  0.64950  Biso   1.000  C
  C110     1.0000 0.58570  0.71250  0.85050  Biso   1.000  C
  C111     1.0000 0.08570  0.78750  0.35050  Biso   1.000  C
  C112     1.0000 0.41430  0.28750  0.14950  Biso   1.000  C
  C113     1.0000 0.93160  0.18850  0.60970  Biso   1.000  C
  C114     1.0000 0.56840  0.68850  0.89030  Biso   1.000  C
  C115     1.0000 0.06840  0.81150  0.39030  Biso   1.000  C
  C116     1.0000 0.43160  0.31150  0.10970  Biso   1.000  C
  C117     1.0000 0.16900  0.21880  0.52460  Biso   1.000  C
  C118     1.0000 0.33100  0.71880  0.97540  Biso   1.000  C
  C119     1.0000 0.83100  0.78120  0.47540  Biso   1.000  C
  C120     1.0000 0.66900  0.28120  0.02460  Biso   1.000  C
  C121     1.0000 0.01700  0.21900  0.58440  Biso   1.000  C
  C122     1.0000 0.48300  0.71900  0.91560  Biso   1.000  C
  C123     1.0000 0.98300  0.78100  0.41560  Biso   1.000  C
  C124     1.0000 0.51700  0.28100  0.08440  Biso   1.000  C
  H37      1.0000 0.06460  0.25290  0.59210  Biso   1.000  H
  H38      1.0000 0.43540  0.75290  0.90790  Biso   1.000  H
  H39      1.0000 0.93540  0.74710  0.40790  Biso   1.000  H
  H40      1.0000 0.56460  0.24710  0.09210  Biso   1.000  H
  C125     1.0000 0.03200  0.19950  0.54910  Biso   1.000  C
  C126     1.0000 0.46800  0.69950  0.95090  Biso   1.000  C
  C127     1.0000 0.96800  0.80050  0.45090  Biso   1.000  C
  C128     1.0000 0.53200  0.30050  0.04910  Biso   1.000  C
  F73      1.0000 0.05700  0.26360  0.50080  Biso   1.000  F
  F74      1.0000 0.44300  0.76360  0.99920  Biso   1.000  F
  F75      1.0000 0.94300  0.73640  0.49920  Biso   1.000  F
  F76      1.0000 0.55700  0.23640  0.00080  Biso   1.000  F
  F77      1.0000 0.23800  0.26130  0.54040  Biso   1.000  F
  F78      1.0000 0.26200  0.76130  0.95960  Biso   1.000  F
  F79      1.0000 0.76200  0.73870  0.45960  Biso   1.000  F
  F80      1.0000 0.73800  0.23870  0.04040  Biso   1.000  F
  F81      1.0000 0.23600  0.17420  0.50260  Biso   1.000  F
  F82      1.0000 0.26400  0.67420  0.99740  Biso   1.000  F
  F83      1.0000 0.76400  0.82580  0.49740  Biso   1.000  F
  F84      1.0000 0.73600  0.32580  0.00260  Biso   1.000  F
  C129     1.0000 0.95300  0.14840  0.53700  Biso   1.000  C
  C130     1.0000 0.54700  0.64840  0.96300  Biso   1.000  C
  C131     1.0000 0.04700  0.85160  0.46300  Biso   1.000  C
  C132     1.0000 0.45300  0.35160  0.03700  Biso   1.000  C
  H41      1.0000 0.96890  0.13220  0.51260  Biso   1.000  H
  H42      1.0000 0.53110  0.63220  0.98740  Biso   1.000  H
  H43      1.0000 0.03110  0.86780  0.48740  Biso   1.000  H
  H44      1.0000 0.46890  0.36780  0.01260  Biso   1.000  H
  C133     1.0000 0.85900  0.12520  0.56140  Biso   1.000  C
  C134     1.0000 0.64100  0.62520  0.93860  Biso   1.000  C
  C135     1.0000 0.14100  0.87480  0.43860  Biso   1.000  C
  C136     1.0000 0.35900  0.37480  0.06140  Biso   1.000  C
  C137     1.0000 0.74000  0.07470  0.54660  Biso   1.000  C
  C138     1.0000 0.76000  0.57470  0.95340  Biso   1.000  C
  C139     1.0000 0.26000  0.92530  0.45340  Biso   1.000  C
  C140     1.0000 0.24000  0.42530  0.04660  Biso   1.000  C
  F85      1.0000 0.78000  0.06410  0.51320  Biso   1.000  F
  F86      1.0000 0.72000  0.56410  0.98680  Biso   1.000  F
  F87      1.0000 0.22000  0.93590  0.48680  Biso   1.000  F
  F88      1.0000 0.28000  0.43590  0.01320  Biso   1.000  F
  F89      1.0000 0.62300  0.09270  0.54780  Biso   1.000  F
  F90      1.0000 0.87700  0.59270  0.95220  Biso   1.000  F
  F91      1.0000 0.37700  0.90730  0.45220  Biso   1.000  F
  F92      1.0000 0.12300  0.40730  0.04780  Biso   1.000  F
  F93      1.0000 0.79900  0.02790  0.56940  Biso   1.000  F
  F94      1.0000 0.70100  0.52790  0.93060  Biso   1.000  F
  F95      1.0000 0.20100  0.97210  0.43060  Biso   1.000  F
  F96      1.0000 0.29900  0.47210  0.06940  Biso   1.000  F
  C141     1.0000 0.83500  0.14730  0.59770  Biso   1.000  C
  C142     1.0000 0.66500  0.64730  0.90230  Biso   1.000  C
  C143     1.0000 0.16500  0.85270  0.40230  Biso   1.000  C
  C144     1.0000 0.33500  0.35270  0.09770  Biso   1.000  C
  H45      1.0000 0.75680  0.13460  0.61320  Biso   1.000  H
  H46      1.0000 0.74320  0.63460  0.88680  Biso   1.000  H
  H47      1.0000 0.24320  0.86540  0.38680  Biso   1.000  H
  H48      1.0000 0.25680  0.36540  0.11320  Biso   1.000  H
  C145     1.0000 0.01950  0.32590  0.77540  Biso   1.000  C
  C146     1.0000 0.48050  0.82590  0.72460  Biso   1.000  C
  C147     1.0000 0.98050  0.67410  0.22460  Biso   1.000  C
  C148     1.0000 0.51950  0.17410  0.27540  Biso   1.000  C
  C149     1.0000 0.97900  0.36300  0.80880  Biso   1.000  C
  C150     1.0000 0.52100  0.86300  0.69120  Biso   1.000  C
  C151     1.0000 0.02100  0.63700  0.19120  Biso   1.000  C
  C152     1.0000 0.47900  0.13700  0.30880  Biso   1.000  C
  C153     1.0000 0.92500  0.41520  0.80290  Biso   1.000  C
  C154     1.0000 0.57500  0.91520  0.69710  Biso   1.000  C
  C155     1.0000 0.07500  0.58480  0.19710  Biso   1.000  C
  C156     1.0000 0.42500  0.08480  0.30290  Biso   1.000  C
  H49      1.0000 0.91490  0.42930  0.77770  Biso   1.000  H
  H50      1.0000 0.58510  0.92930  0.72230  Biso   1.000  H
  H51      1.0000 0.08510  0.57070  0.22230  Biso   1.000  H
  H52      1.0000 0.41490  0.07070  0.27770  Biso   1.000  H
  C157     1.0000 0.88350  0.44910  0.83410  Biso   1.000  C
  C158     1.0000 0.61650  0.94910  0.66590  Biso   1.000  C
  C159     1.0000 0.11650  0.55090  0.16590  Biso   1.000  C
  C160     1.0000 0.38350  0.05090  0.33410  Biso   1.000  C
  C161     1.0000 0.82230  0.50730  0.82690  Biso   1.000  C
  C162     1.0000 0.67770  0.00730  0.67310  Biso   1.000  C
  C163     1.0000 0.17770  0.49270  0.17310  Biso   1.000  C
  C164     1.0000 0.32230  0.99270  0.32690  Biso   1.000  C
  F97      1.0000 0.70500  0.51610  0.84610  Biso   1.000  F
  F98      1.0000 0.79500  0.01610  0.65390  Biso   1.000  F
  F99      1.0000 0.29500  0.48390  0.15390  Biso   1.000  F
  F100     1.0000 0.20500  0.98390  0.34610  Biso   1.000  F
  F101     1.0000 0.77000  0.51550  0.79120  Biso   1.000  F
  F102     1.0000 0.73000  0.01550  0.70880  Biso   1.000  F
  F103     1.0000 0.23000  0.48450  0.20880  Biso   1.000  F
  F104     1.0000 0.27000  0.98450  0.29120  Biso   1.000  F
  F105     1.0000 0.91500  0.54740  0.83630  Biso   1.000  F
  F106     1.0000 0.58500  0.04740  0.66370  Biso   1.000  F
  F107     1.0000 0.08500  0.45260  0.16370  Biso   1.000  F
  F108     1.0000 0.41500  0.95260  0.33630  Biso   1.000  F
  C165     1.0000 0.89960  0.42910  0.87080  Biso   1.000  C
  C166     1.0000 0.60040  0.92910  0.62920  Biso   1.000  C
  C167     1.0000 0.10040  0.57090  0.12920  Biso   1.000  C
  C168     1.0000 0.39960  0.07090  0.37080  Biso   1.000  C
  H53      1.0000 0.87000  0.45150  0.89190  Biso   1.000  H
  H54      1.0000 0.63000  0.95150  0.60810  Biso   1.000  H
  H55      1.0000 0.13000  0.54850  0.10810  Biso   1.000  H
  H56      1.0000 0.37000  0.04850  0.39190  Biso   1.000  H
  C169     1.0000 0.95890  0.37670  0.87670  Biso   1.000  C
  C170     1.0000 0.54110  0.87670  0.62330  Biso   1.000  C
  C171     1.0000 0.04110  0.62330  0.12330  Biso   1.000  C
  C172     1.0000 0.45890  0.12330  0.37670  Biso   1.000  C
  C173     1.0000 0.97740  0.35400  0.91700  Biso   1.000  C
  C174     1.0000 0.52260  0.85400  0.58300  Biso   1.000  C
  C175     1.0000 0.02260  0.64600  0.08300  Biso   1.000  C
  C176     1.0000 0.47740  0.14600  0.41700  Biso   1.000  C
  F109     1.0000 0.86600  0.35600  0.93800  Biso   1.000  F
  F110     1.0000 0.63400  0.85600  0.56200  Biso   1.000  F
  F111     1.0000 0.13400  0.64400  0.06200  Biso   1.000  F
  F112     1.0000 0.36600  0.14400  0.43800  Biso   1.000  F
  F113     1.0000 0.03800  0.30190  0.91780  Biso   1.000  F
  F114     1.0000 0.46200  0.80190  0.58220  Biso   1.000  F
  F115     1.0000 0.96200  0.69810  0.08220  Biso   1.000  F
  F116     1.0000 0.53800  0.19810  0.41780  Biso   1.000  F
  F117     1.0000 0.11000  0.38150  0.93230  Biso   1.000  F
  F118     1.0000 0.39000  0.88150  0.56770  Biso   1.000  F
  F119     1.0000 0.89000  0.61850  0.06770  Biso   1.000  F
  F120     1.0000 0.61000  0.11850  0.43230  Biso   1.000  F
  C177     1.0000 0.00060  0.34310  0.84580  Biso   1.000  C
  C178     1.0000 0.49940  0.84310  0.65420  Biso   1.000  C
  C179     1.0000 0.99940  0.65690  0.15420  Biso   1.000  C
  C180     1.0000 0.50060  0.15690  0.34580  Biso   1.000  C
  H57      1.0000 0.04330  0.30700  0.85000  Biso   1.000  H
  H58      1.0000 0.45670  0.80700  0.65000  Biso   1.000  H
  H59      1.0000 0.95670  0.69300  0.15000  Biso   1.000  H
  H60      1.0000 0.54330  0.19300  0.35000  Biso   1.000  H
  C181     1.0000 0.19020  0.14640  0.68790  Biso   1.000  C
  C182     1.0000 0.30980  0.64640  0.81210  Biso   1.000  C
  C183     1.0000 0.80980  0.85360  0.31210  Biso   1.000  C
  C184     1.0000 0.69020  0.35360  0.18790  Biso   1.000  C
  C185     1.0000 0.19790  0.08870  0.67220  Biso   1.000  C
  C186     1.0000 0.30210  0.58870  0.82780  Biso   1.000  C
  C187     1.0000 0.80210  0.91130  0.32780  Biso   1.000  C
  C188     1.0000 0.69790  0.41130  0.17220  Biso   1.000  C
  C189     1.0000 0.22740  0.08120  0.63430  Biso   1.000  C
  C190     1.0000 0.27260  0.58120  0.86570  Biso   1.000  C
  C191     1.0000 0.77260  0.91880  0.36570  Biso   1.000  C
  C192     1.0000 0.72740  0.41880  0.13430  Biso   1.000  C
  H61      1.0000 0.24430  0.11290  0.61830  Biso   1.000  H
  H62      1.0000 0.25570  0.61290  0.88170  Biso   1.000  H
  H63      1.0000 0.75570  0.88710  0.38170  Biso   1.000  H
  H64      1.0000 0.74430  0.38710  0.11830  Biso   1.000  H
  C193     1.0000 0.23240  0.02680  0.61950  Biso   1.000  C
  C194     1.0000 0.26760  0.52680  0.88050  Biso   1.000  C
  C195     1.0000 0.76760  0.97320  0.38050  Biso   1.000  C
  C196     1.0000 0.73240  0.47320  0.11950  Biso   1.000  C
  C197     1.0000 0.26690  0.01750  0.57760  Biso   1.000  C
  C198     1.0000 0.23310  0.51750  0.92240  Biso   1.000  C
  C199     1.0000 0.73310  0.98250  0.42240  Biso   1.000  C
  C200     1.0000 0.76690  0.48250  0.07760  Biso   1.000  C
  F121     1.0000 0.27400  0.06550  0.55790  Biso   1.000  F
  F122     1.0000 0.22600  0.56550  0.94210  Biso   1.000  F
  F123     1.0000 0.72600  0.93450  0.44210  Biso   1.000  F
  F124     1.0000 0.77400  0.43450  0.05790  Biso   1.000  F
  F125     1.0000 0.39800  0.99500  0.57280  Biso   1.000  F
  F126     1.0000 0.10200  0.49500  0.92720  Biso   1.000  F
  F127     1.0000 0.60200  0.00500  0.42720  Biso   1.000  F
  F128     1.0000 0.89800  0.50500  0.07280  Biso   1.000  F
  F129     1.0000 0.15800  0.98570  0.56090  Biso   1.000  F
  F130     1.0000 0.34200  0.48570  0.93910  Biso   1.000  F
  F131     1.0000 0.84200  0.01430  0.43910  Biso   1.000  F
  F132     1.0000 0.65800  0.51430  0.06090  Biso   1.000  F
  C201     1.0000 0.21060  0.98000  0.64220  Biso   1.000  C
  C202     1.0000 0.28940  0.48000  0.85780  Biso   1.000  C
  C203     1.0000 0.78940  0.02000  0.35780  Biso   1.000  C
  C204     1.0000 0.71060  0.52000  0.14220  Biso   1.000  C
  H65      1.0000 0.21710  0.94310  0.63190  Biso   1.000  H
  H66      1.0000 0.28290  0.44310  0.86810  Biso   1.000  H
  H67      1.0000 0.78290  0.05690  0.36810  Biso   1.000  H
  H68      1.0000 0.71710  0.55690  0.13190  Biso   1.000  H
  C205     1.0000 0.17900  0.98840  0.68040  Biso   1.000  C
  C206     1.0000 0.32100  0.48840  0.81960  Biso   1.000  C
  C207     1.0000 0.82100  0.01160  0.31960  Biso   1.000  C
  C208     1.0000 0.67900  0.51160  0.18040  Biso   1.000  C
  C209     1.0000 0.15140  0.94030  0.70670  Biso   1.000  C
  C210     1.0000 0.34860  0.44030  0.79330  Biso   1.000  C
  C211     1.0000 0.84860  0.05970  0.29330  Biso   1.000  C
  C212     1.0000 0.65140  0.55970  0.20670  Biso   1.000  C
  F133     1.0000 0.24030  0.94150  0.73690  Biso   1.000  F
  F134     1.0000 0.25970  0.44150  0.76310  Biso   1.000  F
  F135     1.0000 0.75970  0.05850  0.26310  Biso   1.000  F
  F136     1.0000 0.74030  0.55850  0.23690  Biso   1.000  F
  F137     1.0000 0.01510  0.93990  0.72000  Biso   1.000  F
  F138     1.0000 0.48490  0.43990  0.78000  Biso   1.000  F
  F139     1.0000 0.98490  0.06010  0.28000  Biso   1.000  F
  F140     1.0000 0.51510  0.56010  0.22000  Biso   1.000  F
  F141     1.0000 0.17060  0.89020  0.68970  Biso   1.000  F
  F142     1.0000 0.32940  0.39020  0.81030  Biso   1.000  F
  F143     1.0000 0.82940  0.10980  0.31030  Biso   1.000  F
  F144     1.0000 0.67060  0.60980  0.18970  Biso   1.000  F
  C213     1.0000 0.17100  0.04280  0.69570  Biso   1.000  C
  C214     1.0000 0.32900  0.54280  0.80430  Biso   1.000  C
  C215     1.0000 0.82900  0.95720  0.30430  Biso   1.000  C
  C216     1.0000 0.67100  0.45720  0.19570  Biso   1.000  C
  H69      1.0000 0.14750  0.04820  0.72180  Biso   1.000  H
  H70      1.0000 0.35250  0.54820  0.77820  Biso   1.000  H
  H71      1.0000 0.85250  0.95180  0.27820  Biso   1.000  H
  H72      1.0000 0.64750  0.45180  0.22180  Biso   1.000  H
  C217     1.0000 0.35760  0.36950  0.67720  Biso   1.000  C
  C218     1.0000 0.14240  0.86950  0.82280  Biso   1.000  C
  C219     1.0000 0.64240  0.63050  0.32280  Biso   1.000  C
  C220     1.0000 0.85760  0.13050  0.17720  Biso   1.000  C
  C221     1.0000 0.40170  0.42430  0.65940  Biso   1.000  C
  C222     1.0000 0.09830  0.92430  0.84060  Biso   1.000  C
  C223     1.0000 0.59830  0.57570  0.34060  Biso   1.000  C
  C224     1.0000 0.90170  0.07570  0.15940  Biso   1.000  C
  C225     1.0000 0.39310  0.43030  0.62030  Biso   1.000  C
  C226     1.0000 0.10690  0.93030  0.87970  Biso   1.000  C
  C227     1.0000 0.60690  0.56970  0.37970  Biso   1.000  C
  C228     1.0000 0.89310  0.06970  0.12030  Biso   1.000  C
  H73      1.0000 0.35300  0.40090  0.60500  Biso   1.000  H
  H74      1.0000 0.14700  0.90090  0.89500  Biso   1.000  H
  H75      1.0000 0.64700  0.59910  0.39500  Biso   1.000  H
  H76      1.0000 0.85300  0.09910  0.10500  Biso   1.000  H
  C229     1.0000 0.44390  0.47990  0.60330  Biso   1.000  C
  C230     1.0000 0.05610  0.97990  0.89670  Biso   1.000  C
  C231     1.0000 0.55610  0.52010  0.39670  Biso   1.000  C
  C232     1.0000 0.94390  0.02010  0.10330  Biso   1.000  C
  C233     1.0000 0.44000  0.48440  0.56050  Biso   1.000  C
  C234     1.0000 0.06000  0.98440  0.93950  Biso   1.000  C
  C235     1.0000 0.56000  0.51560  0.43950  Biso   1.000  C
  C236     1.0000 0.94000  0.01560  0.06050  Biso   1.000  C
  F145     1.0000 0.28600  0.50440  0.54970  Biso   1.000  F
  F146     1.0000 0.21400  0.00440  0.95030  Biso   1.000  F
  F147     1.0000 0.71400  0.49560  0.45030  Biso   1.000  F
  F148     1.0000 0.78600  0.99560  0.04970  Biso   1.000  F
  F149     1.0000 0.44100  0.43590  0.54250  Biso   1.000  F
  F150     1.0000 0.05900  0.93590  0.95750  Biso   1.000  F
  F151     1.0000 0.55900  0.56410  0.45750  Biso   1.000  F
  F152     1.0000 0.94100  0.06410  0.04250  Biso   1.000  F
  F153     1.0000 0.54700  0.51940  0.54750  Biso   1.000  F
  F154     1.0000 0.95300  0.01940  0.95250  Biso   1.000  F
  F155     1.0000 0.45300  0.48060  0.45250  Biso   1.000  F
  F156     1.0000 0.04700  0.98060  0.04750  Biso   1.000  F
  C237     1.0000 0.49480  0.52270  0.62500  Biso   1.000  C
  C238     1.0000 0.00520  0.02270  0.87500  Biso   1.000  C
  C239     1.0000 0.50520  0.47730  0.37500  Biso   1.000  C
  C240     1.0000 0.99480  0.97730  0.12500  Biso   1.000  C
  H77      1.0000 0.52710  0.55650  0.61320  Biso   1.000  H
  H78      1.0000 0.97290  0.05650  0.88680  Biso   1.000  H
  H79      1.0000 0.47290  0.44350  0.38680  Biso   1.000  H
  H80      1.0000 0.02710  0.94350  0.11320  Biso   1.000  H
  C241     1.0000 0.50050  0.51780  0.66480  Biso   1.000  C
  C242     1.0000 0.99950  0.01780  0.83520  Biso   1.000  C
  C243     1.0000 0.49950  0.48220  0.33520  Biso   1.000  C
  C244     1.0000 0.00050  0.98220  0.16480  Biso   1.000  C
  C245     1.0000 0.55360  0.56550  0.68920  Biso   1.000  C
  C246     1.0000 0.94640  0.06550  0.81080  Biso   1.000  C
  C247     1.0000 0.44640  0.43450  0.31080  Biso   1.000  C
  C248     1.0000 0.05360  0.93450  0.18920  Biso   1.000  C
  F157     1.0000 0.69500  0.58010  0.67910  Biso   1.000  F
  F158     1.0000 0.80500  0.08010  0.82090  Biso   1.000  F
  F159     1.0000 0.30500  0.41990  0.32090  Biso   1.000  F
  F160     1.0000 0.19500  0.91990  0.17910  Biso   1.000  F
  F161     1.0000 0.56700  0.55250  0.72690  Biso   1.000  F
  F162     1.0000 0.93300  0.05250  0.77310  Biso   1.000  F
  F163     1.0000 0.43300  0.44750  0.27310  Biso   1.000  F
  F164     1.0000 0.06700  0.94750  0.22690  Biso   1.000  F
  F165     1.0000 0.47010  0.61060  0.68820  Biso   1.000  F
  F166     1.0000 0.02990  0.11060  0.81180  Biso   1.000  F
  F167     1.0000 0.52990  0.38940  0.31180  Biso   1.000  F
  F168     1.0000 0.97010  0.88940  0.18820  Biso   1.000  F
  C249     1.0000 0.45710  0.46790  0.68180  Biso   1.000  C
  C250     1.0000 0.04290  0.96790  0.81820  Biso   1.000  C
  C251     1.0000 0.54290  0.53210  0.31820  Biso   1.000  C
  C252     1.0000 0.95710  0.03210  0.18180  Biso   1.000  C
  H81      1.0000 0.46520  0.46340  0.70860  Biso   1.000  H
  H82      1.0000 0.03480  0.96340  0.79140  Biso   1.000  H
  H83      1.0000 0.53480  0.53660  0.29140  Biso   1.000  H
  H84      1.0000 0.96520  0.03660  0.20860  Biso   1.000  H
  F169     1.0000 0.08700  0.39630  0.56470  Biso   1.000  F
  F170     1.0000 0.41300  0.89630  0.93530  Biso   1.000  F
  F171     1.0000 0.91300  0.60370  0.43530  Biso   1.000  F
  F172     1.0000 0.58700  0.10370  0.06470  Biso   1.000  F
  F173     1.0000 0.93600  0.45990  0.57570  Biso   1.000  F
  F174     1.0000 0.56400  0.95990  0.92430  Biso   1.000  F
  F175     1.0000 0.06400  0.54010  0.42430  Biso   1.000  F
  F176     1.0000 0.43600  0.04010  0.07570  Biso   1.000  F
  F177     1.0000 0.89500  0.45590  0.52090  Biso   1.000  F
  F178     1.0000 0.60500  0.95590  0.97910  Biso   1.000  F
  F179     1.0000 0.10500  0.54410  0.47910  Biso   1.000  F
  F180     1.0000 0.39500  0.04410  0.02090  Biso   1.000  F
  F181     1.0000 0.66600  0.20690  0.50760  Biso   1.000  F
  F182     1.0000 0.83400  0.70690  0.99240  Biso   1.000  F
  F183     1.0000 0.33400  0.79310  0.49240  Biso   1.000  F
  F184     1.0000 0.16600  0.29310  0.00760  Biso   1.000  F
  F185     1.0000 0.49500  0.27920  0.49120  Biso   1.000  F
  F186     1.0000 0.00500  0.77920  0.00880  Biso   1.000  F
  F187     1.0000 0.50500  0.72080  0.50880  Biso   1.000  F
  F188     1.0000 0.99500  0.22080  0.99120  Biso   1.000  F
  F189     1.0000 0.69900  0.27570  0.47010  Biso   1.000  F
  F190     1.0000 0.80100  0.77570  0.02990  Biso   1.000  F
  F191     1.0000 0.30100  0.72430  0.52990  Biso   1.000  F
  F192     1.0000 0.19900  0.22430  0.97010  Biso   1.000  F
  F193     1.0000 0.52800  0.24000  0.50290  Biso   1.000  F
  F194     1.0000 0.97200  0.74000  0.99710  Biso   1.000  F
  F195     1.0000 0.47200  0.76000  0.49710  Biso   1.000  F
  F196     1.0000 0.02800  0.26000  0.00290  Biso   1.000  F
  F197     1.0000 0.64000  0.30380  0.46770  Biso   1.000  F
  F198     1.0000 0.86000  0.80380  0.03230  Biso   1.000  F
  F199     1.0000 0.36000  0.69620  0.53230  Biso   1.000  F
  F200     1.0000 0.14000  0.19620  0.96770  Biso   1.000  F
  F201     1.0000 0.78200  0.22600  0.49130  Biso   1.000  F
  F202     1.0000 0.71800  0.72600  0.00870  Biso   1.000  F
  F203     1.0000 0.21800  0.77400  0.50870  Biso   1.000  F
  F204     1.0000 0.28200  0.27400  0.99130  Biso   1.000  F
  F205     1.0000 0.29800  0.19840  0.89760  Biso   1.000  F
  F206     1.0000 0.20200  0.69840  0.60240  Biso   1.000  F
  F207     1.0000 0.70200  0.80160  0.10240  Biso   1.000  F
  F208     1.0000 0.79800  0.30160  0.39760  Biso   1.000  F
  F209     1.0000 0.40600  0.12100  0.92470  Biso   1.000  F
  F210     1.0000 0.09400  0.62100  0.57530  Biso   1.000  F
  F211     1.0000 0.59400  0.87900  0.07530  Biso   1.000  F
  F212     1.0000 0.90600  0.37900  0.42470  Biso   1.000  F
  F213     1.0000 0.18800  0.12060  0.90300  Biso   1.000  F
  F214     1.0000 0.31200  0.62060  0.59700  Biso   1.000  F
  F215     1.0000 0.81200  0.87940  0.09700  Biso   1.000  F
  F216     1.0000 0.68800  0.37940  0.40300  Biso   1.000  F
  F217     1.0000 0.16300  0.14910  0.88870  Biso   1.000  F
  F218     1.0000 0.33700  0.64910  0.61130  Biso   1.000  F
  F219     1.0000 0.83700  0.85090  0.11130  Biso   1.000  F
  F220     1.0000 0.66300  0.35090  0.38870  Biso   1.000  F
  F221     1.0000 0.37700  0.18100  0.90770  Biso   1.000  F
  F222     1.0000 0.12300  0.68100  0.59230  Biso   1.000  F
  F223     1.0000 0.62300  0.81900  0.09230  Biso   1.000  F
  F224     1.0000 0.87700  0.31900  0.40770  Biso   1.000  F
  F225     1.0000 0.31200  0.09770  0.91940  Biso   1.000  F
  F226     1.0000 0.18800  0.59770  0.58060  Biso   1.000  F
  F227     1.0000 0.68800  0.90230  0.08060  Biso   1.000  F
  F228     1.0000 0.81200  0.40230  0.41940  Biso   1.000  F
  F229     1.0000 0.44700  0.95060  0.83570  Biso   1.000  F
  F230     1.0000 0.05300  0.45060  0.66430  Biso   1.000  F
  F231     1.0000 0.55300  0.04940  0.16430  Biso   1.000  F
  F232     1.0000 0.94700  0.54940  0.33570  Biso   1.000  F
  F233     1.0000 0.52400  0.97270  0.77830  Biso   1.000  F
  F234     1.0000 0.97600  0.47270  0.72170  Biso   1.000  F
  F235     1.0000 0.47600  0.02730  0.22170  Biso   1.000  F
  F236     1.0000 0.02400  0.52730  0.27830  Biso   1.000  F
  F237     1.0000 0.66100  0.98060  0.82680  Biso   1.000  F
  F238     1.0000 0.83900  0.48060  0.67320  Biso   1.000  F
  F239     1.0000 0.33900  0.01940  0.17320  Biso   1.000  F
  F240     1.0000 0.16100  0.51940  0.32680  Biso   1.000  F
  F241     1.0000 0.52800  0.95730  0.84670  Biso   1.000  F
  F242     1.0000 0.97200  0.45730  0.65330  Biso   1.000  F
  F243     1.0000 0.47200  0.04270  0.15330  Biso   1.000  F
  F244     1.0000 0.02800  0.54270  0.34670  Biso   1.000  F
  F245     1.0000 0.41100  0.95920  0.79060  Biso   1.000  F
  F246     1.0000 0.08900  0.45920  0.70940  Biso   1.000  F
  F247     1.0000 0.58900  0.04080  0.20940  Biso   1.000  F
  F248     1.0000 0.91100  0.54080  0.29060  Biso   1.000  F
  F249     1.0000 0.64700  0.98400  0.79330  Biso   1.000  F
  F250     1.0000 0.85300  0.48400  0.70670  Biso   1.000  F
  F251     1.0000 0.35300  0.01600  0.20670  Biso   1.000  F
  F252     1.0000 0.14700  0.51600  0.29330  Biso   1.000  F
  F253     1.0000 0.54800  0.35980  0.94120  Biso   1.000  F
  F254     1.0000 0.95200  0.85980  0.55880  Biso   1.000  F
  F255     1.0000 0.45200  0.64020  0.05880  Biso   1.000  F
  F256     1.0000 0.04800  0.14020  0.44120  Biso   1.000  F
  F257     1.0000 0.38200  0.35480  0.90070  Biso   1.000  F
  F258     1.0000 0.11800  0.85480  0.59930  Biso   1.000  F
  F259     1.0000 0.61800  0.64520  0.09930  Biso   1.000  F
  F260     1.0000 0.88200  0.14520  0.40070  Biso   1.000  F
  F261     1.0000 0.56700  0.40440  0.88890  Biso   1.000  F
  F262     1.0000 0.93300  0.90440  0.61110  Biso   1.000  F
  F263     1.0000 0.43300  0.59560  0.11110  Biso   1.000  F
  F264     1.0000 0.06700  0.09560  0.38890  Biso   1.000  F
  F265     1.0000 0.41600  0.32200  0.93770  Biso   1.000  F
  F266     1.0000 0.08400  0.82200  0.56230  Biso   1.000  F
  F267     1.0000 0.58400  0.67800  0.06230  Biso   1.000  F
  F268     1.0000 0.91600  0.17800  0.43770  Biso   1.000  F
  F269     1.0000 0.36400  0.35130  0.88480  Biso   1.000  F
  F270     1.0000 0.13600  0.85130  0.61520  Biso   1.000  F
  F271     1.0000 0.63600  0.64870  0.11520  Biso   1.000  F
  F272     1.0000 0.86400  0.14870  0.38480  Biso   1.000  F
  F273     1.0000 0.55000  0.38900  0.90810  Biso   1.000  F
  F274     1.0000 0.95000  0.88900  0.59190  Biso   1.000  F
  F275     1.0000 0.45000  0.61100  0.09190  Biso   1.000  F
  F276     1.0000 0.05000  0.11100  0.40810  Biso   1.000  F
  F277     1.0000 0.78000  0.17710  0.95110  Biso   1.000  F
  F278     1.0000 0.72000  0.67710  0.54890  Biso   1.000  F
  F279     1.0000 0.22000  0.82290  0.04890  Biso   1.000  F
  F280     1.0000 0.28000  0.32290  0.45110  Biso   1.000  F
  F281     1.0000 0.89400  0.14610  0.90840  Biso   1.000  F
  F282     1.0000 0.60600  0.64610  0.59160  Biso   1.000  F
  F283     1.0000 0.10600  0.85390  0.09160  Biso   1.000  F
  F284     1.0000 0.39400  0.35390  0.40840  Biso   1.000  F
  F285     1.0000 0.68200  0.11510  0.90710  Biso   1.000  F
  F286     1.0000 0.81800  0.61510  0.59290  Biso   1.000  F
  F287     1.0000 0.31800  0.88490  0.09290  Biso   1.000  F
  F288     1.0000 0.18200  0.38490  0.40710  Biso   1.000  F
  F289     1.0000 0.66700  0.15660  0.94630  Biso   1.000  F
  F290     1.0000 0.83300  0.65660  0.55370  Biso   1.000  F
  F291     1.0000 0.33300  0.84340  0.05370  Biso   1.000  F
  F292     1.0000 0.16700  0.34340  0.44630  Biso   1.000  F
  F293     1.0000 0.88800  0.15740  0.92130  Biso   1.000  F
  F294     1.0000 0.61200  0.65740  0.57870  Biso   1.000  F
  F295     1.0000 0.11200  0.84260  0.07870  Biso   1.000  F
  F296     1.0000 0.38800  0.34260  0.42130  Biso   1.000  F
  F297     1.0000 0.74500  0.11730  0.90310  Biso   1.000  F
  F298     1.0000 0.75500  0.61730  0.59690  Biso   1.000  F
  F299     1.0000 0.25500  0.88270  0.09690  Biso   1.000  F
  F300     1.0000 0.24500  0.38270  0.40310  Biso   1.000  F
  C253     1.0000 0.04800  0.20970  0.58710  Biso   1.000  C
  C254     1.0000 0.45200  0.70970  0.91290  Biso   1.000  C
  C255     1.0000 0.95200  0.79030  0.41290  Biso   1.000  C
  C256     1.0000 0.54800  0.29030  0.08710  Biso   1.000  C
  H85      1.0000 0.10860  0.23960  0.59580  Biso   1.000  H
  H86      1.0000 0.39140  0.73960  0.90420  Biso   1.000  H
  H87      1.0000 0.89140  0.76040  0.40420  Biso   1.000  H
  H88      1.0000 0.60860  0.26040  0.09580  Biso   1.000  H
  C257     1.0000 0.06800  0.18430  0.55080  Biso   1.000  C
  C258     1.0000 0.43200  0.68430  0.94920  Biso   1.000  C
  C259     1.0000 0.93200  0.81570  0.44920  Biso   1.000  C
  C260     1.0000 0.56800  0.31570  0.05080  Biso   1.000  C
  F301     1.0000 0.12800  0.25560  0.50910  Biso   1.000  F
  F302     1.0000 0.37200  0.75560  0.99090  Biso   1.000  F
  F303     1.0000 0.87200  0.74440  0.49090  Biso   1.000  F
  F304     1.0000 0.62800  0.24440  0.00910  Biso   1.000  F
  F305     1.0000 0.28900  0.23460  0.54540  Biso   1.000  F
  F306     1.0000 0.21100  0.73460  0.95460  Biso   1.000  F
  F307     1.0000 0.71100  0.76540  0.45460  Biso   1.000  F
  F308     1.0000 0.78900  0.26540  0.04540  Biso   1.000  F
  F309     1.0000 0.17300  0.19300  0.49300  Biso   1.000  F
  F310     1.0000 0.32700  0.69300  0.00700  Biso   1.000  F
  F311     1.0000 0.82700  0.80700  0.50700  Biso   1.000  F
  F312     1.0000 0.67300  0.30700  0.99300  Biso   1.000  F
  C261     1.0000 0.99800  0.14100  0.53860  Biso   1.000  C
  C262     1.0000 0.50200  0.64100  0.96140  Biso   1.000  C
  C263     1.0000 0.00200  0.85900  0.46140  Biso   1.000  C
  C264     1.0000 0.49800  0.35900  0.03860  Biso   1.000  C
  H89      1.0000 0.01180  0.12840  0.51330  Biso   1.000  H
  H90      1.0000 0.48820  0.62840  0.98670  Biso   1.000  H
  H91      1.0000 0.98820  0.87160  0.48670  Biso   1.000  H
  H92      1.0000 0.51180  0.37160  0.01330  Biso   1.000  H
  C265     1.0000 0.90000  0.11220  0.56220  Biso   1.000  C
  C266     1.0000 0.60000  0.61220  0.93780  Biso   1.000  C
  C267     1.0000 0.10000  0.88780  0.43780  Biso   1.000  C
  C268     1.0000 0.40000  0.38780  0.06220  Biso   1.000  C
  C269     1.0000 0.81400  0.06340  0.55040  Biso   1.000  C
  C270     1.0000 0.68600  0.56340  0.94960  Biso   1.000  C
  C271     1.0000 0.18600  0.93660  0.44960  Biso   1.000  C
  C272     1.0000 0.31400  0.43660  0.05040  Biso   1.000  C
  F313     1.0000 0.88700  0.02700  0.53800  Biso   1.000  F
  F314     1.0000 0.61300  0.52700  0.96200  Biso   1.000  F
  F315     1.0000 0.11300  0.97300  0.46200  Biso   1.000  F
  F316     1.0000 0.38700  0.47300  0.03800  Biso   1.000  F
  F317     1.0000 0.69700  0.08250  0.51870  Biso   1.000  F
  F318     1.0000 0.80300  0.58250  0.98130  Biso   1.000  F
  F319     1.0000 0.30300  0.91750  0.48130  Biso   1.000  F
  F320     1.0000 0.19700  0.41750  0.01870  Biso   1.000  F
  F321     1.0000 0.71700  0.04260  0.57000  Biso   1.000  F
  F322     1.0000 0.78300  0.54260  0.93000  Biso   1.000  F
  F323     1.0000 0.28300  0.95740  0.43000  Biso   1.000  F
  F324     1.0000 0.21700  0.45740  0.07000  Biso   1.000  F
  C273     1.0000 0.87500  0.13640  0.59880  Biso   1.000  C
  C274     1.0000 0.62500  0.63640  0.90120  Biso   1.000  C
  C275     1.0000 0.12500  0.86360  0.40120  Biso   1.000  C
  C276     1.0000 0.37500  0.36360  0.09880  Biso   1.000  C
  H93      1.0000 0.81760  0.11600  0.61650  Biso   1.000  H
  H94      1.0000 0.68240  0.61600  0.88350  Biso   1.000  H
  H95      1.0000 0.18240  0.88400  0.38350  Biso   1.000  H
  H96      1.0000 0.31760  0.38400  0.11650  Biso   1.000  H
  F325     1.0000 0.14400  0.28100  0.52350  Biso   1.000  F
  F326     1.0000 0.35600  0.78100  0.97650  Biso   1.000  F
  F327     1.0000 0.85600  0.71900  0.47650  Biso   1.000  F
  F328     1.0000 0.64400  0.21900  0.02350  Biso   1.000  F
  F329     1.0000 0.31300  0.20600  0.54510  Biso   1.000  F
  F330     1.0000 0.18700  0.70600  0.95490  Biso   1.000  F
  F331     1.0000 0.68700  0.79400  0.45490  Biso   1.000  F
  F332     1.0000 0.81300  0.29400  0.04510  Biso   1.000  F
  F333     1.0000 0.21700  0.20260  0.49690  Biso   1.000  F
  F334     1.0000 0.28300  0.70260  0.00310  Biso   1.000  F
  F335     1.0000 0.78300  0.79740  0.50310  Biso   1.000  F
  F336     1.0000 0.71700  0.29740  0.99690  Biso   1.000  F
  F337     1.0000 0.86100  0.04660  0.51700  Biso   1.000  F
  F338     1.0000 0.63900  0.54660  0.98300  Biso   1.000  F
  F339     1.0000 0.13900  0.95340  0.48300  Biso   1.000  F
  F340     1.0000 0.36100  0.45340  0.01700  Biso   1.000  F
  F341     1.0000 0.66100  0.06820  0.56070  Biso   1.000  F
  F342     1.0000 0.83900  0.56820  0.93930  Biso   1.000  F
  F343     1.0000 0.33900  0.93180  0.43930  Biso   1.000  F
  F344     1.0000 0.16100  0.43180  0.06070  Biso   1.000  F
  F345     1.0000 0.87600  0.02100  0.57050  Biso   1.000  F
  F346     1.0000 0.62400  0.52100  0.92950  Biso   1.000  F
  F347     1.0000 0.12400  0.97900  0.42950  Biso   1.000  F
  F348     1.0000 0.37600  0.47900  0.07050  Biso   1.000  F
  F349     1.0000 0.66400  0.50760  0.83790  Biso   1.000  F
  F350     1.0000 0.83600  0.00760  0.66210  Biso   1.000  F
  F351     1.0000 0.33600  0.49240  0.16210  Biso   1.000  F
  F352     1.0000 0.16400  0.99240  0.33790  Biso   1.000  F
  F353     1.0000 0.84100  0.52620  0.79140  Biso   1.000  F
  F354     1.0000 0.65900  0.02620  0.70860  Biso   1.000  F
  F355     1.0000 0.15900  0.47380  0.20860  Biso   1.000  F
  F356     1.0000 0.34100  0.97380  0.29140  Biso   1.000  F
  F357     1.0000 0.88400  0.54460  0.85230  Biso   1.000  F
  F358     1.0000 0.61600  0.04460  0.64770  Biso   1.000  F
  F359     1.0000 0.11600  0.45540  0.14770  Biso   1.000  F
  F360     1.0000 0.38400  0.95540  0.35230  Biso   1.000  F
  F361     1.0000 0.71800  0.50900  0.81000  Biso   1.000  F
  F362     1.0000 0.78200  0.00900  0.69000  Biso   1.000  F
  F363     1.0000 0.28200  0.49100  0.19000  Biso   1.000  F
  F364     1.0000 0.21800  0.99100  0.31000  Biso   1.000  F
  F365     1.0000 0.94900  0.54000  0.80350  Biso   1.000  F
  F366     1.0000 0.55100  0.04000  0.69650  Biso   1.000  F
  F367     1.0000 0.05100  0.46000  0.19650  Biso   1.000  F
  F368     1.0000 0.44900  0.96000  0.30350  Biso   1.000  F
  F369     1.0000 0.78600  0.53900  0.85400  Biso   1.000  F
  F370     1.0000 0.71400  0.03900  0.64600  Biso   1.000  F
  F371     1.0000 0.21400  0.46100  0.14600  Biso   1.000  F
  F372     1.0000 0.28600  0.96100  0.35400  Biso   1.000  F
  F373     1.0000 0.83800  0.36800  0.93270  Biso   1.000  F
  F374     1.0000 0.66200  0.86800  0.56730  Biso   1.000  F
  F375     1.0000 0.16200  0.63200  0.06730  Biso   1.000  F
  F376     1.0000 0.33800  0.13200  0.43270  Biso   1.000  F
  F377     1.0000 0.98300  0.29560  0.91590  Biso   1.000  F
  F378     1.0000 0.51700  0.79560  0.58410  Biso   1.000  F
  F379     1.0000 0.01700  0.70440  0.08410  Biso   1.000  F
  F380     1.0000 0.48300  0.20440  0.41590  Biso   1.000  F
  F381     1.0000 0.06300  0.37780  0.93650  Biso   1.000  F
  F382     1.0000 0.43700  0.87780  0.56350  Biso   1.000  F
  F383     1.0000 0.93700  0.62220  0.06350  Biso   1.000  F
  F384     1.0000 0.56300  0.12220  0.43650  Biso   1.000  F
  F385     1.0000 0.88900  0.38450  0.94260  Biso   1.000  F
  F386     1.0000 0.61100  0.88450  0.55740  Biso   1.000  F
  F387     1.0000 0.11100  0.61550  0.05740  Biso   1.000  F
  F388     1.0000 0.38900  0.11550  0.44260  Biso   1.000  F
  F389     1.0000 0.92900  0.30570  0.92150  Biso   1.000  F
  F390     1.0000 0.57100  0.80570  0.57850  Biso   1.000  F
  F391     1.0000 0.07100  0.69430  0.07850  Biso   1.000  F
  F392     1.0000 0.42900  0.19430  0.42150  Biso   1.000  F
  F393     1.0000 0.10600  0.35660  0.93050  Biso   1.000  F
  F394     1.0000 0.39400  0.85660  0.56950  Biso   1.000  F
  F395     1.0000 0.89400  0.64340  0.06950  Biso   1.000  F
  F396     1.0000 0.60600  0.14340  0.43050  Biso   1.000  F
  F397     1.0000 0.20300  0.05980  0.55660  Biso   1.000  F
  F398     1.0000 0.29700  0.55980  0.94340  Biso   1.000  F
  F399     1.0000 0.79700  0.94020  0.44340  Biso   1.000  F
  F400     1.0000 0.70300  0.44020  0.05660  Biso   1.000  F
  F401     1.0000 0.40800  0.01850  0.57380  Biso   1.000  F
  F402     1.0000 0.09200  0.51850  0.92620  Biso   1.000  F
  F403     1.0000 0.59200  0.98150  0.42620  Biso   1.000  F
  F404     1.0000 0.90800  0.48150  0.07380  Biso   1.000  F
  F405     1.0000 0.21100  0.97030  0.56460  Biso   1.000  F
  F406     1.0000 0.28900  0.47030  0.93540  Biso   1.000  F
  F407     1.0000 0.78900  0.02970  0.43540  Biso   1.000  F
  F408     1.0000 0.71100  0.52970  0.06460  Biso   1.000  F
  F409     1.0000 0.13500  0.01600  0.55700  Biso   1.000  F
  F410     1.0000 0.36500  0.51600  0.94300  Biso   1.000  F
  F411     1.0000 0.86500  0.98400  0.44300  Biso   1.000  F
  F412     1.0000 0.63500  0.48400  0.05700  Biso   1.000  F
  F413     1.0000 0.35100  0.06500  0.56400  Biso   1.000  F
  F414     1.0000 0.14900  0.56500  0.93600  Biso   1.000  F
  F415     1.0000 0.64900  0.93500  0.43600  Biso   1.000  F
  F416     1.0000 0.85100  0.43500  0.06400  Biso   1.000  F
  F417     1.0000 0.30900  0.97200  0.56740  Biso   1.000  F
  F418     1.0000 0.19100  0.47200  0.93260  Biso   1.000  F
  F419     1.0000 0.69100  0.02800  0.43260  Biso   1.000  F
  F420     1.0000 0.80900  0.52800  0.06740  Biso   1.000  F
  F421     1.0000 0.32100  0.48380  0.54590  Biso   1.000  F
  F422     1.0000 0.17900  0.98380  0.95410  Biso   1.000  F
  F423     1.0000 0.67900  0.51620  0.45410  Biso   1.000  F
  F424     1.0000 0.82100  0.01620  0.04590  Biso   1.000  F
  F425     1.0000 0.52100  0.44230  0.54360  Biso   1.000  F
  F426     1.0000 0.97900  0.94230  0.95640  Biso   1.000  F
  F427     1.0000 0.47900  0.55770  0.45640  Biso   1.000  F
  F428     1.0000 0.02100  0.05770  0.04360  Biso   1.000  F
  F429     1.0000 0.48100  0.53520  0.54860  Biso   1.000  F
  F430     1.0000 0.01900  0.03520  0.95140  Biso   1.000  F
  F431     1.0000 0.51900  0.46480  0.45140  Biso   1.000  F
  F432     1.0000 0.98100  0.96480  0.04860  Biso   1.000  F
  F433     1.0000 0.66400  0.59000  0.67030  Biso   1.000  F
  F434     1.0000 0.83600  0.09000  0.82970  Biso   1.000  F
  F435     1.0000 0.33600  0.41000  0.32970  Biso   1.000  F
  F436     1.0000 0.16400  0.91000  0.17030  Biso   1.000  F
  F437     1.0000 0.62200  0.54500  0.72220  Biso   1.000  F
  F438     1.0000 0.87800  0.04500  0.77780  Biso   1.000  F
  F439     1.0000 0.37800  0.45500  0.27780  Biso   1.000  F
  F440     1.0000 0.12200  0.95500  0.22220  Biso   1.000  F
  F441     1.0000 0.43100  0.59400  0.70230  Biso   1.000  F
  F442     1.0000 0.06900  0.09400  0.79770  Biso   1.000  F
  F443     1.0000 0.56900  0.40600  0.29770  Biso   1.000  F
  F444     1.0000 0.93100  0.90600  0.20230  Biso   1.000  F
  F445     1.0000 0.67700  0.58100  0.69010  Biso   1.000  F
  F446     1.0000 0.82300  0.08100  0.80990  Biso   1.000  F
  F447     1.0000 0.32300  0.41900  0.30990  Biso   1.000  F
  F448     1.0000 0.17700  0.91900  0.19010  Biso   1.000  F
  F449     1.0000 0.50400  0.56430  0.72120  Biso   1.000  F
  F450     1.0000 0.99600  0.06430  0.77880  Biso   1.000  F
  F451     1.0000 0.49600  0.43570  0.27880  Biso   1.000  F
  F452     1.0000 0.00400  0.93570  0.22120  Biso   1.000  F
  F453     1.0000 0.49300  0.61500  0.67170  Biso   1.000  F
  F454     1.0000 0.00700  0.11500  0.82830  Biso   1.000  F
  F455     1.0000 0.50700  0.38500  0.32830  Biso   1.000  F
  F456     1.0000 0.99300  0.88500  0.17170  Biso   1.000  F
