data_image0
_cell_length_a       26.407
_cell_length_b       26.407
_cell_length_c       26.407
_cell_angle_alpha    90
_cell_angle_beta     90
_cell_angle_gamma    90

_symmetry_space_group_name_H-M    "P 1"
_symmetry_int_tables_number       1

loop_
  _symmetry_equiv_pos_as_xyz
  'x, y, z'

loop_
  _atom_site_label
  _atom_site_occupancy
  _atom_site_fract_x
  _atom_site_fract_y
  _atom_site_fract_z
  _atom_site_thermal_displace_type
  _atom_site_B_iso_or_equiv
  _atom_site_type_symbol
  Cu1      1.0000 0.42337  0.98434  0.00135  Biso   1.000  Cu
  Cu2      1.0000 0.07663  0.01566  0.50135  Biso   1.000  Cu
  Cu3      1.0000 0.57663  0.48434  0.49865  Biso   1.000  Cu
  Cu4      1.0000 0.92337  0.51566  0.99865  Biso   1.000  Cu
  Cu5      1.0000 0.00135  0.42337  0.98434  Biso   1.000  Cu
  Cu6      1.0000 0.50135  0.07663  0.01566  Biso   1.000  Cu
  Cu7      1.0000 0.49865  0.57663  0.48434  Biso   1.000  Cu
  Cu8      1.0000 0.99865  0.92337  0.51566  Biso   1.000  Cu
  Cu9      1.0000 0.98434  0.00135  0.42337  Biso   1.000  Cu
  Cu10     1.0000 0.01566  0.50135  0.07663  Biso   1.000  Cu
  Cu11     1.0000 0.48434  0.49865  0.57663  Biso   1.000  Cu
  Cu12     1.0000 0.51566  0.99865  0.92337  Biso   1.000  Cu
  Cu13     1.0000 0.23434  0.67337  0.25135  Biso   1.000  Cu
  Cu14     1.0000 0.26566  0.32663  0.75135  Biso   1.000  Cu
  Cu15     1.0000 0.73434  0.82663  0.74865  Biso   1.000  Cu
  Cu16     1.0000 0.76566  0.17337  0.24865  Biso   1.000  Cu
  Cu17     1.0000 0.67337  0.25135  0.23434  Biso   1.000  Cu
  Cu18     1.0000 0.32663  0.75135  0.26566  Biso   1.000  Cu
  Cu19     1.0000 0.82663  0.74865  0.73434  Biso   1.000  Cu
  Cu20     1.0000 0.17337  0.24865  0.76566  Biso   1.000  Cu
  Cu21     1.0000 0.25135  0.23434  0.67337  Biso   1.000  Cu
  Cu22     1.0000 0.75135  0.26566  0.32663  Biso   1.000  Cu
  Cu23     1.0000 0.74865  0.73434  0.82663  Biso   1.000  Cu
  Cu24     1.0000 0.24865  0.76566  0.17337  Biso   1.000  Cu
  Cu25     1.0000 0.92337  0.48434  0.50135  Biso   1.000  Cu
  Cu26     1.0000 0.57663  0.51566  0.00135  Biso   1.000  Cu
  Cu27     1.0000 0.07663  0.98434  0.99865  Biso   1.000  Cu
  Cu28     1.0000 0.42337  0.01566  0.49865  Biso   1.000  Cu
  Cu29     1.0000 0.50135  0.92337  0.48434  Biso   1.000  Cu
  Cu30     1.0000 0.00135  0.57663  0.51566  Biso   1.000  Cu
  Cu31     1.0000 0.99865  0.07663  0.98434  Biso   1.000  Cu
  Cu32     1.0000 0.49865  0.42337  0.01566  Biso   1.000  Cu
  Cu33     1.0000 0.48434  0.50135  0.92337  Biso   1.000  Cu
  Cu34     1.0000 0.51566  0.00135  0.57663  Biso   1.000  Cu
  Cu35     1.0000 0.98434  0.99865  0.07663  Biso   1.000  Cu
  Cu36     1.0000 0.01566  0.49865  0.42337  Biso   1.000  Cu
  Cu37     1.0000 0.73434  0.17337  0.75135  Biso   1.000  Cu
  Cu38     1.0000 0.76566  0.82663  0.25135  Biso   1.000  Cu
  Cu39     1.0000 0.23434  0.32663  0.24865  Biso   1.000  Cu
  Cu40     1.0000 0.26566  0.67337  0.74865  Biso   1.000  Cu
  Cu41     1.0000 0.17337  0.75135  0.73434  Biso   1.000  Cu
  Cu42     1.0000 0.82663  0.25135  0.76566  Biso   1.000  Cu
  Cu43     1.0000 0.32663  0.24865  0.23434  Biso   1.000  Cu
  Cu44     1.0000 0.67337  0.74865  0.26566  Biso   1.000  Cu
  Cu45     1.0000 0.75135  0.73434  0.17337  Biso   1.000  Cu
  Cu46     1.0000 0.25135  0.76566  0.82663  Biso   1.000  Cu
  Cu47     1.0000 0.24865  0.23434  0.32663  Biso   1.000  Cu
  Cu48     1.0000 0.74865  0.26566  0.67337  Biso   1.000  Cu
  Cu49     1.0000 0.23233  0.14869  0.23430  Biso   1.000  Cu
  Cu50     1.0000 0.26767  0.85131  0.73430  Biso   1.000  Cu
  Cu51     1.0000 0.76767  0.64869  0.26570  Biso   1.000  Cu
  Cu52     1.0000 0.73233  0.35131  0.76570  Biso   1.000  Cu
  Cu53     1.0000 0.23430  0.23233  0.14869  Biso   1.000  Cu
  Cu54     1.0000 0.73430  0.26767  0.85131  Biso   1.000  Cu
  Cu55     1.0000 0.26570  0.76767  0.64869  Biso   1.000  Cu
  Cu56     1.0000 0.76570  0.73233  0.35131  Biso   1.000  Cu
  Cu57     1.0000 0.14869  0.23430  0.23233  Biso   1.000  Cu
  Cu58     1.0000 0.85131  0.73430  0.26767  Biso   1.000  Cu
  Cu59     1.0000 0.64869  0.26570  0.76767  Biso   1.000  Cu
  Cu60     1.0000 0.35131  0.76570  0.73233  Biso   1.000  Cu
  Cu61     1.0000 0.39869  0.48233  0.48430  Biso   1.000  Cu
  Cu62     1.0000 0.10131  0.51767  0.98430  Biso   1.000  Cu
  Cu63     1.0000 0.89869  0.01767  0.51570  Biso   1.000  Cu
  Cu64     1.0000 0.60131  0.98233  0.01570  Biso   1.000  Cu
  Cu65     1.0000 0.48233  0.48430  0.39869  Biso   1.000  Cu
  Cu66     1.0000 0.51767  0.98430  0.10131  Biso   1.000  Cu
  Cu67     1.0000 0.01767  0.51570  0.89869  Biso   1.000  Cu
  Cu68     1.0000 0.98233  0.01570  0.60131  Biso   1.000  Cu
  Cu69     1.0000 0.48430  0.39869  0.48233  Biso   1.000  Cu
  Cu70     1.0000 0.98430  0.10131  0.51767  Biso   1.000  Cu
  Cu71     1.0000 0.51570  0.89869  0.01767  Biso   1.000  Cu
  Cu72     1.0000 0.01570  0.60131  0.98233  Biso   1.000  Cu
  Cu73     1.0000 0.73233  0.64869  0.73430  Biso   1.000  Cu
  Cu74     1.0000 0.76767  0.35131  0.23430  Biso   1.000  Cu
  Cu75     1.0000 0.26767  0.14869  0.76570  Biso   1.000  Cu
  Cu76     1.0000 0.23233  0.85131  0.26570  Biso   1.000  Cu
  Cu77     1.0000 0.73430  0.73233  0.64869  Biso   1.000  Cu
  Cu78     1.0000 0.23430  0.76767  0.35131  Biso   1.000  Cu
  Cu79     1.0000 0.76570  0.26767  0.14869  Biso   1.000  Cu
  Cu80     1.0000 0.26570  0.23233  0.85131  Biso   1.000  Cu
  Cu81     1.0000 0.64869  0.73430  0.73233  Biso   1.000  Cu
  Cu82     1.0000 0.35131  0.23430  0.76767  Biso   1.000  Cu
  Cu83     1.0000 0.14869  0.76570  0.26767  Biso   1.000  Cu
  Cu84     1.0000 0.85131  0.26570  0.23233  Biso   1.000  Cu
  Cu85     1.0000 0.89869  0.98233  0.98430  Biso   1.000  Cu
  Cu86     1.0000 0.60131  0.01767  0.48430  Biso   1.000  Cu
  Cu87     1.0000 0.39869  0.51767  0.01570  Biso   1.000  Cu
  Cu88     1.0000 0.10131  0.48233  0.51570  Biso   1.000  Cu
  Cu89     1.0000 0.98233  0.98430  0.89869  Biso   1.000  Cu
  Cu90     1.0000 0.01767  0.48430  0.60131  Biso   1.000  Cu
  Cu91     1.0000 0.51767  0.01570  0.39869  Biso   1.000  Cu
  Cu92     1.0000 0.48233  0.51570  0.10131  Biso   1.000  Cu
  Cu93     1.0000 0.98430  0.89869  0.98233  Biso   1.000  Cu
  Cu94     1.0000 0.48430  0.60131  0.01767  Biso   1.000  Cu
  Cu95     1.0000 0.01570  0.39869  0.51767  Biso   1.000  Cu
  Cu96     1.0000 0.51570  0.10131  0.48233  Biso   1.000  Cu
  N1       1.0000 0.41090  0.03200  0.05170  Biso   1.000  N
  N2       1.0000 0.08910  0.96800  0.55170  Biso   1.000  N
  N3       1.0000 0.58910  0.53200  0.44830  Biso   1.000  N
  N4       1.0000 0.91090  0.46800  0.94830  Biso   1.000  N
  N5       1.0000 0.05170  0.41090  0.03200  Biso   1.000  N
  N6       1.0000 0.55170  0.08910  0.96800  Biso   1.000  N
  N7       1.0000 0.44830  0.58910  0.53200  Biso   1.000  N
  N8       1.0000 0.94830  0.91090  0.46800  Biso   1.000  N
  N9       1.0000 0.03200  0.05170  0.41090  Biso   1.000  N
  N10      1.0000 0.96800  0.55170  0.08910  Biso   1.000  N
  N11      1.0000 0.53200  0.44830  0.58910  Biso   1.000  N
  N12      1.0000 0.46800  0.94830  0.91090  Biso   1.000  N
  N13      1.0000 0.28200  0.66090  0.30170  Biso   1.000  N
  N14      1.0000 0.21800  0.33910  0.80170  Biso   1.000  N
  N15      1.0000 0.78200  0.83910  0.69830  Biso   1.000  N
  N16      1.0000 0.71800  0.16090  0.19830  Biso   1.000  N
  N17      1.0000 0.66090  0.30170  0.28200  Biso   1.000  N
  N18      1.0000 0.33910  0.80170  0.21800  Biso   1.000  N
  N19      1.0000 0.83910  0.69830  0.78200  Biso   1.000  N
  N20      1.0000 0.16090  0.19830  0.71800  Biso   1.000  N
  N21      1.0000 0.30170  0.28200  0.66090  Biso   1.000  N
  N22      1.0000 0.80170  0.21800  0.33910  Biso   1.000  N
  N23      1.0000 0.69830  0.78200  0.83910  Biso   1.000  N
  N24      1.0000 0.19830  0.71800  0.16090  Biso   1.000  N
  N25      1.0000 0.91090  0.53200  0.55170  Biso   1.000  N
  N26      1.0000 0.58910  0.46800  0.05170  Biso   1.000  N
  N27      1.0000 0.08910  0.03200  0.94830  Biso   1.000  N
  N28      1.0000 0.41090  0.96800  0.44830  Biso   1.000  N
  N29      1.0000 0.55170  0.91090  0.53200  Biso   1.000  N
  N30      1.0000 0.05170  0.58910  0.46800  Biso   1.000  N
  N31      1.0000 0.94830  0.08910  0.03200  Biso   1.000  N
  N32      1.0000 0.44830  0.41090  0.96800  Biso   1.000  N
  N33      1.0000 0.53200  0.55170  0.91090  Biso   1.000  N
  N34      1.0000 0.46800  0.05170  0.58910  Biso   1.000  N
  N35      1.0000 0.03200  0.94830  0.08910  Biso   1.000  N
  N36      1.0000 0.96800  0.44830  0.41090  Biso   1.000  N
  N37      1.0000 0.78200  0.16090  0.80170  Biso   1.000  N
  N38      1.0000 0.71800  0.83910  0.30170  Biso   1.000  N
  N39      1.0000 0.28200  0.33910  0.19830  Biso   1.000  N
  N40      1.0000 0.21800  0.66090  0.69830  Biso   1.000  N
  N41      1.0000 0.16090  0.80170  0.78200  Biso   1.000  N
  N42      1.0000 0.83910  0.30170  0.71800  Biso   1.000  N
  N43      1.0000 0.33910  0.19830  0.28200  Biso   1.000  N
  N44      1.0000 0.66090  0.69830  0.21800  Biso   1.000  N
  N45      1.0000 0.80170  0.78200  0.16090  Biso   1.000  N
  N46      1.0000 0.30170  0.71800  0.83910  Biso   1.000  N
  N47      1.0000 0.19830  0.28200  0.33910  Biso   1.000  N
  N48      1.0000 0.69830  0.21800  0.66090  Biso   1.000  N
  N49      1.0000 0.44710  0.06910  0.05970  Biso   1.000  N
  N50      1.0000 0.05290  0.93090  0.55970  Biso   1.000  N
  N51      1.0000 0.55290  0.56910  0.44030  Biso   1.000  N
  N52      1.0000 0.94710  0.43090  0.94030  Biso   1.000  N
  N53      1.0000 0.05970  0.44710  0.06910  Biso   1.000  N
  N54      1.0000 0.55970  0.05290  0.93090  Biso   1.000  N
  N55      1.0000 0.44030  0.55290  0.56910  Biso   1.000  N
  N56      1.0000 0.94030  0.94710  0.43090  Biso   1.000  N
  N57      1.0000 0.06910  0.05970  0.44710  Biso   1.000  N
  N58      1.0000 0.93090  0.55970  0.05290  Biso   1.000  N
  N59      1.0000 0.56910  0.44030  0.55290  Biso   1.000  N
  N60      1.0000 0.43090  0.94030  0.94710  Biso   1.000  N
  N61      1.0000 0.31910  0.69710  0.30970  Biso   1.000  N
  N62      1.0000 0.18090  0.30290  0.80970  Biso   1.000  N
  N63      1.0000 0.81910  0.80290  0.69030  Biso   1.000  N
  N64      1.0000 0.68090  0.19710  0.19030  Biso   1.000  N
  N65      1.0000 0.69710  0.30970  0.31910  Biso   1.000  N
  N66      1.0000 0.30290  0.80970  0.18090  Biso   1.000  N
  N67      1.0000 0.80290  0.69030  0.81910  Biso   1.000  N
  N68      1.0000 0.19710  0.19030  0.68090  Biso   1.000  N
  N69      1.0000 0.30970  0.31910  0.69710  Biso   1.000  N
  N70      1.0000 0.80970  0.18090  0.30290  Biso   1.000  N
  N71      1.0000 0.69030  0.81910  0.80290  Biso   1.000  N
  N72      1.0000 0.19030  0.68090  0.19710  Biso   1.000  N
  N73      1.0000 0.94710  0.56910  0.55970  Biso   1.000  N
  N74      1.0000 0.55290  0.43090  0.05970  Biso   1.000  N
  N75      1.0000 0.05290  0.06910  0.94030  Biso   1.000  N
  N76      1.0000 0.44710  0.93090  0.44030  Biso   1.000  N
  N77      1.0000 0.55970  0.94710  0.56910  Biso   1.000  N
  N78      1.0000 0.05970  0.55290  0.43090  Biso   1.000  N
  N79      1.0000 0.94030  0.05290  0.06910  Biso   1.000  N
  N80      1.0000 0.44030  0.44710  0.93090  Biso   1.000  N
  N81      1.0000 0.56910  0.55970  0.94710  Biso   1.000  N
  N82      1.0000 0.43090  0.05970  0.55290  Biso   1.000  N
  N83      1.0000 0.06910  0.94030  0.05290  Biso   1.000  N
  N84      1.0000 0.93090  0.44030  0.44710  Biso   1.000  N
  N85      1.0000 0.81910  0.19710  0.80970  Biso   1.000  N
  N86      1.0000 0.68090  0.80290  0.30970  Biso   1.000  N
  N87      1.0000 0.31910  0.30290  0.19030  Biso   1.000  N
  N88      1.0000 0.18090  0.69710  0.69030  Biso   1.000  N
  N89      1.0000 0.19710  0.80970  0.81910  Biso   1.000  N
  N90      1.0000 0.80290  0.30970  0.68090  Biso   1.000  N
  N91      1.0000 0.30290  0.19030  0.31910  Biso   1.000  N
  N92      1.0000 0.69710  0.69030  0.18090  Biso   1.000  N
  N93      1.0000 0.80970  0.81910  0.19710  Biso   1.000  N
  N94      1.0000 0.30970  0.68090  0.80290  Biso   1.000  N
  N95      1.0000 0.19030  0.31910  0.30290  Biso   1.000  N
  N96      1.0000 0.69030  0.18090  0.69710  Biso   1.000  N
  C1       1.0000 0.32430  0.01250  0.07140  Biso   1.000  C
  C2       1.0000 0.17570  0.98750  0.57140  Biso   1.000  C
  C3       1.0000 0.67570  0.51250  0.42860  Biso   1.000  C
  C4       1.0000 0.82430  0.48750  0.92860  Biso   1.000  C
  C5       1.0000 0.07140  0.32430  0.01250  Biso   1.000  C
  C6       1.0000 0.57140  0.17570  0.98750  Biso   1.000  C
  C7       1.0000 0.42860  0.67570  0.51250  Biso   1.000  C
  C8       1.0000 0.92860  0.82430  0.48750  Biso   1.000  C
  C9       1.0000 0.01250  0.07140  0.32430  Biso   1.000  C
  C10      1.0000 0.98750  0.57140  0.17570  Biso   1.000  C
  C11      1.0000 0.51250  0.42860  0.67570  Biso   1.000  C
  C12      1.0000 0.48750  0.92860  0.82430  Biso   1.000  C
  C13      1.0000 0.26250  0.57430  0.32140  Biso   1.000  C
  C14      1.0000 0.23750  0.42570  0.82140  Biso   1.000  C
  C15      1.0000 0.76250  0.92570  0.67860  Biso   1.000  C
  C16      1.0000 0.73750  0.07430  0.17860  Biso   1.000  C
  C17      1.0000 0.57430  0.32140  0.26250  Biso   1.000  C
  C18      1.0000 0.42570  0.82140  0.23750  Biso   1.000  C
  C19      1.0000 0.92570  0.67860  0.76250  Biso   1.000  C
  C20      1.0000 0.07430  0.17860  0.73750  Biso   1.000  C
  C21      1.0000 0.32140  0.26250  0.57430  Biso   1.000  C
  C22      1.0000 0.82140  0.23750  0.42570  Biso   1.000  C
  C23      1.0000 0.67860  0.76250  0.92570  Biso   1.000  C
  C24      1.0000 0.17860  0.73750  0.07430  Biso   1.000  C
  C25      1.0000 0.82430  0.51250  0.57140  Biso   1.000  C
  C26      1.0000 0.67570  0.48750  0.07140  Biso   1.000  C
  C27      1.0000 0.17570  0.01250  0.92860  Biso   1.000  C
  C28      1.0000 0.32430  0.98750  0.42860  Biso   1.000  C
  C29      1.0000 0.57140  0.82430  0.51250  Biso   1.000  C
  C30      1.0000 0.07140  0.67570  0.48750  Biso   1.000  C
  C31      1.0000 0.92860  0.17570  0.01250  Biso   1.000  C
  C32      1.0000 0.42860  0.32430  0.98750  Biso   1.000  C
  C33      1.0000 0.51250  0.57140  0.82430  Biso   1.000  C
  C34      1.0000 0.48750  0.07140  0.67570  Biso   1.000  C
  C35      1.0000 0.01250  0.92860  0.17570  Biso   1.000  C
  C36      1.0000 0.98750  0.42860  0.32430  Biso   1.000  C
  C37      1.0000 0.76250  0.07430  0.82140  Biso   1.000  C
  C38      1.0000 0.73750  0.92570  0.32140  Biso   1.000  C
  C39      1.0000 0.26250  0.42570  0.17860  Biso   1.000  C
  C40      1.0000 0.23750  0.57430  0.67860  Biso   1.000  C
  C41      1.0000 0.07430  0.82140  0.76250  Biso   1.000  C
  C42      1.0000 0.92570  0.32140  0.73750  Biso   1.000  C
  C43      1.0000 0.42570  0.17860  0.26250  Biso   1.000  C
  C44      1.0000 0.57430  0.67860  0.23750  Biso   1.000  C
  C45      1.0000 0.82140  0.76250  0.07430  Biso   1.000  C
  C46      1.0000 0.32140  0.73750  0.92570  Biso   1.000  C
  C47      1.0000 0.17860  0.26250  0.42570  Biso   1.000  C
  C48      1.0000 0.67860  0.23750  0.57430  Biso   1.000  C
  H1       1.0000 0.31790  0.00500  0.03640  Biso   1.000  H
  H2       1.0000 0.18210  0.99500  0.53640  Biso   1.000  H
  H3       1.0000 0.68210  0.50500  0.46360  Biso   1.000  H
  H4       1.0000 0.81790  0.49500  0.96360  Biso   1.000  H
  H5       1.0000 0.03640  0.31790  0.00500  Biso   1.000  H
  H6       1.0000 0.53640  0.18210  0.99500  Biso   1.000  H
  H7       1.0000 0.46360  0.68210  0.50500  Biso   1.000  H
  H8       1.0000 0.96360  0.81790  0.49500  Biso   1.000  H
  H9       1.0000 0.00500  0.03640  0.31790  Biso   1.000  H
  H10      1.0000 0.99500  0.53640  0.18210  Biso   1.000  H
  H11      1.0000 0.50500  0.46360  0.68210  Biso   1.000  H
  H12      1.0000 0.49500  0.96360  0.81790  Biso   1.000  H
  H13      1.0000 0.25500  0.56790  0.28640  Biso   1.000  H
  H14      1.0000 0.24500  0.43210  0.78640  Biso   1.000  H
  H15      1.0000 0.75500  0.93210  0.71360  Biso   1.000  H
  H16      1.0000 0.74500  0.06790  0.21360  Biso   1.000  H
  H17      1.0000 0.56790  0.28640  0.25500  Biso   1.000  H
  H18      1.0000 0.43210  0.78640  0.24500  Biso   1.000  H
  H19      1.0000 0.93210  0.71360  0.75500  Biso   1.000  H
  H20      1.0000 0.06790  0.21360  0.74500  Biso   1.000  H
  H21      1.0000 0.28640  0.25500  0.56790  Biso   1.000  H
  H22      1.0000 0.78640  0.24500  0.43210  Biso   1.000  H
  H23      1.0000 0.71360  0.75500  0.93210  Biso   1.000  H
  H24      1.0000 0.21360  0.74500  0.06790  Biso   1.000  H
  H25      1.0000 0.81790  0.50500  0.53640  Biso   1.000  H
  H26      1.0000 0.68210  0.49500  0.03640  Biso   1.000  H
  H27      1.0000 0.18210  0.00500  0.96360  Biso   1.000  H
  H28      1.0000 0.31790  0.99500  0.46360  Biso   1.000  H
  H29      1.0000 0.53640  0.81790  0.50500  Biso   1.000  H
  H30      1.0000 0.03640  0.68210  0.49500  Biso   1.000  H
  H31      1.0000 0.96360  0.18210  0.00500  Biso   1.000  H
  H32      1.0000 0.46360  0.31790  0.99500  Biso   1.000  H
  H33      1.0000 0.50500  0.53640  0.81790  Biso   1.000  H
  H34      1.0000 0.49500  0.03640  0.68210  Biso   1.000  H
  H35      1.0000 0.00500  0.96360  0.18210  Biso   1.000  H
  H36      1.0000 0.99500  0.46360  0.31790  Biso   1.000  H
  H37      1.0000 0.75500  0.06790  0.78640  Biso   1.000  H
  H38      1.0000 0.74500  0.93210  0.28640  Biso   1.000  H
  H39      1.0000 0.25500  0.43210  0.21360  Biso   1.000  H
  H40      1.0000 0.24500  0.56790  0.71360  Biso   1.000  H
  H41      1.0000 0.06790  0.78640  0.75500  Biso   1.000  H
  H42      1.0000 0.93210  0.28640  0.74500  Biso   1.000  H
  H43      1.0000 0.43210  0.21360  0.25500  Biso   1.000  H
  H44      1.0000 0.56790  0.71360  0.24500  Biso   1.000  H
  H45      1.0000 0.78640  0.75500  0.06790  Biso   1.000  H
  H46      1.0000 0.28640  0.74500  0.93210  Biso   1.000  H
  H47      1.0000 0.21360  0.25500  0.43210  Biso   1.000  H
  H48      1.0000 0.71360  0.24500  0.56790  Biso   1.000  H
  H49      1.0000 0.29570  0.03000  0.08550  Biso   1.000  H
  H50      1.0000 0.20430  0.97000  0.58550  Biso   1.000  H
  H51      1.0000 0.70430  0.53000  0.41450  Biso   1.000  H
  H52      1.0000 0.79570  0.47000  0.91450  Biso   1.000  H
  H53      1.0000 0.08550  0.29570  0.03000  Biso   1.000  H
  H54      1.0000 0.58550  0.20430  0.97000  Biso   1.000  H
  H55      1.0000 0.41450  0.70430  0.53000  Biso   1.000  H
  H56      1.0000 0.91450  0.79570  0.47000  Biso   1.000  H
  H57      1.0000 0.03000  0.08550  0.29570  Biso   1.000  H
  H58      1.0000 0.97000  0.58550  0.20430  Biso   1.000  H
  H59      1.0000 0.53000  0.41450  0.70430  Biso   1.000  H
  H60      1.0000 0.47000  0.91450  0.79570  Biso   1.000  H
  H61      1.0000 0.28000  0.54570  0.33550  Biso   1.000  H
  H62      1.0000 0.22000  0.45430  0.83550  Biso   1.000  H
  H63      1.0000 0.78000  0.95430  0.66450  Biso   1.000  H
  H64      1.0000 0.72000  0.04570  0.16450  Biso   1.000  H
  H65      1.0000 0.54570  0.33550  0.28000  Biso   1.000  H
  H66      1.0000 0.45430  0.83550  0.22000  Biso   1.000  H
  H67      1.0000 0.95430  0.66450  0.78000  Biso   1.000  H
  H68      1.0000 0.04570  0.16450  0.72000  Biso   1.000  H
  H69      1.0000 0.33550  0.28000  0.54570  Biso   1.000  H
  H70      1.0000 0.83550  0.22000  0.45430  Biso   1.000  H
  H71      1.0000 0.66450  0.78000  0.95430  Biso   1.000  H
  H72      1.0000 0.16450  0.72000  0.04570  Biso   1.000  H
  H73      1.0000 0.79570  0.53000  0.58550  Biso   1.000  H
  H74      1.0000 0.70430  0.47000  0.08550  Biso   1.000  H
  H75      1.0000 0.20430  0.03000  0.91450  Biso   1.000  H
  H76      1.0000 0.29570  0.97000  0.41450  Biso   1.000  H
  H77      1.0000 0.58550  0.79570  0.53000  Biso   1.000  H
  H78      1.0000 0.08550  0.70430  0.47000  Biso   1.000  H
  H79      1.0000 0.91450  0.20430  0.03000  Biso   1.000  H
  H80      1.0000 0.41450  0.29570  0.97000  Biso   1.000  H
  H81      1.0000 0.53000  0.58550  0.79570  Biso   1.000  H
  H82      1.0000 0.47000  0.08550  0.70430  Biso   1.000  H
  H83      1.0000 0.03000  0.91450  0.20430  Biso   1.000  H
  H84      1.0000 0.97000  0.41450  0.29570  Biso   1.000  H
  H85      1.0000 0.78000  0.04570  0.83550  Biso   1.000  H
  H86      1.0000 0.72000  0.95430  0.33550  Biso   1.000  H
  H87      1.0000 0.28000  0.45430  0.16450  Biso   1.000  H
  H88      1.0000 0.22000  0.54570  0.66450  Biso   1.000  H
  H89      1.0000 0.04570  0.83550  0.78000  Biso   1.000  H
  H90      1.0000 0.95430  0.33550  0.72000  Biso   1.000  H
  H91      1.0000 0.45430  0.16450  0.28000  Biso   1.000  H
  H92      1.0000 0.54570  0.66450  0.22000  Biso   1.000  H
  H93      1.0000 0.83550  0.78000  0.04570  Biso   1.000  H
  H94      1.0000 0.33550  0.72000  0.95430  Biso   1.000  H
  H95      1.0000 0.16450  0.28000  0.45430  Biso   1.000  H
  H96      1.0000 0.66450  0.22000  0.54570  Biso   1.000  H
  H97      1.0000 0.32970  0.98150  0.08960  Biso   1.000  H
  H98      1.0000 0.17030  0.01850  0.58960  Biso   1.000  H
  H99      1.0000 0.67030  0.48150  0.41040  Biso   1.000  H
  H100     1.0000 0.82970  0.51850  0.91040  Biso   1.000  H
  H101     1.0000 0.08960  0.32970  0.98150  Biso   1.000  H
  H102     1.0000 0.58960  0.17030  0.01850  Biso   1.000  H
  H103     1.0000 0.41040  0.67030  0.48150  Biso   1.000  H
  H104     1.0000 0.91040  0.82970  0.51850  Biso   1.000  H
  H105     1.0000 0.98150  0.08960  0.32970  Biso   1.000  H
  H106     1.0000 0.01850  0.58960  0.17030  Biso   1.000  H
  H107     1.0000 0.48150  0.41040  0.67030  Biso   1.000  H
  H108     1.0000 0.51850  0.91040  0.82970  Biso   1.000  H
  H109     1.0000 0.23150  0.57970  0.33960  Biso   1.000  H
  H110     1.0000 0.26850  0.42030  0.83960  Biso   1.000  H
  H111     1.0000 0.73150  0.92030  0.66040  Biso   1.000  H
  H112     1.0000 0.76850  0.07970  0.16040  Biso   1.000  H
  H113     1.0000 0.57970  0.33960  0.23150  Biso   1.000  H
  H114     1.0000 0.42030  0.83960  0.26850  Biso   1.000  H
  H115     1.0000 0.92030  0.66040  0.73150  Biso   1.000  H
  H116     1.0000 0.07970  0.16040  0.76850  Biso   1.000  H
  H117     1.0000 0.33960  0.23150  0.57970  Biso   1.000  H
  H118     1.0000 0.83960  0.26850  0.42030  Biso   1.000  H
  H119     1.0000 0.66040  0.73150  0.92030  Biso   1.000  H
  H120     1.0000 0.16040  0.76850  0.07970  Biso   1.000  H
  H121     1.0000 0.82970  0.48150  0.58960  Biso   1.000  H
  H122     1.0000 0.67030  0.51850  0.08960  Biso   1.000  H
  H123     1.0000 0.17030  0.98150  0.91040  Biso   1.000  H
  H124     1.0000 0.32970  0.01850  0.41040  Biso   1.000  H
  H125     1.0000 0.58960  0.82970  0.48150  Biso   1.000  H
  H126     1.0000 0.08960  0.67030  0.51850  Biso   1.000  H
  H127     1.0000 0.91040  0.17030  0.98150  Biso   1.000  H
  H128     1.0000 0.41040  0.32970  0.01850  Biso   1.000  H
  H129     1.0000 0.48150  0.58960  0.82970  Biso   1.000  H
  H130     1.0000 0.51850  0.08960  0.67030  Biso   1.000  H
  H131     1.0000 0.98150  0.91040  0.17030  Biso   1.000  H
  H132     1.0000 0.01850  0.41040  0.32970  Biso   1.000  H
  H133     1.0000 0.73150  0.07970  0.83960  Biso   1.000  H
  H134     1.0000 0.76850  0.92030  0.33960  Biso   1.000  H
  H135     1.0000 0.23150  0.42030  0.16040  Biso   1.000  H
  H136     1.0000 0.26850  0.57970  0.66040  Biso   1.000  H
  H137     1.0000 0.07970  0.83960  0.73150  Biso   1.000  H
  H138     1.0000 0.92030  0.33960  0.76850  Biso   1.000  H
  H139     1.0000 0.42030  0.16040  0.23150  Biso   1.000  H
  H140     1.0000 0.57970  0.66040  0.26850  Biso   1.000  H
  H141     1.0000 0.83960  0.73150  0.07970  Biso   1.000  H
  H142     1.0000 0.33960  0.76850  0.92030  Biso   1.000  H
  H143     1.0000 0.16040  0.23150  0.42030  Biso   1.000  H
  H144     1.0000 0.66040  0.26850  0.57970  Biso   1.000  H
  C49      1.0000 0.37020  0.04490  0.07550  Biso   1.000  C
  C50      1.0000 0.12980  0.95510  0.57550  Biso   1.000  C
  C51      1.0000 0.62980  0.54490  0.42450  Biso   1.000  C
  C52      1.0000 0.87020  0.45510  0.92450  Biso   1.000  C
  C53      1.0000 0.07550  0.37020  0.04490  Biso   1.000  C
  C54      1.0000 0.57550  0.12980  0.95510  Biso   1.000  C
  C55      1.0000 0.42450  0.62980  0.54490  Biso   1.000  C
  C56      1.0000 0.92450  0.87020  0.45510  Biso   1.000  C
  C57      1.0000 0.04490  0.07550  0.37020  Biso   1.000  C
  C58      1.0000 0.95510  0.57550  0.12980  Biso   1.000  C
  C59      1.0000 0.54490  0.42450  0.62980  Biso   1.000  C
  C60      1.0000 0.45510  0.92450  0.87020  Biso   1.000  C
  C61      1.0000 0.29490  0.62020  0.32550  Biso   1.000  C
  C62      1.0000 0.20510  0.37980  0.82550  Biso   1.000  C
  C63      1.0000 0.79490  0.87980  0.67450  Biso   1.000  C
  C64      1.0000 0.70510  0.12020  0.17450  Biso   1.000  C
  C65      1.0000 0.62020  0.32550  0.29490  Biso   1.000  C
  C66      1.0000 0.37980  0.82550  0.20510  Biso   1.000  C
  C67      1.0000 0.87980  0.67450  0.79490  Biso   1.000  C
  C68      1.0000 0.12020  0.17450  0.70510  Biso   1.000  C
  C69      1.0000 0.32550  0.29490  0.62020  Biso   1.000  C
  C70      1.0000 0.82550  0.20510  0.37980  Biso   1.000  C
  C71      1.0000 0.67450  0.79490  0.87980  Biso   1.000  C
  C72      1.0000 0.17450  0.70510  0.12020  Biso   1.000  C
  C73      1.0000 0.87020  0.54490  0.57550  Biso   1.000  C
  C74      1.0000 0.62980  0.45510  0.07550  Biso   1.000  C
  C75      1.0000 0.12980  0.04490  0.92450  Biso   1.000  C
  C76      1.0000 0.37020  0.95510  0.42450  Biso   1.000  C
  C77      1.0000 0.57550  0.87020  0.54490  Biso   1.000  C
  C78      1.0000 0.07550  0.62980  0.45510  Biso   1.000  C
  C79      1.0000 0.92450  0.12980  0.04490  Biso   1.000  C
  C80      1.0000 0.42450  0.37020  0.95510  Biso   1.000  C
  C81      1.0000 0.54490  0.57550  0.87020  Biso   1.000  C
  C82      1.0000 0.45510  0.07550  0.62980  Biso   1.000  C
  C83      1.0000 0.04490  0.92450  0.12980  Biso   1.000  C
  C84      1.0000 0.95510  0.42450  0.37020  Biso   1.000  C
  C85      1.0000 0.79490  0.12020  0.82550  Biso   1.000  C
  C86      1.0000 0.70510  0.87980  0.32550  Biso   1.000  C
  C87      1.0000 0.29490  0.37980  0.17450  Biso   1.000  C
  C88      1.0000 0.20510  0.62020  0.67450  Biso   1.000  C
  C89      1.0000 0.12020  0.82550  0.79490  Biso   1.000  C
  C90      1.0000 0.87980  0.32550  0.70510  Biso   1.000  C
  C91      1.0000 0.37980  0.17450  0.29490  Biso   1.000  C
  C92      1.0000 0.62020  0.67450  0.20510  Biso   1.000  C
  C93      1.0000 0.82550  0.79490  0.12020  Biso   1.000  C
  C94      1.0000 0.32550  0.70510  0.87980  Biso   1.000  C
  C95      1.0000 0.17450  0.29490  0.37980  Biso   1.000  C
  C96      1.0000 0.67450  0.20510  0.62020  Biso   1.000  C
  C97      1.0000 0.37440  0.09220  0.09820  Biso   1.000  C
  C98      1.0000 0.12560  0.90780  0.59820  Biso   1.000  C
  C99      1.0000 0.62560  0.59220  0.40180  Biso   1.000  C
  C100     1.0000 0.87440  0.40780  0.90180  Biso   1.000  C
  C101     1.0000 0.09820  0.37440  0.09220  Biso   1.000  C
  C102     1.0000 0.59820  0.12560  0.90780  Biso   1.000  C
  C103     1.0000 0.40180  0.62560  0.59220  Biso   1.000  C
  C104     1.0000 0.90180  0.87440  0.40780  Biso   1.000  C
  C105     1.0000 0.09220  0.09820  0.37440  Biso   1.000  C
  C106     1.0000 0.90780  0.59820  0.12560  Biso   1.000  C
  C107     1.0000 0.59220  0.40180  0.62560  Biso   1.000  C
  C108     1.0000 0.40780  0.90180  0.87440  Biso   1.000  C
  C109     1.0000 0.34220  0.62440  0.34820  Biso   1.000  C
  C110     1.0000 0.15780  0.37560  0.84820  Biso   1.000  C
  C111     1.0000 0.84220  0.87560  0.65180  Biso   1.000  C
  C112     1.0000 0.65780  0.12440  0.15180  Biso   1.000  C
  C113     1.0000 0.62440  0.34820  0.34220  Biso   1.000  C
  C114     1.0000 0.37560  0.84820  0.15780  Biso   1.000  C
  C115     1.0000 0.87560  0.65180  0.84220  Biso   1.000  C
  C116     1.0000 0.12440  0.15180  0.65780  Biso   1.000  C
  C117     1.0000 0.34820  0.34220  0.62440  Biso   1.000  C
  C118     1.0000 0.84820  0.15780  0.37560  Biso   1.000  C
  C119     1.0000 0.65180  0.84220  0.87560  Biso   1.000  C
  C120     1.0000 0.15180  0.65780  0.12440  Biso   1.000  C
  C121     1.0000 0.87440  0.59220  0.59820  Biso   1.000  C
  C122     1.0000 0.62560  0.40780  0.09820  Biso   1.000  C
  C123     1.0000 0.12560  0.09220  0.90180  Biso   1.000  C
  C124     1.0000 0.37440  0.90780  0.40180  Biso   1.000  C
  C125     1.0000 0.59820  0.87440  0.59220  Biso   1.000  C
  C126     1.0000 0.09820  0.62560  0.40780  Biso   1.000  C
  C127     1.0000 0.90180  0.12560  0.09220  Biso   1.000  C
  C128     1.0000 0.40180  0.37440  0.90780  Biso   1.000  C
  C129     1.0000 0.59220  0.59820  0.87440  Biso   1.000  C
  C130     1.0000 0.40780  0.09820  0.62560  Biso   1.000  C
  C131     1.0000 0.09220  0.90180  0.12560  Biso   1.000  C
  C132     1.0000 0.90780  0.40180  0.37440  Biso   1.000  C
  C133     1.0000 0.84220  0.12440  0.84820  Biso   1.000  C
  C134     1.0000 0.65780  0.87560  0.34820  Biso   1.000  C
  C135     1.0000 0.34220  0.37560  0.15180  Biso   1.000  C
  C136     1.0000 0.15780  0.62440  0.65180  Biso   1.000  C
  C137     1.0000 0.12440  0.84820  0.84220  Biso   1.000  C
  C138     1.0000 0.87560  0.34820  0.65780  Biso   1.000  C
  C139     1.0000 0.37560  0.15180  0.34220  Biso   1.000  C
  C140     1.0000 0.62440  0.65180  0.15780  Biso   1.000  C
  C141     1.0000 0.84820  0.84220  0.12440  Biso   1.000  C
  C142     1.0000 0.34820  0.65780  0.87560  Biso   1.000  C
  C143     1.0000 0.15180  0.34220  0.37560  Biso   1.000  C
  C144     1.0000 0.65180  0.15780  0.62440  Biso   1.000  C
  C145     1.0000 0.42660  0.10610  0.08750  Biso   1.000  C
  C146     1.0000 0.07340  0.89390  0.58750  Biso   1.000  C
  C147     1.0000 0.57340  0.60610  0.41250  Biso   1.000  C
  C148     1.0000 0.92660  0.39390  0.91250  Biso   1.000  C
  C149     1.0000 0.08750  0.42660  0.10610  Biso   1.000  C
  C150     1.0000 0.58750  0.07340  0.89390  Biso   1.000  C
  C151     1.0000 0.41250  0.57340  0.60610  Biso   1.000  C
  C152     1.0000 0.91250  0.92660  0.39390  Biso   1.000  C
  C153     1.0000 0.10610  0.08750  0.42660  Biso   1.000  C
  C154     1.0000 0.89390  0.58750  0.07340  Biso   1.000  C
  C155     1.0000 0.60610  0.41250  0.57340  Biso   1.000  C
  C156     1.0000 0.39390  0.91250  0.92660  Biso   1.000  C
  C157     1.0000 0.35610  0.67660  0.33750  Biso   1.000  C
  C158     1.0000 0.14390  0.32340  0.83750  Biso   1.000  C
  C159     1.0000 0.85610  0.82340  0.66250  Biso   1.000  C
  C160     1.0000 0.64390  0.17660  0.16250  Biso   1.000  C
  C161     1.0000 0.67660  0.33750  0.35610  Biso   1.000  C
  C162     1.0000 0.32340  0.83750  0.14390  Biso   1.000  C
  C163     1.0000 0.82340  0.66250  0.85610  Biso   1.000  C
  C164     1.0000 0.17660  0.16250  0.64390  Biso   1.000  C
  C165     1.0000 0.33750  0.35610  0.67660  Biso   1.000  C
  C166     1.0000 0.83750  0.14390  0.32340  Biso   1.000  C
  C167     1.0000 0.66250  0.85610  0.82340  Biso   1.000  C
  C168     1.0000 0.16250  0.64390  0.17660  Biso   1.000  C
  C169     1.0000 0.92660  0.60610  0.58750  Biso   1.000  C
  C170     1.0000 0.57340  0.39390  0.08750  Biso   1.000  C
  C171     1.0000 0.07340  0.10610  0.91250  Biso   1.000  C
  C172     1.0000 0.42660  0.89390  0.41250  Biso   1.000  C
  C173     1.0000 0.58750  0.92660  0.60610  Biso   1.000  C
  C174     1.0000 0.08750  0.57340  0.39390  Biso   1.000  C
  C175     1.0000 0.91250  0.07340  0.10610  Biso   1.000  C
  C176     1.0000 0.41250  0.42660  0.89390  Biso   1.000  C
  C177     1.0000 0.60610  0.58750  0.92660  Biso   1.000  C
  C178     1.0000 0.39390  0.08750  0.57340  Biso   1.000  C
  C179     1.0000 0.10610  0.91250  0.07340  Biso   1.000  C
  C180     1.0000 0.89390  0.41250  0.42660  Biso   1.000  C
  C181     1.0000 0.85610  0.17660  0.83750  Biso   1.000  C
  C182     1.0000 0.64390  0.82340  0.33750  Biso   1.000  C
  C183     1.0000 0.35610  0.32340  0.16250  Biso   1.000  C
  C184     1.0000 0.14390  0.67660  0.66250  Biso   1.000  C
  C185     1.0000 0.17660  0.83750  0.85610  Biso   1.000  C
  C186     1.0000 0.82340  0.33750  0.64390  Biso   1.000  C
  C187     1.0000 0.32340  0.16250  0.35610  Biso   1.000  C
  C188     1.0000 0.67660  0.66250  0.14390  Biso   1.000  C
  C189     1.0000 0.83750  0.85610  0.17660  Biso   1.000  C
  C190     1.0000 0.33750  0.64390  0.82340  Biso   1.000  C
  C191     1.0000 0.16250  0.35610  0.32340  Biso   1.000  C
  C192     1.0000 0.66250  0.14390  0.67660  Biso   1.000  C
  C193     1.0000 0.45650  0.15080  0.10120  Biso   1.000  C
  C194     1.0000 0.04350  0.84920  0.60120  Biso   1.000  C
  C195     1.0000 0.54350  0.65080  0.39880  Biso   1.000  C
  C196     1.0000 0.95650  0.34920  0.89880  Biso   1.000  C
  C197     1.0000 0.10120  0.45650  0.15080  Biso   1.000  C
  C198     1.0000 0.60120  0.04350  0.84920  Biso   1.000  C
  C199     1.0000 0.39880  0.54350  0.65080  Biso   1.000  C
  C200     1.0000 0.89880  0.95650  0.34920  Biso   1.000  C
  C201     1.0000 0.15080  0.10120  0.45650  Biso   1.000  C
  C202     1.0000 0.84920  0.60120  0.04350  Biso   1.000  C
  C203     1.0000 0.65080  0.39880  0.54350  Biso   1.000  C
  C204     1.0000 0.34920  0.89880  0.95650  Biso   1.000  C
  C205     1.0000 0.40080  0.70650  0.35120  Biso   1.000  C
  C206     1.0000 0.09920  0.29350  0.85120  Biso   1.000  C
  C207     1.0000 0.90080  0.79350  0.64880  Biso   1.000  C
  C208     1.0000 0.59920  0.20650  0.14880  Biso   1.000  C
  C209     1.0000 0.70650  0.35120  0.40080  Biso   1.000  C
  C210     1.0000 0.29350  0.85120  0.09920  Biso   1.000  C
  C211     1.0000 0.79350  0.64880  0.90080  Biso   1.000  C
  C212     1.0000 0.20650  0.14880  0.59920  Biso   1.000  C
  C213     1.0000 0.35120  0.40080  0.70650  Biso   1.000  C
  C214     1.0000 0.85120  0.09920  0.29350  Biso   1.000  C
  C215     1.0000 0.64880  0.90080  0.79350  Biso   1.000  C
  C216     1.0000 0.14880  0.59920  0.20650  Biso   1.000  C
  C217     1.0000 0.95650  0.65080  0.60120  Biso   1.000  C
  C218     1.0000 0.54350  0.34920  0.10120  Biso   1.000  C
  C219     1.0000 0.04350  0.15080  0.89880  Biso   1.000  C
  C220     1.0000 0.45650  0.84920  0.39880  Biso   1.000  C
  C221     1.0000 0.60120  0.95650  0.65080  Biso   1.000  C
  C222     1.0000 0.10120  0.54350  0.34920  Biso   1.000  C
  C223     1.0000 0.89880  0.04350  0.15080  Biso   1.000  C
  C224     1.0000 0.39880  0.45650  0.84920  Biso   1.000  C
  C225     1.0000 0.65080  0.60120  0.95650  Biso   1.000  C
  C226     1.0000 0.34920  0.10120  0.54350  Biso   1.000  C
  C227     1.0000 0.15080  0.89880  0.04350  Biso   1.000  C
  C228     1.0000 0.84920  0.39880  0.45650  Biso   1.000  C
  C229     1.0000 0.90080  0.20650  0.85120  Biso   1.000  C
  C230     1.0000 0.59920  0.79350  0.35120  Biso   1.000  C
  C231     1.0000 0.40080  0.29350  0.14880  Biso   1.000  C
  C232     1.0000 0.09920  0.70650  0.64880  Biso   1.000  C
  C233     1.0000 0.20650  0.85120  0.90080  Biso   1.000  C
  C234     1.0000 0.79350  0.35120  0.59920  Biso   1.000  C
  C235     1.0000 0.29350  0.14880  0.40080  Biso   1.000  C
  C236     1.0000 0.70650  0.64880  0.09920  Biso   1.000  C
  C237     1.0000 0.85120  0.90080  0.20650  Biso   1.000  C
  C238     1.0000 0.35120  0.59920  0.79350  Biso   1.000  C
  C239     1.0000 0.14880  0.40080  0.29350  Biso   1.000  C
  C240     1.0000 0.64880  0.09920  0.70650  Biso   1.000  C
  H145     1.0000 0.43540  0.18030  0.09980  Biso   1.000  H
  H146     1.0000 0.06460  0.81970  0.59980  Biso   1.000  H
  H147     1.0000 0.56460  0.68030  0.40020  Biso   1.000  H
  H148     1.0000 0.93540  0.31970  0.90020  Biso   1.000  H
  H149     1.0000 0.09980  0.43540  0.18030  Biso   1.000  H
  H150     1.0000 0.59980  0.06460  0.81970  Biso   1.000  H
  H151     1.0000 0.40020  0.56460  0.68030  Biso   1.000  H
  H152     1.0000 0.90020  0.93540  0.31970  Biso   1.000  H
  H153     1.0000 0.18030  0.09980  0.43540  Biso   1.000  H
  H154     1.0000 0.81970  0.59980  0.06460  Biso   1.000  H
  H155     1.0000 0.68030  0.40020  0.56460  Biso   1.000  H
  H156     1.0000 0.31970  0.90020  0.93540  Biso   1.000  H
  H157     1.0000 0.43030  0.68540  0.34980  Biso   1.000  H
  H158     1.0000 0.06970  0.31460  0.84980  Biso   1.000  H
  H159     1.0000 0.93030  0.81460  0.65020  Biso   1.000  H
  H160     1.0000 0.56970  0.18540  0.15020  Biso   1.000  H
  H161     1.0000 0.68540  0.34980  0.43030  Biso   1.000  H
  H162     1.0000 0.31460  0.84980  0.06970  Biso   1.000  H
  H163     1.0000 0.81460  0.65020  0.93030  Biso   1.000  H
  H164     1.0000 0.18540  0.15020  0.56970  Biso   1.000  H
  H165     1.0000 0.34980  0.43030  0.68540  Biso   1.000  H
  H166     1.0000 0.84980  0.06970  0.31460  Biso   1.000  H
  H167     1.0000 0.65020  0.93030  0.81460  Biso   1.000  H
  H168     1.0000 0.15020  0.56970  0.18540  Biso   1.000  H
  H169     1.0000 0.93540  0.68030  0.59980  Biso   1.000  H
  H170     1.0000 0.56460  0.31970  0.09980  Biso   1.000  H
  H171     1.0000 0.06460  0.18030  0.90020  Biso   1.000  H
  H172     1.0000 0.43540  0.81970  0.40020  Biso   1.000  H
  H173     1.0000 0.59980  0.93540  0.68030  Biso   1.000  H
  H174     1.0000 0.09980  0.56460  0.31970  Biso   1.000  H
  H175     1.0000 0.90020  0.06460  0.18030  Biso   1.000  H
  H176     1.0000 0.40020  0.43540  0.81970  Biso   1.000  H
  H177     1.0000 0.68030  0.59980  0.93540  Biso   1.000  H
  H178     1.0000 0.31970  0.09980  0.56460  Biso   1.000  H
  H179     1.0000 0.18030  0.90020  0.06460  Biso   1.000  H
  H180     1.0000 0.81970  0.40020  0.43540  Biso   1.000  H
  H181     1.0000 0.93030  0.18540  0.84980  Biso   1.000  H
  H182     1.0000 0.56970  0.81460  0.34980  Biso   1.000  H
  H183     1.0000 0.43030  0.31460  0.15020  Biso   1.000  H
  H184     1.0000 0.06970  0.68540  0.65020  Biso   1.000  H
  H185     1.0000 0.18540  0.84980  0.93030  Biso   1.000  H
  H186     1.0000 0.81460  0.34980  0.56970  Biso   1.000  H
  H187     1.0000 0.31460  0.15020  0.43030  Biso   1.000  H
  H188     1.0000 0.68540  0.65020  0.06970  Biso   1.000  H
  H189     1.0000 0.84980  0.93030  0.18540  Biso   1.000  H
  H190     1.0000 0.34980  0.56970  0.81460  Biso   1.000  H
  H191     1.0000 0.15020  0.43030  0.31460  Biso   1.000  H
  H192     1.0000 0.65020  0.06970  0.68540  Biso   1.000  H
  H193     1.0000 0.48410  0.15450  0.07790  Biso   1.000  H
  H194     1.0000 0.01590  0.84550  0.57790  Biso   1.000  H
  H195     1.0000 0.51590  0.65450  0.42210  Biso   1.000  H
  H196     1.0000 0.98410  0.34550  0.92210  Biso   1.000  H
  H197     1.0000 0.07790  0.48410  0.15450  Biso   1.000  H
  H198     1.0000 0.57790  0.01590  0.84550  Biso   1.000  H
  H199     1.0000 0.42210  0.51590  0.65450  Biso   1.000  H
  H200     1.0000 0.92210  0.98410  0.34550  Biso   1.000  H
  H201     1.0000 0.15450  0.07790  0.48410  Biso   1.000  H
  H202     1.0000 0.84550  0.57790  0.01590  Biso   1.000  H
  H203     1.0000 0.65450  0.42210  0.51590  Biso   1.000  H
  H204     1.0000 0.34550  0.92210  0.98410  Biso   1.000  H
  H205     1.0000 0.40450  0.73410  0.32790  Biso   1.000  H
  H206     1.0000 0.09550  0.26590  0.82790  Biso   1.000  H
  H207     1.0000 0.90450  0.76590  0.67210  Biso   1.000  H
  H208     1.0000 0.59550  0.23410  0.17210  Biso   1.000  H
  H209     1.0000 0.73410  0.32790  0.40450  Biso   1.000  H
  H210     1.0000 0.26590  0.82790  0.09550  Biso   1.000  H
  H211     1.0000 0.76590  0.67210  0.90450  Biso   1.000  H
  H212     1.0000 0.23410  0.17210  0.59550  Biso   1.000  H
  H213     1.0000 0.32790  0.40450  0.73410  Biso   1.000  H
  H214     1.0000 0.82790  0.09550  0.26590  Biso   1.000  H
  H215     1.0000 0.67210  0.90450  0.76590  Biso   1.000  H
  H216     1.0000 0.17210  0.59550  0.23410  Biso   1.000  H
  H217     1.0000 0.98410  0.65450  0.57790  Biso   1.000  H
  H218     1.0000 0.51590  0.34550  0.07790  Biso   1.000  H
  H219     1.0000 0.01590  0.15450  0.92210  Biso   1.000  H
  H220     1.0000 0.48410  0.84550  0.42210  Biso   1.000  H
  H221     1.0000 0.57790  0.98410  0.65450  Biso   1.000  H
  H222     1.0000 0.07790  0.51590  0.34550  Biso   1.000  H
  H223     1.0000 0.92210  0.01590  0.15450  Biso   1.000  H
  H224     1.0000 0.42210  0.48410  0.84550  Biso   1.000  H
  H225     1.0000 0.65450  0.57790  0.98410  Biso   1.000  H
  H226     1.0000 0.34550  0.07790  0.51590  Biso   1.000  H
  H227     1.0000 0.15450  0.92210  0.01590  Biso   1.000  H
  H228     1.0000 0.84550  0.42210  0.48410  Biso   1.000  H
  H229     1.0000 0.90450  0.23410  0.82790  Biso   1.000  H
  H230     1.0000 0.59550  0.76590  0.32790  Biso   1.000  H
  H231     1.0000 0.40450  0.26590  0.17210  Biso   1.000  H
  H232     1.0000 0.09550  0.73410  0.67210  Biso   1.000  H
  H233     1.0000 0.23410  0.82790  0.90450  Biso   1.000  H
  H234     1.0000 0.76590  0.32790  0.59550  Biso   1.000  H
  H235     1.0000 0.26590  0.17210  0.40450  Biso   1.000  H
  H236     1.0000 0.73410  0.67210  0.09550  Biso   1.000  H
  H237     1.0000 0.82790  0.90450  0.23410  Biso   1.000  H
  H238     1.0000 0.32790  0.59550  0.76590  Biso   1.000  H
  H239     1.0000 0.17210  0.40450  0.26590  Biso   1.000  H
  H240     1.0000 0.67210  0.09550  0.73410  Biso   1.000  H
  H241     1.0000 0.46950  0.14670  0.13490  Biso   1.000  H
  H242     1.0000 0.03050  0.85330  0.63490  Biso   1.000  H
  H243     1.0000 0.53050  0.64670  0.36510  Biso   1.000  H
  H244     1.0000 0.96950  0.35330  0.86510  Biso   1.000  H
  H245     1.0000 0.13490  0.46950  0.14670  Biso   1.000  H
  H246     1.0000 0.63490  0.03050  0.85330  Biso   1.000  H
  H247     1.0000 0.36510  0.53050  0.64670  Biso   1.000  H
  H248     1.0000 0.86510  0.96950  0.35330  Biso   1.000  H
  H249     1.0000 0.14670  0.13490  0.46950  Biso   1.000  H
  H250     1.0000 0.85330  0.63490  0.03050  Biso   1.000  H
  H251     1.0000 0.64670  0.36510  0.53050  Biso   1.000  H
  H252     1.0000 0.35330  0.86510  0.96950  Biso   1.000  H
  H253     1.0000 0.39670  0.71950  0.38490  Biso   1.000  H
  H254     1.0000 0.10330  0.28050  0.88490  Biso   1.000  H
  H255     1.0000 0.89670  0.78050  0.61510  Biso   1.000  H
  H256     1.0000 0.60330  0.21950  0.11510  Biso   1.000  H
  H257     1.0000 0.71950  0.38490  0.39670  Biso   1.000  H
  H258     1.0000 0.28050  0.88490  0.10330  Biso   1.000  H
  H259     1.0000 0.78050  0.61510  0.89670  Biso   1.000  H
  H260     1.0000 0.21950  0.11510  0.60330  Biso   1.000  H
  H261     1.0000 0.38490  0.39670  0.71950  Biso   1.000  H
  H262     1.0000 0.88490  0.10330  0.28050  Biso   1.000  H
  H263     1.0000 0.61510  0.89670  0.78050  Biso   1.000  H
  H264     1.0000 0.11510  0.60330  0.21950  Biso   1.000  H
  H265     1.0000 0.96950  0.64670  0.63490  Biso   1.000  H
  H266     1.0000 0.53050  0.35330  0.13490  Biso   1.000  H
  H267     1.0000 0.03050  0.14670  0.86510  Biso   1.000  H
  H268     1.0000 0.46950  0.85330  0.36510  Biso   1.000  H
  H269     1.0000 0.63490  0.96950  0.64670  Biso   1.000  H
  H270     1.0000 0.13490  0.53050  0.35330  Biso   1.000  H
  H271     1.0000 0.86510  0.03050  0.14670  Biso   1.000  H
  H272     1.0000 0.36510  0.46950  0.85330  Biso   1.000  H
  H273     1.0000 0.64670  0.63490  0.96950  Biso   1.000  H
  H274     1.0000 0.35330  0.13490  0.53050  Biso   1.000  H
  H275     1.0000 0.14670  0.86510  0.03050  Biso   1.000  H
  H276     1.0000 0.85330  0.36510  0.46950  Biso   1.000  H
  H277     1.0000 0.89670  0.21950  0.88490  Biso   1.000  H
  H278     1.0000 0.60330  0.78050  0.38490  Biso   1.000  H
  H279     1.0000 0.39670  0.28050  0.11510  Biso   1.000  H
  H280     1.0000 0.10330  0.71950  0.61510  Biso   1.000  H
  H281     1.0000 0.21950  0.88490  0.89670  Biso   1.000  H
  H282     1.0000 0.78050  0.38490  0.60330  Biso   1.000  H
  H283     1.0000 0.28050  0.11510  0.39670  Biso   1.000  H
  H284     1.0000 0.71950  0.61510  0.10330  Biso   1.000  H
  H285     1.0000 0.88490  0.89670  0.21950  Biso   1.000  H
  H286     1.0000 0.38490  0.60330  0.78050  Biso   1.000  H
  H287     1.0000 0.11510  0.39670  0.28050  Biso   1.000  H
  H288     1.0000 0.61510  0.10330  0.71950  Biso   1.000  H
  N97      1.0000 0.28430  0.14690  0.18740  Biso   1.000  N
  N98      1.0000 0.21570  0.85310  0.68740  Biso   1.000  N
  N99      1.0000 0.71570  0.64690  0.31260  Biso   1.000  N
  N100     1.0000 0.78430  0.35310  0.81260  Biso   1.000  N
  N101     1.0000 0.18740  0.28430  0.14690  Biso   1.000  N
  N102     1.0000 0.68740  0.21570  0.85310  Biso   1.000  N
  N103     1.0000 0.31260  0.71570  0.64690  Biso   1.000  N
  N104     1.0000 0.81260  0.78430  0.35310  Biso   1.000  N
  N105     1.0000 0.14690  0.18740  0.28430  Biso   1.000  N
  N106     1.0000 0.85310  0.68740  0.21570  Biso   1.000  N
  N107     1.0000 0.64690  0.31260  0.71570  Biso   1.000  N
  N108     1.0000 0.35310  0.81260  0.78430  Biso   1.000  N
  N109     1.0000 0.39690  0.53430  0.43740  Biso   1.000  N
  N110     1.0000 0.10310  0.46570  0.93740  Biso   1.000  N
  N111     1.0000 0.89690  0.96570  0.56260  Biso   1.000  N
  N112     1.0000 0.60310  0.03430  0.06260  Biso   1.000  N
  N113     1.0000 0.53430  0.43740  0.39690  Biso   1.000  N
  N114     1.0000 0.46570  0.93740  0.10310  Biso   1.000  N
  N115     1.0000 0.96570  0.56260  0.89690  Biso   1.000  N
  N116     1.0000 0.03430  0.06260  0.60310  Biso   1.000  N
  N117     1.0000 0.43740  0.39690  0.53430  Biso   1.000  N
  N118     1.0000 0.93740  0.10310  0.46570  Biso   1.000  N
  N119     1.0000 0.56260  0.89690  0.96570  Biso   1.000  N
  N120     1.0000 0.06260  0.60310  0.03430  Biso   1.000  N
  N121     1.0000 0.78430  0.64690  0.68740  Biso   1.000  N
  N122     1.0000 0.71570  0.35310  0.18740  Biso   1.000  N
  N123     1.0000 0.21570  0.14690  0.81260  Biso   1.000  N
  N124     1.0000 0.28430  0.85310  0.31260  Biso   1.000  N
  N125     1.0000 0.68740  0.78430  0.64690  Biso   1.000  N
  N126     1.0000 0.18740  0.71570  0.35310  Biso   1.000  N
  N127     1.0000 0.81260  0.21570  0.14690  Biso   1.000  N
  N128     1.0000 0.31260  0.28430  0.85310  Biso   1.000  N
  N129     1.0000 0.64690  0.68740  0.78430  Biso   1.000  N
  N130     1.0000 0.35310  0.18740  0.71570  Biso   1.000  N
  N131     1.0000 0.14690  0.81260  0.21570  Biso   1.000  N
  N132     1.0000 0.85310  0.31260  0.28430  Biso   1.000  N
  N133     1.0000 0.89690  0.03430  0.93740  Biso   1.000  N
  N134     1.0000 0.60310  0.96570  0.43740  Biso   1.000  N
  N135     1.0000 0.39690  0.46570  0.06260  Biso   1.000  N
  N136     1.0000 0.10310  0.53430  0.56260  Biso   1.000  N
  N137     1.0000 0.03430  0.93740  0.89690  Biso   1.000  N
  N138     1.0000 0.96570  0.43740  0.60310  Biso   1.000  N
  N139     1.0000 0.46570  0.06260  0.39690  Biso   1.000  N
  N140     1.0000 0.53430  0.56260  0.10310  Biso   1.000  N
  N141     1.0000 0.93740  0.89690  0.03430  Biso   1.000  N
  N142     1.0000 0.43740  0.60310  0.96570  Biso   1.000  N
  N143     1.0000 0.06260  0.39690  0.46570  Biso   1.000  N
  N144     1.0000 0.56260  0.10310  0.53430  Biso   1.000  N
  N145     1.0000 0.28540  0.18420  0.15010  Biso   1.000  N
  N146     1.0000 0.21460  0.81580  0.65010  Biso   1.000  N
  N147     1.0000 0.71460  0.68420  0.34990  Biso   1.000  N
  N148     1.0000 0.78540  0.31580  0.84990  Biso   1.000  N
  N149     1.0000 0.15010  0.28540  0.18420  Biso   1.000  N
  N150     1.0000 0.65010  0.21460  0.81580  Biso   1.000  N
  N151     1.0000 0.34990  0.71460  0.68420  Biso   1.000  N
  N152     1.0000 0.84990  0.78540  0.31580  Biso   1.000  N
  N153     1.0000 0.18420  0.15010  0.28540  Biso   1.000  N
  N154     1.0000 0.81580  0.65010  0.21460  Biso   1.000  N
  N155     1.0000 0.68420  0.34990  0.71460  Biso   1.000  N
  N156     1.0000 0.31580  0.84990  0.78540  Biso   1.000  N
  N157     1.0000 0.43420  0.53540  0.40010  Biso   1.000  N
  N158     1.0000 0.06580  0.46460  0.90010  Biso   1.000  N
  N159     1.0000 0.93420  0.96460  0.59990  Biso   1.000  N
  N160     1.0000 0.56580  0.03540  0.09990  Biso   1.000  N
  N161     1.0000 0.53540  0.40010  0.43420  Biso   1.000  N
  N162     1.0000 0.46460  0.90010  0.06580  Biso   1.000  N
  N163     1.0000 0.96460  0.59990  0.93420  Biso   1.000  N
  N164     1.0000 0.03540  0.09990  0.56580  Biso   1.000  N
  N165     1.0000 0.40010  0.43420  0.53540  Biso   1.000  N
  N166     1.0000 0.90010  0.06580  0.46460  Biso   1.000  N
  N167     1.0000 0.59990  0.93420  0.96460  Biso   1.000  N
  N168     1.0000 0.09990  0.56580  0.03540  Biso   1.000  N
  N169     1.0000 0.78540  0.68420  0.65010  Biso   1.000  N
  N170     1.0000 0.71460  0.31580  0.15010  Biso   1.000  N
  N171     1.0000 0.21460  0.18420  0.84990  Biso   1.000  N
  N172     1.0000 0.28540  0.81580  0.34990  Biso   1.000  N
  N173     1.0000 0.65010  0.78540  0.68420  Biso   1.000  N
  N174     1.0000 0.15010  0.71460  0.31580  Biso   1.000  N
  N175     1.0000 0.84990  0.21460  0.18420  Biso   1.000  N
  N176     1.0000 0.34990  0.28540  0.81580  Biso   1.000  N
  N177     1.0000 0.68420  0.65010  0.78540  Biso   1.000  N
  N178     1.0000 0.31580  0.15010  0.71460  Biso   1.000  N
  N179     1.0000 0.18420  0.84990  0.21460  Biso   1.000  N
  N180     1.0000 0.81580  0.34990  0.28540  Biso   1.000  N
  N181     1.0000 0.93420  0.03540  0.90010  Biso   1.000  N
  N182     1.0000 0.56580  0.96460  0.40010  Biso   1.000  N
  N183     1.0000 0.43420  0.46460  0.09990  Biso   1.000  N
  N184     1.0000 0.06580  0.53540  0.59990  Biso   1.000  N
  N185     1.0000 0.03540  0.90010  0.93420  Biso   1.000  N
  N186     1.0000 0.96460  0.40010  0.56580  Biso   1.000  N
  N187     1.0000 0.46460  0.09990  0.43420  Biso   1.000  N
  N188     1.0000 0.53540  0.59990  0.06580  Biso   1.000  N
  N189     1.0000 0.90010  0.93420  0.03540  Biso   1.000  N
  N190     1.0000 0.40010  0.56580  0.96460  Biso   1.000  N
  N191     1.0000 0.09990  0.43420  0.46460  Biso   1.000  N
  N192     1.0000 0.59990  0.06580  0.53540  Biso   1.000  N
  C241     1.0000 0.32400  0.06330  0.20380  Biso   1.000  C
  C242     1.0000 0.17600  0.93670  0.70380  Biso   1.000  C
  C243     1.0000 0.67600  0.56330  0.29620  Biso   1.000  C
  C244     1.0000 0.82400  0.43670  0.79620  Biso   1.000  C
  C245     1.0000 0.20380  0.32400  0.06330  Biso   1.000  C
  C246     1.0000 0.70380  0.17600  0.93670  Biso   1.000  C
  C247     1.0000 0.29620  0.67600  0.56330  Biso   1.000  C
  C248     1.0000 0.79620  0.82400  0.43670  Biso   1.000  C
  C249     1.0000 0.06330  0.20380  0.32400  Biso   1.000  C
  C250     1.0000 0.93670  0.70380  0.17600  Biso   1.000  C
  C251     1.0000 0.56330  0.29620  0.67600  Biso   1.000  C
  C252     1.0000 0.43670  0.79620  0.82400  Biso   1.000  C
  C253     1.0000 0.31330  0.57400  0.45380  Biso   1.000  C
  C254     1.0000 0.18670  0.42600  0.95380  Biso   1.000  C
  C255     1.0000 0.81330  0.92600  0.54620  Biso   1.000  C
  C256     1.0000 0.68670  0.07400  0.04620  Biso   1.000  C
  C257     1.0000 0.57400  0.45380  0.31330  Biso   1.000  C
  C258     1.0000 0.42600  0.95380  0.18670  Biso   1.000  C
  C259     1.0000 0.92600  0.54620  0.81330  Biso   1.000  C
  C260     1.0000 0.07400  0.04620  0.68670  Biso   1.000  C
  C261     1.0000 0.45380  0.31330  0.57400  Biso   1.000  C
  C262     1.0000 0.95380  0.18670  0.42600  Biso   1.000  C
  C263     1.0000 0.54620  0.81330  0.92600  Biso   1.000  C
  C264     1.0000 0.04620  0.68670  0.07400  Biso   1.000  C
  C265     1.0000 0.82400  0.56330  0.70380  Biso   1.000  C
  C266     1.0000 0.67600  0.43670  0.20380  Biso   1.000  C
  C267     1.0000 0.17600  0.06330  0.79620  Biso   1.000  C
  C268     1.0000 0.32400  0.93670  0.29620  Biso   1.000  C
  C269     1.0000 0.70380  0.82400  0.56330  Biso   1.000  C
  C270     1.0000 0.20380  0.67600  0.43670  Biso   1.000  C
  C271     1.0000 0.79620  0.17600  0.06330  Biso   1.000  C
  C272     1.0000 0.29620  0.32400  0.93670  Biso   1.000  C
  C273     1.0000 0.56330  0.70380  0.82400  Biso   1.000  C
  C274     1.0000 0.43670  0.20380  0.67600  Biso   1.000  C
  C275     1.0000 0.06330  0.79620  0.17600  Biso   1.000  C
  C276     1.0000 0.93670  0.29620  0.32400  Biso   1.000  C
  C277     1.0000 0.81330  0.07400  0.95380  Biso   1.000  C
  C278     1.0000 0.68670  0.92600  0.45380  Biso   1.000  C
  C279     1.0000 0.31330  0.42600  0.04620  Biso   1.000  C
  C280     1.0000 0.18670  0.57400  0.54620  Biso   1.000  C
  C281     1.0000 0.07400  0.95380  0.81330  Biso   1.000  C
  C282     1.0000 0.92600  0.45380  0.68670  Biso   1.000  C
  C283     1.0000 0.42600  0.04620  0.31330  Biso   1.000  C
  C284     1.0000 0.57400  0.54620  0.18670  Biso   1.000  C
  C285     1.0000 0.95380  0.81330  0.07400  Biso   1.000  C
  C286     1.0000 0.45380  0.68670  0.92600  Biso   1.000  C
  C287     1.0000 0.04620  0.31330  0.42600  Biso   1.000  C
  C288     1.0000 0.54620  0.18670  0.57400  Biso   1.000  C
  H289     1.0000 0.32580  0.07280  0.23880  Biso   1.000  H
  H290     1.0000 0.17420  0.92720  0.73880  Biso   1.000  H
  H291     1.0000 0.67420  0.57280  0.26120  Biso   1.000  H
  H292     1.0000 0.82580  0.42720  0.76120  Biso   1.000  H
  H293     1.0000 0.23880  0.32580  0.07280  Biso   1.000  H
  H294     1.0000 0.73880  0.17420  0.92720  Biso   1.000  H
  H295     1.0000 0.26120  0.67420  0.57280  Biso   1.000  H
  H296     1.0000 0.76120  0.82580  0.42720  Biso   1.000  H
  H297     1.0000 0.07280  0.23880  0.32580  Biso   1.000  H
  H298     1.0000 0.92720  0.73880  0.17420  Biso   1.000  H
  H299     1.0000 0.57280  0.26120  0.67420  Biso   1.000  H
  H300     1.0000 0.42720  0.76120  0.82580  Biso   1.000  H
  H301     1.0000 0.32280  0.57580  0.48880  Biso   1.000  H
  H302     1.0000 0.17720  0.42420  0.98880  Biso   1.000  H
  H303     1.0000 0.82280  0.92420  0.51120  Biso   1.000  H
  H304     1.0000 0.67720  0.07580  0.01120  Biso   1.000  H
  H305     1.0000 0.57580  0.48880  0.32280  Biso   1.000  H
  H306     1.0000 0.42420  0.98880  0.17720  Biso   1.000  H
  H307     1.0000 0.92420  0.51120  0.82280  Biso   1.000  H
  H308     1.0000 0.07580  0.01120  0.67720  Biso   1.000  H
  H309     1.0000 0.48880  0.32280  0.57580  Biso   1.000  H
  H310     1.0000 0.98880  0.17720  0.42420  Biso   1.000  H
  H311     1.0000 0.51120  0.82280  0.92420  Biso   1.000  H
  H312     1.0000 0.01120  0.67720  0.07580  Biso   1.000  H
  H313     1.0000 0.82580  0.57280  0.73880  Biso   1.000  H
  H314     1.0000 0.67420  0.42720  0.23880  Biso   1.000  H
  H315     1.0000 0.17420  0.07280  0.76120  Biso   1.000  H
  H316     1.0000 0.32580  0.92720  0.26120  Biso   1.000  H
  H317     1.0000 0.73880  0.82580  0.57280  Biso   1.000  H
  H318     1.0000 0.23880  0.67420  0.42720  Biso   1.000  H
  H319     1.0000 0.76120  0.17420  0.07280  Biso   1.000  H
  H320     1.0000 0.26120  0.32580  0.92720  Biso   1.000  H
  H321     1.0000 0.57280  0.73880  0.82580  Biso   1.000  H
  H322     1.0000 0.42720  0.23880  0.67420  Biso   1.000  H
  H323     1.0000 0.07280  0.76120  0.17420  Biso   1.000  H
  H324     1.0000 0.92720  0.26120  0.32580  Biso   1.000  H
  H325     1.0000 0.82280  0.07580  0.98880  Biso   1.000  H
  H326     1.0000 0.67720  0.92420  0.48880  Biso   1.000  H
  H327     1.0000 0.32280  0.42420  0.01120  Biso   1.000  H
  H328     1.0000 0.17720  0.57580  0.51120  Biso   1.000  H
  H329     1.0000 0.07580  0.98880  0.82280  Biso   1.000  H
  H330     1.0000 0.92420  0.48880  0.67720  Biso   1.000  H
  H331     1.0000 0.42420  0.01120  0.32280  Biso   1.000  H
  H332     1.0000 0.57580  0.51120  0.17720  Biso   1.000  H
  H333     1.0000 0.98880  0.82280  0.07580  Biso   1.000  H
  H334     1.0000 0.48880  0.67720  0.92420  Biso   1.000  H
  H335     1.0000 0.01120  0.32280  0.42420  Biso   1.000  H
  H336     1.0000 0.51120  0.17720  0.57580  Biso   1.000  H
  H337     1.0000 0.35570  0.04860  0.19360  Biso   1.000  H
  H338     1.0000 0.14430  0.95140  0.69360  Biso   1.000  H
  H339     1.0000 0.64430  0.54860  0.30640  Biso   1.000  H
  H340     1.0000 0.85570  0.45140  0.80640  Biso   1.000  H
  H341     1.0000 0.19360  0.35570  0.04860  Biso   1.000  H
  H342     1.0000 0.69360  0.14430  0.95140  Biso   1.000  H
  H343     1.0000 0.30640  0.64430  0.54860  Biso   1.000  H
  H344     1.0000 0.80640  0.85570  0.45140  Biso   1.000  H
  H345     1.0000 0.04860  0.19360  0.35570  Biso   1.000  H
  H346     1.0000 0.95140  0.69360  0.14430  Biso   1.000  H
  H347     1.0000 0.54860  0.30640  0.64430  Biso   1.000  H
  H348     1.0000 0.45140  0.80640  0.85570  Biso   1.000  H
  H349     1.0000 0.29860  0.60570  0.44360  Biso   1.000  H
  H350     1.0000 0.20140  0.39430  0.94360  Biso   1.000  H
  H351     1.0000 0.79860  0.89430  0.55640  Biso   1.000  H
  H352     1.0000 0.70140  0.10570  0.05640  Biso   1.000  H
  H353     1.0000 0.60570  0.44360  0.29860  Biso   1.000  H
  H354     1.0000 0.39430  0.94360  0.20140  Biso   1.000  H
  H355     1.0000 0.89430  0.55640  0.79860  Biso   1.000  H
  H356     1.0000 0.10570  0.05640  0.70140  Biso   1.000  H
  H357     1.0000 0.44360  0.29860  0.60570  Biso   1.000  H
  H358     1.0000 0.94360  0.20140  0.39430  Biso   1.000  H
  H359     1.0000 0.55640  0.79860  0.89430  Biso   1.000  H
  H360     1.0000 0.05640  0.70140  0.10570  Biso   1.000  H
  H361     1.0000 0.85570  0.54860  0.69360  Biso   1.000  H
  H362     1.0000 0.64430  0.45140  0.19360  Biso   1.000  H
  H363     1.0000 0.14430  0.04860  0.80640  Biso   1.000  H
  H364     1.0000 0.35570  0.95140  0.30640  Biso   1.000  H
  H365     1.0000 0.69360  0.85570  0.54860  Biso   1.000  H
  H366     1.0000 0.19360  0.64430  0.45140  Biso   1.000  H
  H367     1.0000 0.80640  0.14430  0.04860  Biso   1.000  H
  H368     1.0000 0.30640  0.35570  0.95140  Biso   1.000  H
  H369     1.0000 0.54860  0.69360  0.85570  Biso   1.000  H
  H370     1.0000 0.45140  0.19360  0.64430  Biso   1.000  H
  H371     1.0000 0.04860  0.80640  0.14430  Biso   1.000  H
  H372     1.0000 0.95140  0.30640  0.35570  Biso   1.000  H
  H373     1.0000 0.79860  0.10570  0.94360  Biso   1.000  H
  H374     1.0000 0.70140  0.89430  0.44360  Biso   1.000  H
  H375     1.0000 0.29860  0.39430  0.05640  Biso   1.000  H
  H376     1.0000 0.20140  0.60570  0.55640  Biso   1.000  H
  H377     1.0000 0.10570  0.94360  0.79860  Biso   1.000  H
  H378     1.0000 0.89430  0.44360  0.70140  Biso   1.000  H
  H379     1.0000 0.39430  0.05640  0.29860  Biso   1.000  H
  H380     1.0000 0.60570  0.55640  0.20140  Biso   1.000  H
  H381     1.0000 0.94360  0.79860  0.10570  Biso   1.000  H
  H382     1.0000 0.44360  0.70140  0.89430  Biso   1.000  H
  H383     1.0000 0.05640  0.29860  0.39430  Biso   1.000  H
  H384     1.0000 0.55640  0.20140  0.60570  Biso   1.000  H
  H385     1.0000 0.29730  0.03910  0.19910  Biso   1.000  H
  H386     1.0000 0.20270  0.96090  0.69910  Biso   1.000  H
  H387     1.0000 0.70270  0.53910  0.30090  Biso   1.000  H
  H388     1.0000 0.79730  0.46090  0.80090  Biso   1.000  H
  H389     1.0000 0.19910  0.29730  0.03910  Biso   1.000  H
  H390     1.0000 0.69910  0.20270  0.96090  Biso   1.000  H
  H391     1.0000 0.30090  0.70270  0.53910  Biso   1.000  H
  H392     1.0000 0.80090  0.79730  0.46090  Biso   1.000  H
  H393     1.0000 0.03910  0.19910  0.29730  Biso   1.000  H
  H394     1.0000 0.96090  0.69910  0.20270  Biso   1.000  H
  H395     1.0000 0.53910  0.30090  0.70270  Biso   1.000  H
  H396     1.0000 0.46090  0.80090  0.79730  Biso   1.000  H
  H397     1.0000 0.28910  0.54730  0.44910  Biso   1.000  H
  H398     1.0000 0.21090  0.45270  0.94910  Biso   1.000  H
  H399     1.0000 0.78910  0.95270  0.55090  Biso   1.000  H
  H400     1.0000 0.71090  0.04730  0.05090  Biso   1.000  H
  H401     1.0000 0.54730  0.44910  0.28910  Biso   1.000  H
  H402     1.0000 0.45270  0.94910  0.21090  Biso   1.000  H
  H403     1.0000 0.95270  0.55090  0.78910  Biso   1.000  H
  H404     1.0000 0.04730  0.05090  0.71090  Biso   1.000  H
  H405     1.0000 0.44910  0.28910  0.54730  Biso   1.000  H
  H406     1.0000 0.94910  0.21090  0.45270  Biso   1.000  H
  H407     1.0000 0.55090  0.78910  0.95270  Biso   1.000  H
  H408     1.0000 0.05090  0.71090  0.04730  Biso   1.000  H
  H409     1.0000 0.79730  0.53910  0.69910  Biso   1.000  H
  H410     1.0000 0.70270  0.46090  0.19910  Biso   1.000  H
  H411     1.0000 0.20270  0.03910  0.80090  Biso   1.000  H
  H412     1.0000 0.29730  0.96090  0.30090  Biso   1.000  H
  H413     1.0000 0.69910  0.79730  0.53910  Biso   1.000  H
  H414     1.0000 0.19910  0.70270  0.46090  Biso   1.000  H
  H415     1.0000 0.80090  0.20270  0.03910  Biso   1.000  H
  H416     1.0000 0.30090  0.29730  0.96090  Biso   1.000  H
  H417     1.0000 0.53910  0.69910  0.79730  Biso   1.000  H
  H418     1.0000 0.46090  0.19910  0.70270  Biso   1.000  H
  H419     1.0000 0.03910  0.80090  0.20270  Biso   1.000  H
  H420     1.0000 0.96090  0.30090  0.29730  Biso   1.000  H
  H421     1.0000 0.78910  0.04730  0.94910  Biso   1.000  H
  H422     1.0000 0.71090  0.95270  0.44910  Biso   1.000  H
  H423     1.0000 0.28910  0.45270  0.05090  Biso   1.000  H
  H424     1.0000 0.21090  0.54730  0.55090  Biso   1.000  H
  H425     1.0000 0.04730  0.94910  0.78910  Biso   1.000  H
  H426     1.0000 0.95270  0.44910  0.71090  Biso   1.000  H
  H427     1.0000 0.45270  0.05090  0.28910  Biso   1.000  H
  H428     1.0000 0.54730  0.55090  0.21090  Biso   1.000  H
  H429     1.0000 0.94910  0.78910  0.04730  Biso   1.000  H
  H430     1.0000 0.44910  0.71090  0.95270  Biso   1.000  H
  H431     1.0000 0.05090  0.28910  0.45270  Biso   1.000  H
  H432     1.0000 0.55090  0.21090  0.54730  Biso   1.000  H
  C289     1.0000 0.31370  0.10920  0.17230  Biso   1.000  C
  C290     1.0000 0.18630  0.89080  0.67230  Biso   1.000  C
  C291     1.0000 0.68630  0.60920  0.32770  Biso   1.000  C
  C292     1.0000 0.81370  0.39080  0.82770  Biso   1.000  C
  C293     1.0000 0.17230  0.31370  0.10920  Biso   1.000  C
  C294     1.0000 0.67230  0.18630  0.89080  Biso   1.000  C
  C295     1.0000 0.32770  0.68630  0.60920  Biso   1.000  C
  C296     1.0000 0.82770  0.81370  0.39080  Biso   1.000  C
  C297     1.0000 0.10920  0.17230  0.31370  Biso   1.000  C
  C298     1.0000 0.89080  0.67230  0.18630  Biso   1.000  C
  C299     1.0000 0.60920  0.32770  0.68630  Biso   1.000  C
  C300     1.0000 0.39080  0.82770  0.81370  Biso   1.000  C
  C301     1.0000 0.35920  0.56370  0.42230  Biso   1.000  C
  C302     1.0000 0.14080  0.43630  0.92230  Biso   1.000  C
  C303     1.0000 0.85920  0.93630  0.57770  Biso   1.000  C
  C304     1.0000 0.64080  0.06370  0.07770  Biso   1.000  C
  C305     1.0000 0.56370  0.42230  0.35920  Biso   1.000  C
  C306     1.0000 0.43630  0.92230  0.14080  Biso   1.000  C
  C307     1.0000 0.93630  0.57770  0.85920  Biso   1.000  C
  C308     1.0000 0.06370  0.07770  0.64080  Biso   1.000  C
  C309     1.0000 0.42230  0.35920  0.56370  Biso   1.000  C
  C310     1.0000 0.92230  0.14080  0.43630  Biso   1.000  C
  C311     1.0000 0.57770  0.85920  0.93630  Biso   1.000  C
  C312     1.0000 0.07770  0.64080  0.06370  Biso   1.000  C
  C313     1.0000 0.81370  0.60920  0.67230  Biso   1.000  C
  C314     1.0000 0.68630  0.39080  0.17230  Biso   1.000  C
  C315     1.0000 0.18630  0.10920  0.82770  Biso   1.000  C
  C316     1.0000 0.31370  0.89080  0.32770  Biso   1.000  C
  C317     1.0000 0.67230  0.81370  0.60920  Biso   1.000  C
  C318     1.0000 0.17230  0.68630  0.39080  Biso   1.000  C
  C319     1.0000 0.82770  0.18630  0.10920  Biso   1.000  C
  C320     1.0000 0.32770  0.31370  0.89080  Biso   1.000  C
  C321     1.0000 0.60920  0.67230  0.81370  Biso   1.000  C
  C322     1.0000 0.39080  0.17230  0.68630  Biso   1.000  C
  C323     1.0000 0.10920  0.82770  0.18630  Biso   1.000  C
  C324     1.0000 0.89080  0.32770  0.31370  Biso   1.000  C
  C325     1.0000 0.85920  0.06370  0.92230  Biso   1.000  C
  C326     1.0000 0.64080  0.93630  0.42230  Biso   1.000  C
  C327     1.0000 0.35920  0.43630  0.07770  Biso   1.000  C
  C328     1.0000 0.14080  0.56370  0.57770  Biso   1.000  C
  C329     1.0000 0.06370  0.92230  0.85920  Biso   1.000  C
  C330     1.0000 0.93630  0.42230  0.64080  Biso   1.000  C
  C331     1.0000 0.43630  0.07770  0.35920  Biso   1.000  C
  C332     1.0000 0.56370  0.57770  0.14080  Biso   1.000  C
  C333     1.0000 0.92230  0.85920  0.06370  Biso   1.000  C
  C334     1.0000 0.42230  0.64080  0.93630  Biso   1.000  C
  C335     1.0000 0.07770  0.35920  0.43630  Biso   1.000  C
  C336     1.0000 0.57770  0.14080  0.56370  Biso   1.000  C
  C337     1.0000 0.33780  0.12340  0.12570  Biso   1.000  C
  C338     1.0000 0.16220  0.87660  0.62570  Biso   1.000  C
  C339     1.0000 0.66220  0.62340  0.37430  Biso   1.000  C
  C340     1.0000 0.83780  0.37660  0.87430  Biso   1.000  C
  C341     1.0000 0.12570  0.33780  0.12340  Biso   1.000  C
  C342     1.0000 0.62570  0.16220  0.87660  Biso   1.000  C
  C343     1.0000 0.37430  0.66220  0.62340  Biso   1.000  C
  C344     1.0000 0.87430  0.83780  0.37660  Biso   1.000  C
  C345     1.0000 0.12340  0.12570  0.33780  Biso   1.000  C
  C346     1.0000 0.87660  0.62570  0.16220  Biso   1.000  C
  C347     1.0000 0.62340  0.37430  0.66220  Biso   1.000  C
  C348     1.0000 0.37660  0.87430  0.83780  Biso   1.000  C
  C349     1.0000 0.37340  0.58780  0.37570  Biso   1.000  C
  C350     1.0000 0.12660  0.41220  0.87570  Biso   1.000  C
  C351     1.0000 0.87340  0.91220  0.62430  Biso   1.000  C
  C352     1.0000 0.62660  0.08780  0.12430  Biso   1.000  C
  C353     1.0000 0.58780  0.37570  0.37340  Biso   1.000  C
  C354     1.0000 0.41220  0.87570  0.12660  Biso   1.000  C
  C355     1.0000 0.91220  0.62430  0.87340  Biso   1.000  C
  C356     1.0000 0.08780  0.12430  0.62660  Biso   1.000  C
  C357     1.0000 0.37570  0.37340  0.58780  Biso   1.000  C
  C358     1.0000 0.87570  0.12660  0.41220  Biso   1.000  C
  C359     1.0000 0.62430  0.87340  0.91220  Biso   1.000  C
  C360     1.0000 0.12430  0.62660  0.08780  Biso   1.000  C
  C361     1.0000 0.83780  0.62340  0.62570  Biso   1.000  C
  C362     1.0000 0.66220  0.37660  0.12570  Biso   1.000  C
  C363     1.0000 0.16220  0.12340  0.87430  Biso   1.000  C
  C364     1.0000 0.33780  0.87660  0.37430  Biso   1.000  C
  C365     1.0000 0.62570  0.83780  0.62340  Biso   1.000  C
  C366     1.0000 0.12570  0.66220  0.37660  Biso   1.000  C
  C367     1.0000 0.87430  0.16220  0.12340  Biso   1.000  C
  C368     1.0000 0.37430  0.33780  0.87660  Biso   1.000  C
  C369     1.0000 0.62340  0.62570  0.83780  Biso   1.000  C
  C370     1.0000 0.37660  0.12570  0.66220  Biso   1.000  C
  C371     1.0000 0.12340  0.87430  0.16220  Biso   1.000  C
  C372     1.0000 0.87660  0.37430  0.33780  Biso   1.000  C
  C373     1.0000 0.87340  0.08780  0.87570  Biso   1.000  C
  C374     1.0000 0.62660  0.91220  0.37570  Biso   1.000  C
  C375     1.0000 0.37340  0.41220  0.12430  Biso   1.000  C
  C376     1.0000 0.12660  0.58780  0.62430  Biso   1.000  C
  C377     1.0000 0.08780  0.87570  0.87340  Biso   1.000  C
  C378     1.0000 0.91220  0.37570  0.62660  Biso   1.000  C
  C379     1.0000 0.41220  0.12430  0.37340  Biso   1.000  C
  C380     1.0000 0.58780  0.62430  0.12660  Biso   1.000  C
  C381     1.0000 0.87570  0.87340  0.08780  Biso   1.000  C
  C382     1.0000 0.37570  0.62660  0.91220  Biso   1.000  C
  C383     1.0000 0.12430  0.37340  0.41220  Biso   1.000  C
  C384     1.0000 0.62430  0.12660  0.58780  Biso   1.000  C
  C385     1.0000 0.31810  0.17110  0.11340  Biso   1.000  C
  C386     1.0000 0.18190  0.82890  0.61340  Biso   1.000  C
  C387     1.0000 0.68190  0.67110  0.38660  Biso   1.000  C
  C388     1.0000 0.81810  0.32890  0.88660  Biso   1.000  C
  C389     1.0000 0.11340  0.31810  0.17110  Biso   1.000  C
  C390     1.0000 0.61340  0.18190  0.82890  Biso   1.000  C
  C391     1.0000 0.38660  0.68190  0.67110  Biso   1.000  C
  C392     1.0000 0.88660  0.81810  0.32890  Biso   1.000  C
  C393     1.0000 0.17110  0.11340  0.31810  Biso   1.000  C
  C394     1.0000 0.82890  0.61340  0.18190  Biso   1.000  C
  C395     1.0000 0.67110  0.38660  0.68190  Biso   1.000  C
  C396     1.0000 0.32890  0.88660  0.81810  Biso   1.000  C
  C397     1.0000 0.42110  0.56810  0.36340  Biso   1.000  C
  C398     1.0000 0.07890  0.43190  0.86340  Biso   1.000  C
  C399     1.0000 0.92110  0.93190  0.63660  Biso   1.000  C
  C400     1.0000 0.57890  0.06810  0.13660  Biso   1.000  C
  C401     1.0000 0.56810  0.36340  0.42110  Biso   1.000  C
  C402     1.0000 0.43190  0.86340  0.07890  Biso   1.000  C
  C403     1.0000 0.93190  0.63660  0.92110  Biso   1.000  C
  C404     1.0000 0.06810  0.13660  0.57890  Biso   1.000  C
  C405     1.0000 0.36340  0.42110  0.56810  Biso   1.000  C
  C406     1.0000 0.86340  0.07890  0.43190  Biso   1.000  C
  C407     1.0000 0.63660  0.92110  0.93190  Biso   1.000  C
  C408     1.0000 0.13660  0.57890  0.06810  Biso   1.000  C
  C409     1.0000 0.81810  0.67110  0.61340  Biso   1.000  C
  C410     1.0000 0.68190  0.32890  0.11340  Biso   1.000  C
  C411     1.0000 0.18190  0.17110  0.88660  Biso   1.000  C
  C412     1.0000 0.31810  0.82890  0.38660  Biso   1.000  C
  C413     1.0000 0.61340  0.81810  0.67110  Biso   1.000  C
  C414     1.0000 0.11340  0.68190  0.32890  Biso   1.000  C
  C415     1.0000 0.88660  0.18190  0.17110  Biso   1.000  C
  C416     1.0000 0.38660  0.31810  0.82890  Biso   1.000  C
  C417     1.0000 0.67110  0.61340  0.81810  Biso   1.000  C
  C418     1.0000 0.32890  0.11340  0.68190  Biso   1.000  C
  C419     1.0000 0.17110  0.88660  0.18190  Biso   1.000  C
  C420     1.0000 0.82890  0.38660  0.31810  Biso   1.000  C
  C421     1.0000 0.92110  0.06810  0.86340  Biso   1.000  C
  C422     1.0000 0.57890  0.93190  0.36340  Biso   1.000  C
  C423     1.0000 0.42110  0.43190  0.13660  Biso   1.000  C
  C424     1.0000 0.07890  0.56810  0.63660  Biso   1.000  C
  C425     1.0000 0.06810  0.86340  0.92110  Biso   1.000  C
  C426     1.0000 0.93190  0.36340  0.57890  Biso   1.000  C
  C427     1.0000 0.43190  0.13660  0.42110  Biso   1.000  C
  C428     1.0000 0.56810  0.63660  0.07890  Biso   1.000  C
  C429     1.0000 0.86340  0.92110  0.06810  Biso   1.000  C
  C430     1.0000 0.36340  0.57890  0.93190  Biso   1.000  C
  C431     1.0000 0.13660  0.42110  0.43190  Biso   1.000  C
  C432     1.0000 0.63660  0.07890  0.56810  Biso   1.000  C
  C433     1.0000 0.32760  0.20450  0.07130  Biso   1.000  C
  C434     1.0000 0.17240  0.79550  0.57130  Biso   1.000  C
  C435     1.0000 0.67240  0.70450  0.42870  Biso   1.000  C
  C436     1.0000 0.82760  0.29550  0.92870  Biso   1.000  C
  C437     1.0000 0.07130  0.32760  0.20450  Biso   1.000  C
  C438     1.0000 0.57130  0.17240  0.79550  Biso   1.000  C
  C439     1.0000 0.42870  0.67240  0.70450  Biso   1.000  C
  C440     1.0000 0.92870  0.82760  0.29550  Biso   1.000  C
  C441     1.0000 0.20450  0.07130  0.32760  Biso   1.000  C
  C442     1.0000 0.79550  0.57130  0.17240  Biso   1.000  C
  C443     1.0000 0.70450  0.42870  0.67240  Biso   1.000  C
  C444     1.0000 0.29550  0.92870  0.82760  Biso   1.000  C
  C445     1.0000 0.45450  0.57760  0.32130  Biso   1.000  C
  C446     1.0000 0.04550  0.42240  0.82130  Biso   1.000  C
  C447     1.0000 0.95450  0.92240  0.67870  Biso   1.000  C
  C448     1.0000 0.54550  0.07760  0.17870  Biso   1.000  C
  C449     1.0000 0.57760  0.32130  0.45450  Biso   1.000  C
  C450     1.0000 0.42240  0.82130  0.04550  Biso   1.000  C
  C451     1.0000 0.92240  0.67870  0.95450  Biso   1.000  C
  C452     1.0000 0.07760  0.17870  0.54550  Biso   1.000  C
  C453     1.0000 0.32130  0.45450  0.57760  Biso   1.000  C
  C454     1.0000 0.82130  0.04550  0.42240  Biso   1.000  C
  C455     1.0000 0.67870  0.95450  0.92240  Biso   1.000  C
  C456     1.0000 0.17870  0.54550  0.07760  Biso   1.000  C
  C457     1.0000 0.82760  0.70450  0.57130  Biso   1.000  C
  C458     1.0000 0.67240  0.29550  0.07130  Biso   1.000  C
  C459     1.0000 0.17240  0.20450  0.92870  Biso   1.000  C
  C460     1.0000 0.32760  0.79550  0.42870  Biso   1.000  C
  C461     1.0000 0.57130  0.82760  0.70450  Biso   1.000  C
  C462     1.0000 0.07130  0.67240  0.29550  Biso   1.000  C
  C463     1.0000 0.92870  0.17240  0.20450  Biso   1.000  C
  C464     1.0000 0.42870  0.32760  0.79550  Biso   1.000  C
  C465     1.0000 0.70450  0.57130  0.82760  Biso   1.000  C
  C466     1.0000 0.29550  0.07130  0.67240  Biso   1.000  C
  C467     1.0000 0.20450  0.92870  0.17240  Biso   1.000  C
  C468     1.0000 0.79550  0.42870  0.32760  Biso   1.000  C
  C469     1.0000 0.95450  0.07760  0.82130  Biso   1.000  C
  C470     1.0000 0.54550  0.92240  0.32130  Biso   1.000  C
  C471     1.0000 0.45450  0.42240  0.17870  Biso   1.000  C
  C472     1.0000 0.04550  0.57760  0.67870  Biso   1.000  C
  C473     1.0000 0.07760  0.82130  0.95450  Biso   1.000  C
  C474     1.0000 0.92240  0.32130  0.54550  Biso   1.000  C
  C475     1.0000 0.42240  0.17870  0.45450  Biso   1.000  C
  C476     1.0000 0.57760  0.67870  0.04550  Biso   1.000  C
  C477     1.0000 0.82130  0.95450  0.07760  Biso   1.000  C
  C478     1.0000 0.32130  0.54550  0.92240  Biso   1.000  C
  C479     1.0000 0.17870  0.45450  0.42240  Biso   1.000  C
  C480     1.0000 0.67870  0.04550  0.57760  Biso   1.000  C
  H433     1.0000 0.31730  0.23820  0.08010  Biso   1.000  H
  H434     1.0000 0.18270  0.76180  0.58010  Biso   1.000  H
  H435     1.0000 0.68270  0.73820  0.41990  Biso   1.000  H
  H436     1.0000 0.81730  0.26180  0.91990  Biso   1.000  H
  H437     1.0000 0.08010  0.31730  0.23820  Biso   1.000  H
  H438     1.0000 0.58010  0.18270  0.76180  Biso   1.000  H
  H439     1.0000 0.41990  0.68270  0.73820  Biso   1.000  H
  H440     1.0000 0.91990  0.81730  0.26180  Biso   1.000  H
  H441     1.0000 0.23820  0.08010  0.31730  Biso   1.000  H
  H442     1.0000 0.76180  0.58010  0.18270  Biso   1.000  H
  H443     1.0000 0.73820  0.41990  0.68270  Biso   1.000  H
  H444     1.0000 0.26180  0.91990  0.81730  Biso   1.000  H
  H445     1.0000 0.48820  0.56730  0.33010  Biso   1.000  H
  H446     1.0000 0.01180  0.43270  0.83010  Biso   1.000  H
  H447     1.0000 0.98820  0.93270  0.66990  Biso   1.000  H
  H448     1.0000 0.51180  0.06730  0.16990  Biso   1.000  H
  H449     1.0000 0.56730  0.33010  0.48820  Biso   1.000  H
  H450     1.0000 0.43270  0.83010  0.01180  Biso   1.000  H
  H451     1.0000 0.93270  0.66990  0.98820  Biso   1.000  H
  H452     1.0000 0.06730  0.16990  0.51180  Biso   1.000  H
  H453     1.0000 0.33010  0.48820  0.56730  Biso   1.000  H
  H454     1.0000 0.83010  0.01180  0.43270  Biso   1.000  H
  H455     1.0000 0.66990  0.98820  0.93270  Biso   1.000  H
  H456     1.0000 0.16990  0.51180  0.06730  Biso   1.000  H
  H457     1.0000 0.81730  0.73820  0.58010  Biso   1.000  H
  H458     1.0000 0.68270  0.26180  0.08010  Biso   1.000  H
  H459     1.0000 0.18270  0.23820  0.91990  Biso   1.000  H
  H460     1.0000 0.31730  0.76180  0.41990  Biso   1.000  H
  H461     1.0000 0.58010  0.81730  0.73820  Biso   1.000  H
  H462     1.0000 0.08010  0.68270  0.26180  Biso   1.000  H
  H463     1.0000 0.91990  0.18270  0.23820  Biso   1.000  H
  H464     1.0000 0.41990  0.31730  0.76180  Biso   1.000  H
  H465     1.0000 0.73820  0.58010  0.81730  Biso   1.000  H
  H466     1.0000 0.26180  0.08010  0.68270  Biso   1.000  H
  H467     1.0000 0.23820  0.91990  0.18270  Biso   1.000  H
  H468     1.0000 0.76180  0.41990  0.31730  Biso   1.000  H
  H469     1.0000 0.98820  0.06730  0.83010  Biso   1.000  H
  H470     1.0000 0.51180  0.93270  0.33010  Biso   1.000  H
  H471     1.0000 0.48820  0.43270  0.16990  Biso   1.000  H
  H472     1.0000 0.01180  0.56730  0.66990  Biso   1.000  H
  H473     1.0000 0.06730  0.83010  0.98820  Biso   1.000  H
  H474     1.0000 0.93270  0.33010  0.51180  Biso   1.000  H
  H475     1.0000 0.43270  0.16990  0.48820  Biso   1.000  H
  H476     1.0000 0.56730  0.66990  0.01180  Biso   1.000  H
  H477     1.0000 0.83010  0.98820  0.06730  Biso   1.000  H
  H478     1.0000 0.33010  0.51180  0.93270  Biso   1.000  H
  H479     1.0000 0.16990  0.48820  0.43270  Biso   1.000  H
  H480     1.0000 0.66990  0.01180  0.56730  Biso   1.000  H
  H481     1.0000 0.30870  0.19320  0.04240  Biso   1.000  H
  H482     1.0000 0.19130  0.80680  0.54240  Biso   1.000  H
  H483     1.0000 0.69130  0.69320  0.45760  Biso   1.000  H
  H484     1.0000 0.80870  0.30680  0.95760  Biso   1.000  H
  H485     1.0000 0.04240  0.30870  0.19320  Biso   1.000  H
  H486     1.0000 0.54240  0.19130  0.80680  Biso   1.000  H
  H487     1.0000 0.45760  0.69130  0.69320  Biso   1.000  H
  H488     1.0000 0.95760  0.80870  0.30680  Biso   1.000  H
  H489     1.0000 0.19320  0.04240  0.30870  Biso   1.000  H
  H490     1.0000 0.80680  0.54240  0.19130  Biso   1.000  H
  H491     1.0000 0.69320  0.45760  0.69130  Biso   1.000  H
  H492     1.0000 0.30680  0.95760  0.80870  Biso   1.000  H
  H493     1.0000 0.44320  0.55870  0.29240  Biso   1.000  H
  H494     1.0000 0.05680  0.44130  0.79240  Biso   1.000  H
  H495     1.0000 0.94320  0.94130  0.70760  Biso   1.000  H
  H496     1.0000 0.55680  0.05870  0.20760  Biso   1.000  H
  H497     1.0000 0.55870  0.29240  0.44320  Biso   1.000  H
  H498     1.0000 0.44130  0.79240  0.05680  Biso   1.000  H
  H499     1.0000 0.94130  0.70760  0.94320  Biso   1.000  H
  H500     1.0000 0.05870  0.20760  0.55680  Biso   1.000  H
  H501     1.0000 0.29240  0.44320  0.55870  Biso   1.000  H
  H502     1.0000 0.79240  0.05680  0.44130  Biso   1.000  H
  H503     1.0000 0.70760  0.94320  0.94130  Biso   1.000  H
  H504     1.0000 0.20760  0.55680  0.05870  Biso   1.000  H
  H505     1.0000 0.80870  0.69320  0.54240  Biso   1.000  H
  H506     1.0000 0.69130  0.30680  0.04240  Biso   1.000  H
  H507     1.0000 0.19130  0.19320  0.95760  Biso   1.000  H
  H508     1.0000 0.30870  0.80680  0.45760  Biso   1.000  H
  H509     1.0000 0.54240  0.80870  0.69320  Biso   1.000  H
  H510     1.0000 0.04240  0.69130  0.30680  Biso   1.000  H
  H511     1.0000 0.95760  0.19130  0.19320  Biso   1.000  H
  H512     1.0000 0.45760  0.30870  0.80680  Biso   1.000  H
  H513     1.0000 0.69320  0.54240  0.80870  Biso   1.000  H
  H514     1.0000 0.30680  0.04240  0.69130  Biso   1.000  H
  H515     1.0000 0.19320  0.95760  0.19130  Biso   1.000  H
  H516     1.0000 0.80680  0.45760  0.30870  Biso   1.000  H
  H517     1.0000 0.94320  0.05870  0.79240  Biso   1.000  H
  H518     1.0000 0.55680  0.94130  0.29240  Biso   1.000  H
  H519     1.0000 0.44320  0.44130  0.20760  Biso   1.000  H
  H520     1.0000 0.05680  0.55870  0.70760  Biso   1.000  H
  H521     1.0000 0.05870  0.79240  0.94320  Biso   1.000  H
  H522     1.0000 0.94130  0.29240  0.55680  Biso   1.000  H
  H523     1.0000 0.44130  0.20760  0.44320  Biso   1.000  H
  H524     1.0000 0.55870  0.70760  0.05680  Biso   1.000  H
  H525     1.0000 0.79240  0.94320  0.05870  Biso   1.000  H
  H526     1.0000 0.29240  0.55680  0.94130  Biso   1.000  H
  H527     1.0000 0.20760  0.44320  0.44130  Biso   1.000  H
  H528     1.0000 0.70760  0.05680  0.55870  Biso   1.000  H
  H529     1.0000 0.36310  0.20430  0.06350  Biso   1.000  H
  H530     1.0000 0.13690  0.79570  0.56350  Biso   1.000  H
  H531     1.0000 0.63690  0.70430  0.43650  Biso   1.000  H
  H532     1.0000 0.86310  0.29570  0.93650  Biso   1.000  H
  H533     1.0000 0.06350  0.36310  0.20430  Biso   1.000  H
  H534     1.0000 0.56350  0.13690  0.79570  Biso   1.000  H
  H535     1.0000 0.43650  0.63690  0.70430  Biso   1.000  H
  H536     1.0000 0.93650  0.86310  0.29570  Biso   1.000  H
  H537     1.0000 0.20430  0.06350  0.36310  Biso   1.000  H
  H538     1.0000 0.79570  0.56350  0.13690  Biso   1.000  H
  H539     1.0000 0.70430  0.43650  0.63690  Biso   1.000  H
  H540     1.0000 0.29570  0.93650  0.86310  Biso   1.000  H
  H541     1.0000 0.45430  0.61310  0.31350  Biso   1.000  H
  H542     1.0000 0.04570  0.38690  0.81350  Biso   1.000  H
  H543     1.0000 0.95430  0.88690  0.68650  Biso   1.000  H
  H544     1.0000 0.54570  0.11310  0.18650  Biso   1.000  H
  H545     1.0000 0.61310  0.31350  0.45430  Biso   1.000  H
  H546     1.0000 0.38690  0.81350  0.04570  Biso   1.000  H
  H547     1.0000 0.88690  0.68650  0.95430  Biso   1.000  H
  H548     1.0000 0.11310  0.18650  0.54570  Biso   1.000  H
  H549     1.0000 0.31350  0.45430  0.61310  Biso   1.000  H
  H550     1.0000 0.81350  0.04570  0.38690  Biso   1.000  H
  H551     1.0000 0.68650  0.95430  0.88690  Biso   1.000  H
  H552     1.0000 0.18650  0.54570  0.11310  Biso   1.000  H
  H553     1.0000 0.86310  0.70430  0.56350  Biso   1.000  H
  H554     1.0000 0.63690  0.29570  0.06350  Biso   1.000  H
  H555     1.0000 0.13690  0.20430  0.93650  Biso   1.000  H
  H556     1.0000 0.36310  0.79570  0.43650  Biso   1.000  H
  H557     1.0000 0.56350  0.86310  0.70430  Biso   1.000  H
  H558     1.0000 0.06350  0.63690  0.29570  Biso   1.000  H
  H559     1.0000 0.93650  0.13690  0.20430  Biso   1.000  H
  H560     1.0000 0.43650  0.36310  0.79570  Biso   1.000  H
  H561     1.0000 0.70430  0.56350  0.86310  Biso   1.000  H
  H562     1.0000 0.29570  0.06350  0.63690  Biso   1.000  H
  H563     1.0000 0.20430  0.93650  0.13690  Biso   1.000  H
  H564     1.0000 0.79570  0.43650  0.36310  Biso   1.000  H
  H565     1.0000 0.95430  0.11310  0.81350  Biso   1.000  H
  H566     1.0000 0.54570  0.88690  0.31350  Biso   1.000  H
  H567     1.0000 0.45430  0.38690  0.18650  Biso   1.000  H
  H568     1.0000 0.04570  0.61310  0.68650  Biso   1.000  H
  H569     1.0000 0.11310  0.81350  0.95430  Biso   1.000  H
  H570     1.0000 0.88690  0.31350  0.54570  Biso   1.000  H
  H571     1.0000 0.38690  0.18650  0.45430  Biso   1.000  H
  H572     1.0000 0.61310  0.68650  0.04570  Biso   1.000  H
  H573     1.0000 0.81350  0.95430  0.11310  Biso   1.000  H
  H574     1.0000 0.31350  0.54570  0.88690  Biso   1.000  H
  H575     1.0000 0.18650  0.45430  0.38690  Biso   1.000  H
  H576     1.0000 0.68650  0.04570  0.61310  Biso   1.000  H
