data_image0
_cell_length_a       14.272
_cell_length_b       24.516
_cell_length_c       21.64
_cell_angle_alpha    90
_cell_angle_beta     97.075
_cell_angle_gamma    90

_symmetry_space_group_name_H-M    "P 1"
_symmetry_int_tables_number       1

loop_
  _symmetry_equiv_pos_as_xyz
  'x, y, z'

loop_
  _atom_site_label
  _atom_site_occupancy
  _atom_site_fract_x
  _atom_site_fract_y
  _atom_site_fract_z
  _atom_site_thermal_displace_type
  _atom_site_B_iso_or_equiv
  _atom_site_type_symbol
  Cu1      1.0000 0.89096  0.12383  0.57040  Biso   1.000  Cu
  Cu2      1.0000 0.10904  0.12383  0.92960  Biso   1.000  Cu
  Cu3      1.0000 0.39096  0.62383  0.57040  Biso   1.000  Cu
  Cu4      1.0000 0.60904  0.62383  0.92960  Biso   1.000  Cu
  Cu5      1.0000 0.10904  0.87617  0.42960  Biso   1.000  Cu
  Cu6      1.0000 0.89096  0.87617  0.07040  Biso   1.000  Cu
  Cu7      1.0000 0.60904  0.37617  0.42960  Biso   1.000  Cu
  Cu8      1.0000 0.39096  0.37617  0.07040  Biso   1.000  Cu
  C1       1.0000 0.84883  0.31815  0.88784  Biso   1.000  C
  C2       1.0000 0.15117  0.31815  0.61216  Biso   1.000  C
  C3       1.0000 0.34883  0.81815  0.88784  Biso   1.000  C
  C4       1.0000 0.65117  0.81815  0.61216  Biso   1.000  C
  C5       1.0000 0.15117  0.68185  0.11216  Biso   1.000  C
  C6       1.0000 0.84883  0.68185  0.38784  Biso   1.000  C
  C7       1.0000 0.65117  0.18185  0.11216  Biso   1.000  C
  C8       1.0000 0.34883  0.18185  0.38784  Biso   1.000  C
  C9       1.0000 0.85656  0.30073  0.81949  Biso   1.000  C
  C10      1.0000 0.14344  0.30073  0.68051  Biso   1.000  C
  C11      1.0000 0.35656  0.80073  0.81949  Biso   1.000  C
  C12      1.0000 0.64344  0.80073  0.68051  Biso   1.000  C
  C13      1.0000 0.14344  0.69927  0.18051  Biso   1.000  C
  C14      1.0000 0.85656  0.69927  0.31949  Biso   1.000  C
  C15      1.0000 0.64344  0.19927  0.18051  Biso   1.000  C
  C16      1.0000 0.35656  0.19927  0.31949  Biso   1.000  C
  H1       1.0000 0.80220  0.31450  0.79180  Biso   1.000  H
  H2       1.0000 0.19780  0.31450  0.70820  Biso   1.000  H
  H3       1.0000 0.30220  0.81450  0.79180  Biso   1.000  H
  H4       1.0000 0.69780  0.81450  0.70820  Biso   1.000  H
  H5       1.0000 0.19780  0.68550  0.20820  Biso   1.000  H
  H6       1.0000 0.80220  0.68550  0.29180  Biso   1.000  H
  H7       1.0000 0.69780  0.18550  0.20820  Biso   1.000  H
  H8       1.0000 0.30220  0.18550  0.29180  Biso   1.000  H
  H9       1.0000 0.91420  0.31590  0.80590  Biso   1.000  H
  H10      1.0000 0.08580  0.31590  0.69410  Biso   1.000  H
  H11      1.0000 0.41420  0.81590  0.80590  Biso   1.000  H
  H12      1.0000 0.58580  0.81590  0.69410  Biso   1.000  H
  H13      1.0000 0.08580  0.68410  0.19410  Biso   1.000  H
  H14      1.0000 0.91420  0.68410  0.30590  Biso   1.000  H
  H15      1.0000 0.58580  0.18410  0.19410  Biso   1.000  H
  H16      1.0000 0.41420  0.18410  0.30590  Biso   1.000  H
  O1       1.0000 0.85885  0.24296  0.81703  Biso   1.000  O
  O2       1.0000 0.14115  0.24296  0.68297  Biso   1.000  O
  O3       1.0000 0.35885  0.74296  0.81703  Biso   1.000  O
  O4       1.0000 0.64115  0.74296  0.68297  Biso   1.000  O
  O5       1.0000 0.14115  0.75704  0.18297  Biso   1.000  O
  O6       1.0000 0.85885  0.75704  0.31703  Biso   1.000  O
  O7       1.0000 0.64115  0.25704  0.18297  Biso   1.000  O
  O8       1.0000 0.35885  0.25704  0.31703  Biso   1.000  O
  C17      1.0000 0.86785  0.21731  0.76156  Biso   1.000  C
  C18      1.0000 0.13215  0.21731  0.73844  Biso   1.000  C
  C19      1.0000 0.36785  0.71731  0.76156  Biso   1.000  C
  C20      1.0000 0.63215  0.71731  0.73844  Biso   1.000  C
  C21      1.0000 0.13215  0.78269  0.23844  Biso   1.000  C
  C22      1.0000 0.86785  0.78269  0.26156  Biso   1.000  C
  C23      1.0000 0.63215  0.28269  0.23844  Biso   1.000  C
  C24      1.0000 0.36785  0.28269  0.26156  Biso   1.000  C
  C25      1.0000 0.87905  0.24795  0.71014  Biso   1.000  C
  C26      1.0000 0.12095  0.24795  0.78986  Biso   1.000  C
  C27      1.0000 0.37905  0.74795  0.71014  Biso   1.000  C
  C28      1.0000 0.62095  0.74795  0.78986  Biso   1.000  C
  C29      1.0000 0.12095  0.75205  0.28986  Biso   1.000  C
  C30      1.0000 0.87905  0.75205  0.21014  Biso   1.000  C
  C31      1.0000 0.62095  0.25205  0.28986  Biso   1.000  C
  C32      1.0000 0.37905  0.25205  0.21014  Biso   1.000  C
  H17      1.0000 0.88090  0.28630  0.71150  Biso   1.000  H
  H18      1.0000 0.11910  0.28630  0.78850  Biso   1.000  H
  H19      1.0000 0.38090  0.78630  0.71150  Biso   1.000  H
  H20      1.0000 0.61910  0.78630  0.78850  Biso   1.000  H
  H21      1.0000 0.11910  0.71370  0.28850  Biso   1.000  H
  H22      1.0000 0.88090  0.71370  0.21150  Biso   1.000  H
  H23      1.0000 0.61910  0.21370  0.28850  Biso   1.000  H
  H24      1.0000 0.38090  0.21370  0.21150  Biso   1.000  H
  C33      1.0000 0.88709  0.22062  0.65841  Biso   1.000  C
  C34      1.0000 0.11291  0.22062  0.84159  Biso   1.000  C
  C35      1.0000 0.38709  0.72062  0.65841  Biso   1.000  C
  C36      1.0000 0.61291  0.72062  0.84159  Biso   1.000  C
  C37      1.0000 0.11291  0.77938  0.34159  Biso   1.000  C
  C38      1.0000 0.88709  0.77938  0.15841  Biso   1.000  C
  C39      1.0000 0.61291  0.27938  0.34159  Biso   1.000  C
  C40      1.0000 0.38709  0.27938  0.15841  Biso   1.000  C
  H25      1.0000 0.89130  0.24110  0.62210  Biso   1.000  H
  H26      1.0000 0.10870  0.24110  0.87790  Biso   1.000  H
  H27      1.0000 0.39130  0.74110  0.62210  Biso   1.000  H
  H28      1.0000 0.60870  0.74110  0.87790  Biso   1.000  H
  H29      1.0000 0.10870  0.75890  0.37790  Biso   1.000  H
  H30      1.0000 0.89130  0.75890  0.12210  Biso   1.000  H
  H31      1.0000 0.60870  0.25890  0.37790  Biso   1.000  H
  H32      1.0000 0.39130  0.25890  0.12210  Biso   1.000  H
  N1       1.0000 0.88978  0.16665  0.65346  Biso   1.000  N
  N2       1.0000 0.11022  0.16665  0.84654  Biso   1.000  N
  N3       1.0000 0.38978  0.66665  0.65346  Biso   1.000  N
  N4       1.0000 0.61022  0.66665  0.84654  Biso   1.000  N
  N5       1.0000 0.11022  0.83335  0.34654  Biso   1.000  N
  N6       1.0000 0.88978  0.83335  0.15346  Biso   1.000  N
  N7       1.0000 0.61022  0.33335  0.34654  Biso   1.000  N
  N8       1.0000 0.38978  0.33335  0.15346  Biso   1.000  N
  C41      1.0000 0.87785  0.13768  0.70409  Biso   1.000  C
  C42      1.0000 0.12215  0.13768  0.79591  Biso   1.000  C
  C43      1.0000 0.37785  0.63768  0.70409  Biso   1.000  C
  C44      1.0000 0.62215  0.63768  0.79591  Biso   1.000  C
  C45      1.0000 0.12215  0.86232  0.29591  Biso   1.000  C
  C46      1.0000 0.87785  0.86232  0.20409  Biso   1.000  C
  C47      1.0000 0.62215  0.36232  0.29591  Biso   1.000  C
  C48      1.0000 0.37785  0.36232  0.20409  Biso   1.000  C
  H33      1.0000 0.87470  0.09950  0.70110  Biso   1.000  H
  H34      1.0000 0.12530  0.09950  0.79890  Biso   1.000  H
  H35      1.0000 0.37470  0.59950  0.70110  Biso   1.000  H
  H36      1.0000 0.62530  0.59950  0.79890  Biso   1.000  H
  H37      1.0000 0.12530  0.90050  0.29890  Biso   1.000  H
  H38      1.0000 0.87470  0.90050  0.20110  Biso   1.000  H
  H39      1.0000 0.62530  0.40050  0.29890  Biso   1.000  H
  H40      1.0000 0.37470  0.40050  0.20110  Biso   1.000  H
  C49      1.0000 0.86984  0.16237  0.76149  Biso   1.000  C
  C50      1.0000 0.13016  0.16237  0.73851  Biso   1.000  C
  C51      1.0000 0.36984  0.66237  0.76149  Biso   1.000  C
  C52      1.0000 0.63016  0.66237  0.73851  Biso   1.000  C
  C53      1.0000 0.13016  0.83763  0.23851  Biso   1.000  C
  C54      1.0000 0.86984  0.83763  0.26149  Biso   1.000  C
  C55      1.0000 0.63016  0.33763  0.23851  Biso   1.000  C
  C56      1.0000 0.36984  0.33763  0.26149  Biso   1.000  C
  H41      1.0000 0.86610  0.14190  0.79780  Biso   1.000  H
  H42      1.0000 0.13390  0.14190  0.70220  Biso   1.000  H
  H43      1.0000 0.36610  0.64190  0.79780  Biso   1.000  H
  H44      1.0000 0.63390  0.64190  0.70220  Biso   1.000  H
  H45      1.0000 0.13390  0.85810  0.20220  Biso   1.000  H
  H46      1.0000 0.86610  0.85810  0.29780  Biso   1.000  H
  H47      1.0000 0.63390  0.35810  0.20220  Biso   1.000  H
  H48      1.0000 0.36610  0.35810  0.29780  Biso   1.000  H
  C57      1.0000 0.84381  0.38060  0.89258  Biso   1.000  C
  C58      1.0000 0.15619  0.38060  0.60742  Biso   1.000  C
  C59      1.0000 0.34381  0.88060  0.89258  Biso   1.000  C
  C60      1.0000 0.65619  0.88060  0.60742  Biso   1.000  C
  C61      1.0000 0.15619  0.61940  0.10742  Biso   1.000  C
  C62      1.0000 0.84381  0.61940  0.39258  Biso   1.000  C
  C63      1.0000 0.65619  0.11940  0.10742  Biso   1.000  C
  C64      1.0000 0.34381  0.11940  0.39258  Biso   1.000  C
  H49      1.0000 0.86060  0.39230  0.93580  Biso   1.000  H
  H50      1.0000 0.13940  0.39230  0.56420  Biso   1.000  H
  H51      1.0000 0.36060  0.89230  0.93580  Biso   1.000  H
  H52      1.0000 0.63940  0.89230  0.56420  Biso   1.000  H
  H53      1.0000 0.13940  0.60770  0.06420  Biso   1.000  H
  H54      1.0000 0.86060  0.60770  0.43580  Biso   1.000  H
  H55      1.0000 0.63940  0.10770  0.06420  Biso   1.000  H
  H56      1.0000 0.36060  0.10770  0.43580  Biso   1.000  H
  H57      1.0000 0.88770  0.39760  0.86690  Biso   1.000  H
  H58      1.0000 0.11230  0.39760  0.63310  Biso   1.000  H
  H59      1.0000 0.38770  0.89760  0.86690  Biso   1.000  H
  H60      1.0000 0.61230  0.89760  0.63310  Biso   1.000  H
  H61      1.0000 0.11230  0.60240  0.13310  Biso   1.000  H
  H62      1.0000 0.88770  0.60240  0.36690  Biso   1.000  H
  H63      1.0000 0.61230  0.10240  0.13310  Biso   1.000  H
  H64      1.0000 0.38770  0.10240  0.36690  Biso   1.000  H
  O9       1.0000 0.74677  0.39630  0.87039  Biso   1.000  O
  O10      1.0000 0.25323  0.39630  0.62961  Biso   1.000  O
  O11      1.0000 0.24677  0.89630  0.87039  Biso   1.000  O
  O12      1.0000 0.75323  0.89630  0.62961  Biso   1.000  O
  O13      1.0000 0.25323  0.60370  0.12961  Biso   1.000  O
  O14      1.0000 0.74677  0.60370  0.37039  Biso   1.000  O
  O15      1.0000 0.75323  0.10370  0.12961  Biso   1.000  O
  O16      1.0000 0.24677  0.10370  0.37039  Biso   1.000  O
  C65      1.0000 0.72316  0.44526  0.88517  Biso   1.000  C
  C66      1.0000 0.27684  0.44526  0.61483  Biso   1.000  C
  C67      1.0000 0.22316  0.94526  0.88517  Biso   1.000  C
  C68      1.0000 0.77684  0.94526  0.61483  Biso   1.000  C
  C69      1.0000 0.27684  0.55474  0.11483  Biso   1.000  C
  C70      1.0000 0.72316  0.55474  0.38517  Biso   1.000  C
  C71      1.0000 0.77684  0.05474  0.11483  Biso   1.000  C
  C72      1.0000 0.22316  0.05474  0.38517  Biso   1.000  C
  C73      1.0000 0.62825  0.45403  0.87998  Biso   1.000  C
  C74      1.0000 0.37175  0.45403  0.62002  Biso   1.000  C
  C75      1.0000 0.12825  0.95403  0.87998  Biso   1.000  C
  C76      1.0000 0.87175  0.95403  0.62002  Biso   1.000  C
  C77      1.0000 0.37175  0.54597  0.12002  Biso   1.000  C
  C78      1.0000 0.62825  0.54597  0.37998  Biso   1.000  C
  C79      1.0000 0.87175  0.04597  0.12002  Biso   1.000  C
  C80      1.0000 0.12825  0.04597  0.37998  Biso   1.000  C
  H65      1.0000 0.58530  0.42640  0.86580  Biso   1.000  H
  H66      1.0000 0.41470  0.42640  0.63420  Biso   1.000  H
  H67      1.0000 0.08530  0.92640  0.86580  Biso   1.000  H
  H68      1.0000 0.91470  0.92640  0.63420  Biso   1.000  H
  H69      1.0000 0.41470  0.57360  0.13420  Biso   1.000  H
  H70      1.0000 0.58530  0.57360  0.36580  Biso   1.000  H
  H71      1.0000 0.91470  0.07360  0.13420  Biso   1.000  H
  H72      1.0000 0.08530  0.07360  0.36580  Biso   1.000  H
  C81      1.0000 0.59712  0.50482  0.89611  Biso   1.000  C
  C82      1.0000 0.40288  0.50482  0.60389  Biso   1.000  C
  C83      1.0000 0.09712  0.00482  0.89611  Biso   1.000  C
  C84      1.0000 0.90288  0.00482  0.60389  Biso   1.000  C
  C85      1.0000 0.40288  0.49518  0.10389  Biso   1.000  C
  C86      1.0000 0.59712  0.49518  0.39611  Biso   1.000  C
  C87      1.0000 0.90288  0.99518  0.10389  Biso   1.000  C
  C88      1.0000 0.09712  0.99518  0.39611  Biso   1.000  C
  H73      1.0000 0.53150  0.50990  0.89400  Biso   1.000  H
  H74      1.0000 0.46850  0.50990  0.60600  Biso   1.000  H
  H75      1.0000 0.03150  0.00990  0.89400  Biso   1.000  H
  H76      1.0000 0.96850  0.00990  0.60600  Biso   1.000  H
  H77      1.0000 0.46850  0.49010  0.10600  Biso   1.000  H
  H78      1.0000 0.53150  0.49010  0.39400  Biso   1.000  H
  H79      1.0000 0.96850  0.99010  0.10600  Biso   1.000  H
  H80      1.0000 0.03150  0.99010  0.39400  Biso   1.000  H
  N9       1.0000 0.65227  0.54753  0.91446  Biso   1.000  N
  N10      1.0000 0.34773  0.54753  0.58554  Biso   1.000  N
  N11      1.0000 0.15227  0.04753  0.91446  Biso   1.000  N
  N12      1.0000 0.84773  0.04753  0.58554  Biso   1.000  N
  N13      1.0000 0.34773  0.45247  0.08554  Biso   1.000  N
  N14      1.0000 0.65227  0.45247  0.41446  Biso   1.000  N
  N15      1.0000 0.84773  0.95247  0.08554  Biso   1.000  N
  N16      1.0000 0.15227  0.95247  0.41446  Biso   1.000  N
  C89      1.0000 0.74833  0.53665  0.91860  Biso   1.000  C
  C90      1.0000 0.25167  0.53665  0.58140  Biso   1.000  C
  C91      1.0000 0.24833  0.03665  0.91860  Biso   1.000  C
  C92      1.0000 0.75167  0.03665  0.58140  Biso   1.000  C
  C93      1.0000 0.25167  0.46335  0.08140  Biso   1.000  C
  C94      1.0000 0.74833  0.46335  0.41860  Biso   1.000  C
  C95      1.0000 0.75167  0.96335  0.08140  Biso   1.000  C
  C96      1.0000 0.24833  0.96335  0.41860  Biso   1.000  C
  H81      1.0000 0.79190  0.56400  0.93280  Biso   1.000  H
  H82      1.0000 0.20810  0.56400  0.56720  Biso   1.000  H
  H83      1.0000 0.29190  0.06400  0.93280  Biso   1.000  H
  H84      1.0000 0.70810  0.06400  0.56720  Biso   1.000  H
  H85      1.0000 0.20810  0.43600  0.06720  Biso   1.000  H
  H86      1.0000 0.79190  0.43600  0.43280  Biso   1.000  H
  H87      1.0000 0.70810  0.93600  0.06720  Biso   1.000  H
  H88      1.0000 0.29190  0.93600  0.43280  Biso   1.000  H
  C97      1.0000 0.78127  0.48594  0.90208  Biso   1.000  C
  C98      1.0000 0.21873  0.48594  0.59792  Biso   1.000  C
  C99      1.0000 0.28127  0.98594  0.90208  Biso   1.000  C
  C100     1.0000 0.71873  0.98594  0.59792  Biso   1.000  C
  C101     1.0000 0.21873  0.51406  0.09792  Biso   1.000  C
  C102     1.0000 0.78127  0.51406  0.40208  Biso   1.000  C
  C103     1.0000 0.71873  0.01406  0.09792  Biso   1.000  C
  C104     1.0000 0.28127  0.01406  0.40208  Biso   1.000  C
  H89      1.0000 0.84660  0.48050  0.90300  Biso   1.000  H
  H90      1.0000 0.15340  0.48050  0.59700  Biso   1.000  H
  H91      1.0000 0.34660  0.98050  0.90300  Biso   1.000  H
  H92      1.0000 0.65340  0.98050  0.59700  Biso   1.000  H
  H93      1.0000 0.15340  0.51950  0.09700  Biso   1.000  H
  H94      1.0000 0.84660  0.51950  0.40300  Biso   1.000  H
  H95      1.0000 0.65340  0.01950  0.09700  Biso   1.000  H
  H96      1.0000 0.34660  0.01950  0.40300  Biso   1.000  H
  C105     1.0000 0.76529  0.29119  0.90928  Biso   1.000  C
  C106     1.0000 0.23471  0.29119  0.59072  Biso   1.000  C
  C107     1.0000 0.26529  0.79119  0.90928  Biso   1.000  C
  C108     1.0000 0.73471  0.79119  0.59072  Biso   1.000  C
  C109     1.0000 0.23471  0.70881  0.09072  Biso   1.000  C
  C110     1.0000 0.76529  0.70881  0.40928  Biso   1.000  C
  C111     1.0000 0.73471  0.20881  0.09072  Biso   1.000  C
  C112     1.0000 0.26529  0.20881  0.40928  Biso   1.000  C
  H97      1.0000 0.70760  0.30030  0.88180  Biso   1.000  H
  H98      1.0000 0.29240  0.30030  0.61820  Biso   1.000  H
  H99      1.0000 0.20760  0.80030  0.88180  Biso   1.000  H
  H100     1.0000 0.79240  0.80030  0.61820  Biso   1.000  H
  H101     1.0000 0.29240  0.69970  0.11820  Biso   1.000  H
  H102     1.0000 0.70760  0.69970  0.38180  Biso   1.000  H
  H103     1.0000 0.79240  0.19970  0.11820  Biso   1.000  H
  H104     1.0000 0.20760  0.19970  0.38180  Biso   1.000  H
  H105     1.0000 0.77300  0.25150  0.91030  Biso   1.000  H
  H106     1.0000 0.22700  0.25150  0.58970  Biso   1.000  H
  H107     1.0000 0.27300  0.75150  0.91030  Biso   1.000  H
  H108     1.0000 0.72700  0.75150  0.58970  Biso   1.000  H
  H109     1.0000 0.22700  0.74850  0.08970  Biso   1.000  H
  H110     1.0000 0.77300  0.74850  0.41030  Biso   1.000  H
  H111     1.0000 0.72700  0.24850  0.08970  Biso   1.000  H
  H112     1.0000 0.27300  0.24850  0.41030  Biso   1.000  H
  O17      1.0000 0.76151  0.31265  0.97169  Biso   1.000  O
  O18      1.0000 0.23849  0.31265  0.52831  Biso   1.000  O
  O19      1.0000 0.26151  0.81265  0.97169  Biso   1.000  O
  O20      1.0000 0.73849  0.81265  0.52831  Biso   1.000  O
  O21      1.0000 0.23849  0.68735  0.02831  Biso   1.000  O
  O22      1.0000 0.76151  0.68735  0.47169  Biso   1.000  O
  O23      1.0000 0.73849  0.18735  0.02831  Biso   1.000  O
  O24      1.0000 0.26151  0.18735  0.47169  Biso   1.000  O
  C113     1.0000 0.67858  0.32714  0.99051  Biso   1.000  C
  C114     1.0000 0.32142  0.32714  0.50949  Biso   1.000  C
  C115     1.0000 0.17858  0.82714  0.99051  Biso   1.000  C
  C116     1.0000 0.82142  0.82714  0.50949  Biso   1.000  C
  C117     1.0000 0.32142  0.67286  0.00949  Biso   1.000  C
  C118     1.0000 0.67858  0.67286  0.49051  Biso   1.000  C
  C119     1.0000 0.82142  0.17286  0.00949  Biso   1.000  C
  C120     1.0000 0.17858  0.17286  0.49051  Biso   1.000  C
  C121     1.0000 0.59500  0.31209  0.95748  Biso   1.000  C
  C122     1.0000 0.40500  0.31209  0.54252  Biso   1.000  C
  C123     1.0000 0.09500  0.81209  0.95748  Biso   1.000  C
  C124     1.0000 0.90500  0.81209  0.54252  Biso   1.000  C
  C125     1.0000 0.40500  0.68791  0.04252  Biso   1.000  C
  C126     1.0000 0.59500  0.68791  0.45748  Biso   1.000  C
  C127     1.0000 0.90500  0.18791  0.04252  Biso   1.000  C
  C128     1.0000 0.09500  0.18791  0.45748  Biso   1.000  C
  H113     1.0000 0.59300  0.29080  0.92120  Biso   1.000  H
  H114     1.0000 0.40700  0.29080  0.57880  Biso   1.000  H
  H115     1.0000 0.09300  0.79080  0.92120  Biso   1.000  H
  H116     1.0000 0.90700  0.79080  0.57880  Biso   1.000  H
  H117     1.0000 0.40700  0.70920  0.07880  Biso   1.000  H
  H118     1.0000 0.59300  0.70920  0.42120  Biso   1.000  H
  H119     1.0000 0.90700  0.20920  0.07880  Biso   1.000  H
  H120     1.0000 0.09300  0.20920  0.42120  Biso   1.000  H
  C129     1.0000 0.51276  0.32972  0.97979  Biso   1.000  C
  C130     1.0000 0.48724  0.32972  0.52021  Biso   1.000  C
  C131     1.0000 0.01276  0.82972  0.97979  Biso   1.000  C
  C132     1.0000 0.98724  0.82972  0.52021  Biso   1.000  C
  C133     1.0000 0.48724  0.67028  0.02021  Biso   1.000  C
  C134     1.0000 0.51276  0.67028  0.47979  Biso   1.000  C
  C135     1.0000 0.98724  0.17028  0.02021  Biso   1.000  C
  C136     1.0000 0.01276  0.17028  0.47979  Biso   1.000  C
  H121     1.0000 0.45510  0.31950  0.95690  Biso   1.000  H
  H122     1.0000 0.54490  0.31950  0.54310  Biso   1.000  H
  H123     1.0000 0.95510  0.81950  0.95690  Biso   1.000  H
  H124     1.0000 0.04490  0.81950  0.54310  Biso   1.000  H
  H125     1.0000 0.54490  0.68050  0.04310  Biso   1.000  H
  H126     1.0000 0.45510  0.68050  0.45690  Biso   1.000  H
  H127     1.0000 0.04490  0.18050  0.04310  Biso   1.000  H
  H128     1.0000 0.95510  0.18050  0.45690  Biso   1.000  H
  N17      1.0000 0.50836  0.36000  0.03112  Biso   1.000  N
  N18      1.0000 0.49164  0.36000  0.46888  Biso   1.000  N
  N19      1.0000 0.00836  0.86000  0.03112  Biso   1.000  N
  N20      1.0000 0.99164  0.86000  0.46888  Biso   1.000  N
  N21      1.0000 0.49164  0.64000  0.96888  Biso   1.000  N
  N22      1.0000 0.50836  0.64000  0.53112  Biso   1.000  N
  N23      1.0000 0.99164  0.14000  0.96888  Biso   1.000  N
  N24      1.0000 0.00836  0.14000  0.53112  Biso   1.000  N
  C137     1.0000 0.59321  0.37366  0.06080  Biso   1.000  C
  C138     1.0000 0.40679  0.37366  0.43920  Biso   1.000  C
  C139     1.0000 0.09321  0.87366  0.06080  Biso   1.000  C
  C140     1.0000 0.90679  0.87366  0.43920  Biso   1.000  C
  C141     1.0000 0.40679  0.62634  0.93920  Biso   1.000  C
  C142     1.0000 0.59321  0.62634  0.56080  Biso   1.000  C
  C143     1.0000 0.90679  0.12634  0.93920  Biso   1.000  C
  C144     1.0000 0.09321  0.12634  0.56080  Biso   1.000  C
  H129     1.0000 0.59440  0.39460  0.09730  Biso   1.000  H
  H130     1.0000 0.40560  0.39460  0.40270  Biso   1.000  H
  H131     1.0000 0.09440  0.89460  0.09730  Biso   1.000  H
  H132     1.0000 0.90560  0.89460  0.40270  Biso   1.000  H
  H133     1.0000 0.40560  0.60540  0.90270  Biso   1.000  H
  H134     1.0000 0.59440  0.60540  0.59730  Biso   1.000  H
  H135     1.0000 0.90560  0.10540  0.90270  Biso   1.000  H
  H136     1.0000 0.09440  0.10540  0.59730  Biso   1.000  H
  C145     1.0000 0.67770  0.35954  0.04225  Biso   1.000  C
  C146     1.0000 0.32230  0.35954  0.45775  Biso   1.000  C
  C147     1.0000 0.17770  0.85954  0.04225  Biso   1.000  C
  C148     1.0000 0.82230  0.85954  0.45775  Biso   1.000  C
  C149     1.0000 0.32230  0.64046  0.95775  Biso   1.000  C
  C150     1.0000 0.67770  0.64046  0.54225  Biso   1.000  C
  C151     1.0000 0.82230  0.14046  0.95775  Biso   1.000  C
  C152     1.0000 0.17770  0.14046  0.54225  Biso   1.000  C
  H137     1.0000 0.73450  0.37180  0.06450  Biso   1.000  H
  H138     1.0000 0.26550  0.37180  0.43550  Biso   1.000  H
  H139     1.0000 0.23450  0.87180  0.06450  Biso   1.000  H
  H140     1.0000 0.76550  0.87180  0.43550  Biso   1.000  H
  H141     1.0000 0.26550  0.62820  0.93550  Biso   1.000  H
  H142     1.0000 0.73450  0.62820  0.56450  Biso   1.000  H
  H143     1.0000 0.76550  0.12820  0.93550  Biso   1.000  H
  H144     1.0000 0.23450  0.12820  0.56450  Biso   1.000  H
  C153     1.0000 0.93852  0.30011  0.92707  Biso   1.000  C
  C154     1.0000 0.06148  0.30011  0.57293  Biso   1.000  C
  C155     1.0000 0.43852  0.80011  0.92707  Biso   1.000  C
  C156     1.0000 0.56148  0.80011  0.57293  Biso   1.000  C
  C157     1.0000 0.06148  0.69989  0.07293  Biso   1.000  C
  C158     1.0000 0.93852  0.69989  0.42707  Biso   1.000  C
  C159     1.0000 0.56148  0.19989  0.07293  Biso   1.000  C
  C160     1.0000 0.43852  0.19989  0.42707  Biso   1.000  C
  H145     1.0000 0.93560  0.30860  0.97100  Biso   1.000  H
  H146     1.0000 0.06440  0.30860  0.52900  Biso   1.000  H
  H147     1.0000 0.43560  0.80860  0.97100  Biso   1.000  H
  H148     1.0000 0.56440  0.80860  0.52900  Biso   1.000  H
  H149     1.0000 0.06440  0.69140  0.02900  Biso   1.000  H
  H150     1.0000 0.93560  0.69140  0.47100  Biso   1.000  H
  H151     1.0000 0.56440  0.19140  0.02900  Biso   1.000  H
  H152     1.0000 0.43560  0.19140  0.47100  Biso   1.000  H
  H153     1.0000 0.94760  0.26070  0.92290  Biso   1.000  H
  H154     1.0000 0.05240  0.26070  0.57710  Biso   1.000  H
  H155     1.0000 0.44760  0.76070  0.92290  Biso   1.000  H
  H156     1.0000 0.55240  0.76070  0.57710  Biso   1.000  H
  H157     1.0000 0.05240  0.73930  0.07710  Biso   1.000  H
  H158     1.0000 0.94760  0.73930  0.42290  Biso   1.000  H
  H159     1.0000 0.55240  0.23930  0.07710  Biso   1.000  H
  H160     1.0000 0.44760  0.23930  0.42290  Biso   1.000  H
  O25      1.0000 0.01410  0.32935  0.90448  Biso   1.000  O
  O26      1.0000 0.98590  0.32935  0.59552  Biso   1.000  O
  O27      1.0000 0.51410  0.82935  0.90448  Biso   1.000  O
  O28      1.0000 0.48590  0.82935  0.59552  Biso   1.000  O
  O29      1.0000 0.98590  0.67065  0.09552  Biso   1.000  O
  O30      1.0000 0.01410  0.67065  0.40448  Biso   1.000  O
  O31      1.0000 0.48590  0.17065  0.09552  Biso   1.000  O
  O32      1.0000 0.51410  0.17065  0.40448  Biso   1.000  O
  C161     1.0000 0.09873  0.33180  0.94219  Biso   1.000  C
  C162     1.0000 0.90127  0.33180  0.55781  Biso   1.000  C
  C163     1.0000 0.59873  0.83180  0.94219  Biso   1.000  C
  C164     1.0000 0.40127  0.83180  0.55781  Biso   1.000  C
  C165     1.0000 0.90127  0.66820  0.05781  Biso   1.000  C
  C166     1.0000 0.09873  0.66820  0.44219  Biso   1.000  C
  C167     1.0000 0.40127  0.16820  0.05781  Biso   1.000  C
  C168     1.0000 0.59873  0.16820  0.44219  Biso   1.000  C
  C169     1.0000 0.16848  0.36283  0.91982  Biso   1.000  C
  C170     1.0000 0.83152  0.36283  0.58018  Biso   1.000  C
  C171     1.0000 0.66848  0.86283  0.91982  Biso   1.000  C
  C172     1.0000 0.33152  0.86283  0.58018  Biso   1.000  C
  C173     1.0000 0.83152  0.63717  0.08018  Biso   1.000  C
  C174     1.0000 0.16848  0.63717  0.41982  Biso   1.000  C
  C175     1.0000 0.33152  0.13717  0.08018  Biso   1.000  C
  C176     1.0000 0.66848  0.13717  0.41982  Biso   1.000  C
  H161     1.0000 0.15670  0.38080  0.88130  Biso   1.000  H
  H162     1.0000 0.84330  0.38080  0.61870  Biso   1.000  H
  H163     1.0000 0.65670  0.88080  0.88130  Biso   1.000  H
  H164     1.0000 0.34330  0.88080  0.61870  Biso   1.000  H
  H165     1.0000 0.84330  0.61920  0.11870  Biso   1.000  H
  H166     1.0000 0.15670  0.61920  0.38130  Biso   1.000  H
  H167     1.0000 0.34330  0.11920  0.11870  Biso   1.000  H
  H168     1.0000 0.65670  0.11920  0.38130  Biso   1.000  H
  C177     1.0000 0.25221  0.36670  0.95393  Biso   1.000  C
  C178     1.0000 0.74779  0.36670  0.54607  Biso   1.000  C
  C179     1.0000 0.75221  0.86670  0.95393  Biso   1.000  C
  C180     1.0000 0.24779  0.86670  0.54607  Biso   1.000  C
  C181     1.0000 0.74779  0.63330  0.04607  Biso   1.000  C
  C182     1.0000 0.25221  0.63330  0.45393  Biso   1.000  C
  C183     1.0000 0.24779  0.13330  0.04607  Biso   1.000  C
  C184     1.0000 0.75221  0.13330  0.45393  Biso   1.000  C
  H169     1.0000 0.29940  0.38630  0.93680  Biso   1.000  H
  H170     1.0000 0.70060  0.38630  0.56320  Biso   1.000  H
  H171     1.0000 0.79940  0.88630  0.93680  Biso   1.000  H
  H172     1.0000 0.20060  0.88630  0.56320  Biso   1.000  H
  H173     1.0000 0.70060  0.61370  0.06320  Biso   1.000  H
  H174     1.0000 0.29940  0.61370  0.43680  Biso   1.000  H
  H175     1.0000 0.20060  0.11370  0.06320  Biso   1.000  H
  H176     1.0000 0.79940  0.11370  0.43680  Biso   1.000  H
  N25      1.0000 0.27526  0.34489  0.01093  Biso   1.000  N
  N26      1.0000 0.72474  0.34489  0.48907  Biso   1.000  N
  N27      1.0000 0.77526  0.84489  0.01093  Biso   1.000  N
  N28      1.0000 0.22474  0.84489  0.48907  Biso   1.000  N
  N29      1.0000 0.72474  0.65511  0.98907  Biso   1.000  N
  N30      1.0000 0.27526  0.65511  0.51093  Biso   1.000  N
  N31      1.0000 0.22474  0.15511  0.98907  Biso   1.000  N
  N32      1.0000 0.77526  0.15511  0.51093  Biso   1.000  N
  C185     1.0000 0.20961  0.31567  0.03321  Biso   1.000  C
  C186     1.0000 0.79039  0.31567  0.46679  Biso   1.000  C
  C187     1.0000 0.70961  0.81567  0.03321  Biso   1.000  C
  C188     1.0000 0.29039  0.81567  0.46679  Biso   1.000  C
  C189     1.0000 0.79039  0.68433  0.96679  Biso   1.000  C
  C190     1.0000 0.20961  0.68433  0.53321  Biso   1.000  C
  C191     1.0000 0.29039  0.18433  0.96679  Biso   1.000  C
  C192     1.0000 0.70961  0.18433  0.53321  Biso   1.000  C
  H177     1.0000 0.22190  0.29970  0.07280  Biso   1.000  H
  H178     1.0000 0.77810  0.29970  0.42720  Biso   1.000  H
  H179     1.0000 0.72190  0.79970  0.07280  Biso   1.000  H
  H180     1.0000 0.27810  0.79970  0.42720  Biso   1.000  H
  H181     1.0000 0.77810  0.70030  0.92720  Biso   1.000  H
  H182     1.0000 0.22190  0.70030  0.57280  Biso   1.000  H
  H183     1.0000 0.27810  0.20030  0.92720  Biso   1.000  H
  H184     1.0000 0.72190  0.20030  0.57280  Biso   1.000  H
  C193     1.0000 0.12408  0.30865  0.99892  Biso   1.000  C
  C194     1.0000 0.87592  0.30865  0.50108  Biso   1.000  C
  C195     1.0000 0.62408  0.80865  0.99892  Biso   1.000  C
  C196     1.0000 0.37592  0.80865  0.50108  Biso   1.000  C
  C197     1.0000 0.87592  0.69135  0.00108  Biso   1.000  C
  C198     1.0000 0.12408  0.69135  0.49892  Biso   1.000  C
  C199     1.0000 0.37592  0.19135  0.00108  Biso   1.000  C
  C200     1.0000 0.62408  0.19135  0.49892  Biso   1.000  C
  H185     1.0000 0.07960  0.28640  0.01540  Biso   1.000  H
  H186     1.0000 0.92040  0.28640  0.48460  Biso   1.000  H
  H187     1.0000 0.57960  0.78640  0.01540  Biso   1.000  H
  H188     1.0000 0.42040  0.78640  0.48460  Biso   1.000  H
  H189     1.0000 0.92040  0.71360  0.98460  Biso   1.000  H
  H190     1.0000 0.07960  0.71360  0.51540  Biso   1.000  H
  H191     1.0000 0.42040  0.21360  0.98460  Biso   1.000  H
  H192     1.0000 0.57960  0.21360  0.51540  Biso   1.000  H
  B1       1.0000 0.00000  0.42787  0.75000  Biso   1.000  B
  B2       1.0000 0.50000  0.92787  0.75000  Biso   1.000  B
  B3       1.0000 0.00000  0.57213  0.25000  Biso   1.000  B
  B4       1.0000 0.50000  0.07213  0.25000  Biso   1.000  B
  F1       1.0000 0.97287  0.45965  0.79610  Biso   1.000  F
  F2       1.0000 0.02713  0.45965  0.70390  Biso   1.000  F
  F3       1.0000 0.47287  0.95965  0.79610  Biso   1.000  F
  F4       1.0000 0.52713  0.95965  0.70390  Biso   1.000  F
  F5       1.0000 0.02713  0.54035  0.20390  Biso   1.000  F
  F6       1.0000 0.97287  0.54035  0.29610  Biso   1.000  F
  F7       1.0000 0.52713  0.04035  0.20390  Biso   1.000  F
  F8       1.0000 0.47287  0.04035  0.29610  Biso   1.000  F
  F9       1.0000 0.92765  0.39595  0.72731  Biso   1.000  F
  F10      1.0000 0.07235  0.39595  0.77269  Biso   1.000  F
  F11      1.0000 0.42765  0.89595  0.72731  Biso   1.000  F
  F12      1.0000 0.57235  0.89595  0.77269  Biso   1.000  F
  F13      1.0000 0.07235  0.60405  0.27269  Biso   1.000  F
  F14      1.0000 0.92765  0.60405  0.22731  Biso   1.000  F
  F15      1.0000 0.57235  0.10405  0.27269  Biso   1.000  F
  F16      1.0000 0.42765  0.10405  0.22731  Biso   1.000  F
  B5       1.0000 0.58260  0.30599  0.69310  Biso   1.000  B
  B6       1.0000 0.41740  0.30599  0.80690  Biso   1.000  B
  B7       1.0000 0.08260  0.80599  0.69310  Biso   1.000  B
  B8       1.0000 0.91740  0.80599  0.80690  Biso   1.000  B
  B9       1.0000 0.41740  0.69401  0.30690  Biso   1.000  B
  B10      1.0000 0.58260  0.69401  0.19310  Biso   1.000  B
  B11      1.0000 0.91740  0.19401  0.30690  Biso   1.000  B
  B12      1.0000 0.08260  0.19401  0.19310  Biso   1.000  B
  F17      1.0000 0.49148  0.30022  0.69231  Biso   1.000  F
  F18      1.0000 0.50852  0.30022  0.80769  Biso   1.000  F
  F19      1.0000 0.99148  0.80022  0.69231  Biso   1.000  F
  F20      1.0000 0.00852  0.80022  0.80769  Biso   1.000  F
  F21      1.0000 0.50852  0.69978  0.30769  Biso   1.000  F
  F22      1.0000 0.49148  0.69978  0.19231  Biso   1.000  F
  F23      1.0000 0.00852  0.19978  0.30769  Biso   1.000  F
  F24      1.0000 0.99148  0.19978  0.19231  Biso   1.000  F
  F25      1.0000 0.61297  0.27263  0.65284  Biso   1.000  F
  F26      1.0000 0.38703  0.27263  0.84716  Biso   1.000  F
  F27      1.0000 0.11297  0.77263  0.65284  Biso   1.000  F
  F28      1.0000 0.88703  0.77263  0.84716  Biso   1.000  F
  F29      1.0000 0.38703  0.72737  0.34716  Biso   1.000  F
  F30      1.0000 0.61297  0.72737  0.15284  Biso   1.000  F
  F31      1.0000 0.88703  0.22737  0.34716  Biso   1.000  F
  F32      1.0000 0.11297  0.22737  0.15284  Biso   1.000  F
  F33      1.0000 0.62471  0.29522  0.74877  Biso   1.000  F
  F34      1.0000 0.37529  0.29522  0.75123  Biso   1.000  F
  F35      1.0000 0.12471  0.79522  0.74877  Biso   1.000  F
  F36      1.0000 0.87529  0.79522  0.75123  Biso   1.000  F
  F37      1.0000 0.37529  0.70478  0.25123  Biso   1.000  F
  F38      1.0000 0.62471  0.70478  0.24877  Biso   1.000  F
  F39      1.0000 0.87529  0.20478  0.25123  Biso   1.000  F
  F40      1.0000 0.12471  0.20478  0.24877  Biso   1.000  F
  F41      1.0000 0.60192  0.35619  0.67875  Biso   1.000  F
  F42      1.0000 0.39808  0.35619  0.82125  Biso   1.000  F
  F43      1.0000 0.10192  0.85619  0.67875  Biso   1.000  F
  F44      1.0000 0.89808  0.85619  0.82125  Biso   1.000  F
  F45      1.0000 0.39808  0.64381  0.32125  Biso   1.000  F
  F46      1.0000 0.60192  0.64381  0.17875  Biso   1.000  F
  F47      1.0000 0.89808  0.14381  0.32125  Biso   1.000  F
  F48      1.0000 0.10192  0.14381  0.17875  Biso   1.000  F
  N33      1.0000 0.50707  0.07432  0.96663  Biso   1.000  N
  N34      1.0000 0.49293  0.07432  0.53337  Biso   1.000  N
  N35      1.0000 0.00707  0.57432  0.96663  Biso   1.000  N
  N36      1.0000 0.99293  0.57432  0.53337  Biso   1.000  N
  N37      1.0000 0.49293  0.92568  0.03337  Biso   1.000  N
  N38      1.0000 0.50707  0.92568  0.46663  Biso   1.000  N
  N39      1.0000 0.99293  0.42568  0.03337  Biso   1.000  N
  N40      1.0000 0.00707  0.42568  0.46663  Biso   1.000  N
  C201     1.0000 0.54881  0.04366  0.94189  Biso   1.000  C
  C202     1.0000 0.45119  0.04366  0.55811  Biso   1.000  C
  C203     1.0000 0.04881  0.54366  0.94189  Biso   1.000  C
  C204     1.0000 0.95119  0.54366  0.55811  Biso   1.000  C
  C205     1.0000 0.45119  0.95634  0.05811  Biso   1.000  C
  C206     1.0000 0.54881  0.95634  0.44189  Biso   1.000  C
  C207     1.0000 0.95119  0.45634  0.05811  Biso   1.000  C
  C208     1.0000 0.04881  0.45634  0.44189  Biso   1.000  C
  C209     1.0000 0.60654  0.00459  0.91306  Biso   1.000  C
  C210     1.0000 0.39346  0.00459  0.58694  Biso   1.000  C
  C211     1.0000 0.10654  0.50459  0.91306  Biso   1.000  C
  C212     1.0000 0.89346  0.50459  0.58694  Biso   1.000  C
  C213     1.0000 0.39346  0.99541  0.08694  Biso   1.000  C
  C214     1.0000 0.60654  0.99541  0.41306  Biso   1.000  C
  C215     1.0000 0.89346  0.49541  0.08694  Biso   1.000  C
  C216     1.0000 0.10654  0.49541  0.41306  Biso   1.000  C
  H193     1.0000 0.65330  0.98910  0.94450  Biso   1.000  H
  H194     1.0000 0.34670  0.98910  0.55550  Biso   1.000  H
  H195     1.0000 0.15330  0.48910  0.94450  Biso   1.000  H
  H196     1.0000 0.84670  0.48910  0.55550  Biso   1.000  H
  H197     1.0000 0.34670  0.01090  0.05550  Biso   1.000  H
  H198     1.0000 0.65330  0.01090  0.44450  Biso   1.000  H
  H199     1.0000 0.84670  0.51090  0.05550  Biso   1.000  H
  H200     1.0000 0.15330  0.51090  0.44450  Biso   1.000  H
  H201     1.0000 0.63820  0.02290  0.88170  Biso   1.000  H
  H202     1.0000 0.36180  0.02290  0.61830  Biso   1.000  H
  H203     1.0000 0.13820  0.52290  0.88170  Biso   1.000  H
  H204     1.0000 0.86180  0.52290  0.61830  Biso   1.000  H
  H205     1.0000 0.36180  0.97710  0.11830  Biso   1.000  H
  H206     1.0000 0.63820  0.97710  0.38170  Biso   1.000  H
  H207     1.0000 0.86180  0.47710  0.11830  Biso   1.000  H
  H208     1.0000 0.13820  0.47710  0.38170  Biso   1.000  H
  H209     1.0000 0.56670  0.97570  0.89370  Biso   1.000  H
  H210     1.0000 0.43330  0.97570  0.60630  Biso   1.000  H
  H211     1.0000 0.06670  0.47570  0.89370  Biso   1.000  H
  H212     1.0000 0.93330  0.47570  0.60630  Biso   1.000  H
  H213     1.0000 0.43330  0.02430  0.10630  Biso   1.000  H
  H214     1.0000 0.56670  0.02430  0.39370  Biso   1.000  H
  H215     1.0000 0.93330  0.52430  0.10630  Biso   1.000  H
  H216     1.0000 0.06670  0.52430  0.39370  Biso   1.000  H
  N41      1.0000 0.64033  0.56220  0.66896  Biso   1.000  N
  N42      1.0000 0.35967  0.56220  0.83104  Biso   1.000  N
  N43      1.0000 0.14033  0.06220  0.66896  Biso   1.000  N
  N44      1.0000 0.85967  0.06220  0.83104  Biso   1.000  N
  N45      1.0000 0.35967  0.43780  0.33104  Biso   1.000  N
  N46      1.0000 0.64033  0.43780  0.16896  Biso   1.000  N
  N47      1.0000 0.85967  0.93780  0.33104  Biso   1.000  N
  N48      1.0000 0.14033  0.93780  0.16896  Biso   1.000  N
  C217     1.0000 0.65980  0.51868  0.68285  Biso   1.000  C
  C218     1.0000 0.34020  0.51868  0.81715  Biso   1.000  C
  C219     1.0000 0.15980  0.01868  0.68285  Biso   1.000  C
  C220     1.0000 0.84020  0.01868  0.81715  Biso   1.000  C
  C221     1.0000 0.34020  0.48132  0.31715  Biso   1.000  C
  C222     1.0000 0.65980  0.48132  0.18285  Biso   1.000  C
  C223     1.0000 0.84020  0.98132  0.31715  Biso   1.000  C
  C224     1.0000 0.15980  0.98132  0.18285  Biso   1.000  C
  C225     1.0000 0.68810  0.46307  0.69919  Biso   1.000  C
  C226     1.0000 0.31190  0.46307  0.80081  Biso   1.000  C
  C227     1.0000 0.18810  0.96307  0.69919  Biso   1.000  C
  C228     1.0000 0.81190  0.96307  0.80081  Biso   1.000  C
  C229     1.0000 0.31190  0.53693  0.30081  Biso   1.000  C
  C230     1.0000 0.68810  0.53693  0.19919  Biso   1.000  C
  C231     1.0000 0.81190  0.03693  0.30081  Biso   1.000  C
  C232     1.0000 0.18810  0.03693  0.19919  Biso   1.000  C
  H217     1.0000 0.74660  0.46350  0.72730  Biso   1.000  H
  H218     1.0000 0.25340  0.46350  0.77270  Biso   1.000  H
  H219     1.0000 0.24660  0.96350  0.72730  Biso   1.000  H
  H220     1.0000 0.75340  0.96350  0.77270  Biso   1.000  H
  H221     1.0000 0.25340  0.53650  0.27270  Biso   1.000  H
  H222     1.0000 0.74660  0.53650  0.22730  Biso   1.000  H
  H223     1.0000 0.75340  0.03650  0.27270  Biso   1.000  H
  H224     1.0000 0.24660  0.03650  0.22730  Biso   1.000  H
  H225     1.0000 0.69740  0.44310  0.66170  Biso   1.000  H
  H226     1.0000 0.30260  0.44310  0.83830  Biso   1.000  H
  H227     1.0000 0.19740  0.94310  0.66170  Biso   1.000  H
  H228     1.0000 0.80260  0.94310  0.83830  Biso   1.000  H
  H229     1.0000 0.30260  0.55690  0.33830  Biso   1.000  H
  H230     1.0000 0.69740  0.55690  0.16170  Biso   1.000  H
  H231     1.0000 0.80260  0.05690  0.33830  Biso   1.000  H
  H232     1.0000 0.19740  0.05690  0.16170  Biso   1.000  H
  H233     1.0000 0.63920  0.44550  0.71950  Biso   1.000  H
  H234     1.0000 0.36080  0.44550  0.78050  Biso   1.000  H
  H235     1.0000 0.13920  0.94550  0.71950  Biso   1.000  H
  H236     1.0000 0.86080  0.94550  0.78050  Biso   1.000  H
  H237     1.0000 0.36080  0.55450  0.28050  Biso   1.000  H
  H238     1.0000 0.63920  0.55450  0.21950  Biso   1.000  H
  H239     1.0000 0.86080  0.05450  0.28050  Biso   1.000  H
  H240     1.0000 0.13920  0.05450  0.21950  Biso   1.000  H
  O33      1.0000 0.10103  0.35570  0.18381  Biso   1.000  O
  O34      1.0000 0.89897  0.35570  0.31619  Biso   1.000  O
  O35      1.0000 0.60103  0.85570  0.18381  Biso   1.000  O
  O36      1.0000 0.39897  0.85570  0.31619  Biso   1.000  O
  O37      1.0000 0.89897  0.64430  0.81619  Biso   1.000  O
  O38      1.0000 0.10103  0.64430  0.68381  Biso   1.000  O
  O39      1.0000 0.39897  0.14430  0.81619  Biso   1.000  O
  O40      1.0000 0.60103  0.14430  0.68381  Biso   1.000  O
  H241     1.0000 0.10060  0.32780  0.20710  Biso   1.000  H
  H242     1.0000 0.89940  0.32780  0.29290  Biso   1.000  H
  H243     1.0000 0.60060  0.82780  0.20710  Biso   1.000  H
  H244     1.0000 0.39940  0.82780  0.29290  Biso   1.000  H
  H245     1.0000 0.89940  0.67220  0.79290  Biso   1.000  H
  H246     1.0000 0.10060  0.67220  0.70710  Biso   1.000  H
  H247     1.0000 0.39940  0.17220  0.79290  Biso   1.000  H
  H248     1.0000 0.60060  0.17220  0.70710  Biso   1.000  H
  H249     1.0000 0.11360  0.34040  0.15060  Biso   1.000  H
  H250     1.0000 0.88640  0.34040  0.34940  Biso   1.000  H
  H251     1.0000 0.61360  0.84040  0.15060  Biso   1.000  H
  H252     1.0000 0.38640  0.84040  0.34940  Biso   1.000  H
  H253     1.0000 0.88640  0.65960  0.84940  Biso   1.000  H
  H254     1.0000 0.11360  0.65960  0.65060  Biso   1.000  H
  H255     1.0000 0.38640  0.15960  0.84940  Biso   1.000  H
  H256     1.0000 0.61360  0.15960  0.65060  Biso   1.000  H
  O41      1.0000 0.14650  0.38622  0.28196  Biso   1.000  O
  O42      1.0000 0.85350  0.38622  0.21804  Biso   1.000  O
  O43      1.0000 0.64650  0.88622  0.28196  Biso   1.000  O
  O44      1.0000 0.35350  0.88622  0.21804  Biso   1.000  O
  O45      1.0000 0.85350  0.61378  0.71804  Biso   1.000  O
  O46      1.0000 0.14650  0.61378  0.78196  Biso   1.000  O
  O47      1.0000 0.35350  0.11378  0.71804  Biso   1.000  O
  O48      1.0000 0.64650  0.11378  0.78196  Biso   1.000  O
  H257     1.0000 0.12110  0.37550  0.31340  Biso   1.000  H
  H258     1.0000 0.87890  0.37550  0.18660  Biso   1.000  H
  H259     1.0000 0.62110  0.87550  0.31340  Biso   1.000  H
  H260     1.0000 0.37890  0.87550  0.18660  Biso   1.000  H
  H261     1.0000 0.87890  0.62450  0.68660  Biso   1.000  H
  H262     1.0000 0.12110  0.62450  0.81340  Biso   1.000  H
  H263     1.0000 0.37890  0.12450  0.68660  Biso   1.000  H
  H264     1.0000 0.62110  0.12450  0.81340  Biso   1.000  H
  H265     1.0000 0.13620  0.40350  0.24770  Biso   1.000  H
  H266     1.0000 0.86380  0.40350  0.25230  Biso   1.000  H
  H267     1.0000 0.63620  0.90350  0.24770  Biso   1.000  H
  H268     1.0000 0.36380  0.90350  0.25230  Biso   1.000  H
  H269     1.0000 0.86380  0.59650  0.75230  Biso   1.000  H
  H270     1.0000 0.13620  0.59650  0.74770  Biso   1.000  H
  H271     1.0000 0.36380  0.09650  0.75230  Biso   1.000  H
  H272     1.0000 0.63620  0.09650  0.74770  Biso   1.000  H
  O49      1.0000 0.94919  0.34939  0.12299  Biso   1.000  O
  O50      1.0000 0.05081  0.34939  0.37701  Biso   1.000  O
  O51      1.0000 0.44919  0.84939  0.12299  Biso   1.000  O
  O52      1.0000 0.55081  0.84939  0.37701  Biso   1.000  O
  O53      1.0000 0.05081  0.65061  0.87701  Biso   1.000  O
  O54      1.0000 0.94919  0.65061  0.62299  Biso   1.000  O
  O55      1.0000 0.55081  0.15061  0.87701  Biso   1.000  O
  O56      1.0000 0.44919  0.15061  0.62299  Biso   1.000  O
  H273     1.0000 0.00660  0.34220  0.13590  Biso   1.000  H
  H274     1.0000 0.99340  0.34220  0.36410  Biso   1.000  H
  H275     1.0000 0.50660  0.84220  0.13590  Biso   1.000  H
  H276     1.0000 0.49340  0.84220  0.36410  Biso   1.000  H
  H277     1.0000 0.99340  0.65780  0.86410  Biso   1.000  H
  H278     1.0000 0.00660  0.65780  0.63590  Biso   1.000  H
  H279     1.0000 0.49340  0.15780  0.86410  Biso   1.000  H
  H280     1.0000 0.50660  0.15780  0.63590  Biso   1.000  H
  H281     1.0000 0.94990  0.37780  0.10050  Biso   1.000  H
  H282     1.0000 0.05010  0.37780  0.39950  Biso   1.000  H
  H283     1.0000 0.44990  0.87780  0.10050  Biso   1.000  H
  H284     1.0000 0.55010  0.87780  0.39950  Biso   1.000  H
  H285     1.0000 0.05010  0.62220  0.89950  Biso   1.000  H
  H286     1.0000 0.94990  0.62220  0.60050  Biso   1.000  H
  H287     1.0000 0.55010  0.12220  0.89950  Biso   1.000  H
  H288     1.0000 0.44990  0.12220  0.60050  Biso   1.000  H
