data_image0
_cell_length_a       32.049
_cell_length_b       32.049
_cell_length_c       32.049
_cell_angle_alpha    90
_cell_angle_beta     90
_cell_angle_gamma    90

_symmetry_space_group_name_H-M    "P 1"
_symmetry_int_tables_number       1

loop_
  _symmetry_equiv_pos_as_xyz
  'x, y, z'

loop_
  _atom_site_label
  _atom_site_occupancy
  _atom_site_fract_x
  _atom_site_fract_y
  _atom_site_fract_z
  _atom_site_thermal_displace_type
  _atom_site_B_iso_or_equiv
  _atom_site_type_symbol
  Cu1      1.0000 0.10567  0.89433  0.39433  Biso   1.000  Cu
  Cu2      1.0000 0.89433  0.10567  0.39433  Biso   1.000  Cu
  Cu3      1.0000 0.89433  0.89433  0.60567  Biso   1.000  Cu
  Cu4      1.0000 0.10567  0.10567  0.60567  Biso   1.000  Cu
  Cu5      1.0000 0.39433  0.10567  0.89433  Biso   1.000  Cu
  Cu6      1.0000 0.39433  0.89433  0.10567  Biso   1.000  Cu
  Cu7      1.0000 0.60567  0.89433  0.89433  Biso   1.000  Cu
  Cu8      1.0000 0.60567  0.10567  0.10567  Biso   1.000  Cu
  Cu9      1.0000 0.89433  0.39433  0.10567  Biso   1.000  Cu
  Cu10     1.0000 0.10567  0.39433  0.89433  Biso   1.000  Cu
  Cu11     1.0000 0.89433  0.60567  0.89433  Biso   1.000  Cu
  Cu12     1.0000 0.10567  0.60567  0.10567  Biso   1.000  Cu
  Cu13     1.0000 0.39433  0.60567  0.89433  Biso   1.000  Cu
  Cu14     1.0000 0.60567  0.39433  0.89433  Biso   1.000  Cu
  Cu15     1.0000 0.39433  0.39433  0.10567  Biso   1.000  Cu
  Cu16     1.0000 0.60567  0.60567  0.10567  Biso   1.000  Cu
  Cu17     1.0000 0.60567  0.89433  0.39433  Biso   1.000  Cu
  Cu18     1.0000 0.39433  0.89433  0.60567  Biso   1.000  Cu
  Cu19     1.0000 0.39433  0.10567  0.39433  Biso   1.000  Cu
  Cu20     1.0000 0.60567  0.10567  0.60567  Biso   1.000  Cu
  Cu21     1.0000 0.89433  0.39433  0.60567  Biso   1.000  Cu
  Cu22     1.0000 0.89433  0.60567  0.39433  Biso   1.000  Cu
  Cu23     1.0000 0.10567  0.39433  0.39433  Biso   1.000  Cu
  Cu24     1.0000 0.10567  0.60567  0.60567  Biso   1.000  Cu
  Cu25     1.0000 0.39433  0.60567  0.39433  Biso   1.000  Cu
  Cu26     1.0000 0.39433  0.39433  0.60567  Biso   1.000  Cu
  Cu27     1.0000 0.60567  0.39433  0.39433  Biso   1.000  Cu
  Cu28     1.0000 0.60567  0.60567  0.60567  Biso   1.000  Cu
  Cu29     1.0000 0.89433  0.89433  0.10567  Biso   1.000  Cu
  Cu30     1.0000 0.89433  0.10567  0.89433  Biso   1.000  Cu
  Cu31     1.0000 0.10567  0.89433  0.89433  Biso   1.000  Cu
  Cu32     1.0000 0.10567  0.10567  0.10567  Biso   1.000  Cu
  N1       1.0000 0.14194  0.85806  0.35806  Biso   1.000  N
  N2       1.0000 0.85806  0.14194  0.35806  Biso   1.000  N
  N3       1.0000 0.85806  0.85806  0.64194  Biso   1.000  N
  N4       1.0000 0.14194  0.14194  0.64194  Biso   1.000  N
  N5       1.0000 0.35806  0.14194  0.85806  Biso   1.000  N
  N6       1.0000 0.35806  0.85806  0.14194  Biso   1.000  N
  N7       1.0000 0.64194  0.85806  0.85806  Biso   1.000  N
  N8       1.0000 0.64194  0.14194  0.14194  Biso   1.000  N
  N9       1.0000 0.85806  0.35806  0.14194  Biso   1.000  N
  N10      1.0000 0.14194  0.35806  0.85806  Biso   1.000  N
  N11      1.0000 0.85806  0.64194  0.85806  Biso   1.000  N
  N12      1.0000 0.14194  0.64194  0.14194  Biso   1.000  N
  N13      1.0000 0.35806  0.64194  0.85806  Biso   1.000  N
  N14      1.0000 0.64194  0.35806  0.85806  Biso   1.000  N
  N15      1.0000 0.35806  0.35806  0.14194  Biso   1.000  N
  N16      1.0000 0.64194  0.64194  0.14194  Biso   1.000  N
  N17      1.0000 0.64194  0.85806  0.35806  Biso   1.000  N
  N18      1.0000 0.35806  0.85806  0.64194  Biso   1.000  N
  N19      1.0000 0.35806  0.14194  0.35806  Biso   1.000  N
  N20      1.0000 0.64194  0.14194  0.64194  Biso   1.000  N
  N21      1.0000 0.85806  0.35806  0.64194  Biso   1.000  N
  N22      1.0000 0.85806  0.64194  0.35806  Biso   1.000  N
  N23      1.0000 0.14194  0.35806  0.35806  Biso   1.000  N
  N24      1.0000 0.14194  0.64194  0.64194  Biso   1.000  N
  N25      1.0000 0.35806  0.64194  0.35806  Biso   1.000  N
  N26      1.0000 0.35806  0.35806  0.64194  Biso   1.000  N
  N27      1.0000 0.64194  0.35806  0.35806  Biso   1.000  N
  N28      1.0000 0.64194  0.64194  0.64194  Biso   1.000  N
  N29      1.0000 0.85806  0.85806  0.14194  Biso   1.000  N
  N30      1.0000 0.85806  0.14194  0.85806  Biso   1.000  N
  N31      1.0000 0.14194  0.85806  0.85806  Biso   1.000  N
  N32      1.0000 0.14194  0.14194  0.14194  Biso   1.000  N
  C1       1.0000 0.16960  0.83970  0.34830  Biso   1.000  C
  C2       1.0000 0.83040  0.16030  0.34830  Biso   1.000  C
  C3       1.0000 0.83040  0.83970  0.65170  Biso   1.000  C
  C4       1.0000 0.16960  0.16030  0.65170  Biso   1.000  C
  C5       1.0000 0.34830  0.16960  0.83970  Biso   1.000  C
  C6       1.0000 0.34830  0.83040  0.16030  Biso   1.000  C
  C7       1.0000 0.65170  0.83040  0.83970  Biso   1.000  C
  C8       1.0000 0.65170  0.16960  0.16030  Biso   1.000  C
  C9       1.0000 0.83970  0.34830  0.16960  Biso   1.000  C
  C10      1.0000 0.16030  0.34830  0.83040  Biso   1.000  C
  C11      1.0000 0.83970  0.65170  0.83040  Biso   1.000  C
  C12      1.0000 0.16030  0.65170  0.16960  Biso   1.000  C
  C13      1.0000 0.33970  0.66960  0.84830  Biso   1.000  C
  C14      1.0000 0.66030  0.33040  0.84830  Biso   1.000  C
  C15      1.0000 0.33970  0.33040  0.15170  Biso   1.000  C
  C16      1.0000 0.66030  0.66960  0.15170  Biso   1.000  C
  C17      1.0000 0.66960  0.84830  0.33970  Biso   1.000  C
  C18      1.0000 0.33040  0.84830  0.66030  Biso   1.000  C
  C19      1.0000 0.33040  0.15170  0.33970  Biso   1.000  C
  C20      1.0000 0.66960  0.15170  0.66030  Biso   1.000  C
  C21      1.0000 0.84830  0.33970  0.66960  Biso   1.000  C
  C22      1.0000 0.84830  0.66030  0.33040  Biso   1.000  C
  C23      1.0000 0.15170  0.33970  0.33040  Biso   1.000  C
  C24      1.0000 0.15170  0.66030  0.66960  Biso   1.000  C
  C25      1.0000 0.16960  0.33970  0.84830  Biso   1.000  C
  C26      1.0000 0.83040  0.66030  0.84830  Biso   1.000  C
  C27      1.0000 0.83040  0.33970  0.15170  Biso   1.000  C
  C28      1.0000 0.16960  0.66030  0.15170  Biso   1.000  C
  C29      1.0000 0.34830  0.66960  0.33970  Biso   1.000  C
  C30      1.0000 0.34830  0.33040  0.66030  Biso   1.000  C
  C31      1.0000 0.65170  0.33040  0.33970  Biso   1.000  C
  C32      1.0000 0.65170  0.66960  0.66030  Biso   1.000  C
  C33      1.0000 0.83970  0.84830  0.66960  Biso   1.000  C
  C34      1.0000 0.16030  0.84830  0.33040  Biso   1.000  C
  C35      1.0000 0.83970  0.15170  0.33040  Biso   1.000  C
  C36      1.0000 0.16030  0.15170  0.66960  Biso   1.000  C
  C37      1.0000 0.33970  0.16960  0.34830  Biso   1.000  C
  C38      1.0000 0.66030  0.83040  0.34830  Biso   1.000  C
  C39      1.0000 0.33970  0.83040  0.65170  Biso   1.000  C
  C40      1.0000 0.66030  0.16960  0.65170  Biso   1.000  C
  C41      1.0000 0.66960  0.34830  0.83970  Biso   1.000  C
  C42      1.0000 0.33040  0.34830  0.16030  Biso   1.000  C
  C43      1.0000 0.33040  0.65170  0.83970  Biso   1.000  C
  C44      1.0000 0.66960  0.65170  0.16030  Biso   1.000  C
  C45      1.0000 0.84830  0.83970  0.16960  Biso   1.000  C
  C46      1.0000 0.84830  0.16030  0.83040  Biso   1.000  C
  C47      1.0000 0.15170  0.83970  0.83040  Biso   1.000  C
  C48      1.0000 0.15170  0.16030  0.16960  Biso   1.000  C
  C49      1.0000 0.66960  0.83970  0.84830  Biso   1.000  C
  C50      1.0000 0.33040  0.16030  0.84830  Biso   1.000  C
  C51      1.0000 0.33040  0.83970  0.15170  Biso   1.000  C
  C52      1.0000 0.66960  0.16030  0.15170  Biso   1.000  C
  C53      1.0000 0.84830  0.16960  0.33970  Biso   1.000  C
  C54      1.0000 0.84830  0.83040  0.66030  Biso   1.000  C
  C55      1.0000 0.15170  0.83040  0.33970  Biso   1.000  C
  C56      1.0000 0.15170  0.16960  0.66030  Biso   1.000  C
  C57      1.0000 0.33970  0.34830  0.66960  Biso   1.000  C
  C58      1.0000 0.66030  0.34830  0.33040  Biso   1.000  C
  C59      1.0000 0.33970  0.65170  0.33040  Biso   1.000  C
  C60      1.0000 0.66030  0.65170  0.66960  Biso   1.000  C
  C61      1.0000 0.83970  0.66960  0.34830  Biso   1.000  C
  C62      1.0000 0.16030  0.33040  0.34830  Biso   1.000  C
  C63      1.0000 0.83970  0.33040  0.65170  Biso   1.000  C
  C64      1.0000 0.16030  0.66960  0.65170  Biso   1.000  C
  C65      1.0000 0.16960  0.84830  0.83970  Biso   1.000  C
  C66      1.0000 0.83040  0.84830  0.16030  Biso   1.000  C
  C67      1.0000 0.83040  0.15170  0.83970  Biso   1.000  C
  C68      1.0000 0.16960  0.15170  0.16030  Biso   1.000  C
  C69      1.0000 0.34830  0.33970  0.16960  Biso   1.000  C
  C70      1.0000 0.34830  0.66030  0.83040  Biso   1.000  C
  C71      1.0000 0.65170  0.33970  0.83040  Biso   1.000  C
  C72      1.0000 0.65170  0.66030  0.16960  Biso   1.000  C
  C73      1.0000 0.66960  0.33970  0.34830  Biso   1.000  C
  C74      1.0000 0.33040  0.66030  0.34830  Biso   1.000  C
  C75      1.0000 0.33040  0.33970  0.65170  Biso   1.000  C
  C76      1.0000 0.66960  0.66030  0.65170  Biso   1.000  C
  C77      1.0000 0.84830  0.66960  0.83970  Biso   1.000  C
  C78      1.0000 0.84830  0.33040  0.16030  Biso   1.000  C
  C79      1.0000 0.15170  0.33040  0.83970  Biso   1.000  C
  C80      1.0000 0.15170  0.66960  0.16030  Biso   1.000  C
  C81      1.0000 0.33970  0.84830  0.16960  Biso   1.000  C
  C82      1.0000 0.66030  0.84830  0.83040  Biso   1.000  C
  C83      1.0000 0.33970  0.15170  0.83040  Biso   1.000  C
  C84      1.0000 0.66030  0.15170  0.16960  Biso   1.000  C
  C85      1.0000 0.83970  0.16960  0.84830  Biso   1.000  C
  C86      1.0000 0.16030  0.83040  0.84830  Biso   1.000  C
  C87      1.0000 0.83970  0.83040  0.15170  Biso   1.000  C
  C88      1.0000 0.16030  0.16960  0.15170  Biso   1.000  C
  C89      1.0000 0.16960  0.34830  0.33970  Biso   1.000  C
  C90      1.0000 0.83040  0.34830  0.66030  Biso   1.000  C
  C91      1.0000 0.83040  0.65170  0.33970  Biso   1.000  C
  C92      1.0000 0.16960  0.65170  0.66030  Biso   1.000  C
  C93      1.0000 0.34830  0.83970  0.66960  Biso   1.000  C
  C94      1.0000 0.34830  0.16030  0.33040  Biso   1.000  C
  C95      1.0000 0.65170  0.83970  0.33040  Biso   1.000  C
  C96      1.0000 0.65170  0.16030  0.66960  Biso   1.000  C
  C97      1.0000 0.21210  0.82500  0.33180  Biso   1.000  C
  C98      1.0000 0.78790  0.17500  0.33180  Biso   1.000  C
  C99      1.0000 0.78790  0.82500  0.66820  Biso   1.000  C
  C100     1.0000 0.21210  0.17500  0.66820  Biso   1.000  C
  C101     1.0000 0.33180  0.21210  0.82500  Biso   1.000  C
  C102     1.0000 0.33180  0.78790  0.17500  Biso   1.000  C
  C103     1.0000 0.66820  0.78790  0.82500  Biso   1.000  C
  C104     1.0000 0.66820  0.21210  0.17500  Biso   1.000  C
  C105     1.0000 0.82500  0.33180  0.21210  Biso   1.000  C
  C106     1.0000 0.17500  0.33180  0.78790  Biso   1.000  C
  C107     1.0000 0.82500  0.66820  0.78790  Biso   1.000  C
  C108     1.0000 0.17500  0.66820  0.21210  Biso   1.000  C
  C109     1.0000 0.32500  0.71210  0.83180  Biso   1.000  C
  C110     1.0000 0.67500  0.28790  0.83180  Biso   1.000  C
  C111     1.0000 0.32500  0.28790  0.16820  Biso   1.000  C
  C112     1.0000 0.67500  0.71210  0.16820  Biso   1.000  C
  C113     1.0000 0.71210  0.83180  0.32500  Biso   1.000  C
  C114     1.0000 0.28790  0.83180  0.67500  Biso   1.000  C
  C115     1.0000 0.28790  0.16820  0.32500  Biso   1.000  C
  C116     1.0000 0.71210  0.16820  0.67500  Biso   1.000  C
  C117     1.0000 0.83180  0.32500  0.71210  Biso   1.000  C
  C118     1.0000 0.83180  0.67500  0.28790  Biso   1.000  C
  C119     1.0000 0.16820  0.32500  0.28790  Biso   1.000  C
  C120     1.0000 0.16820  0.67500  0.71210  Biso   1.000  C
  C121     1.0000 0.21210  0.32500  0.83180  Biso   1.000  C
  C122     1.0000 0.78790  0.67500  0.83180  Biso   1.000  C
  C123     1.0000 0.78790  0.32500  0.16820  Biso   1.000  C
  C124     1.0000 0.21210  0.67500  0.16820  Biso   1.000  C
  C125     1.0000 0.33180  0.71210  0.32500  Biso   1.000  C
  C126     1.0000 0.33180  0.28790  0.67500  Biso   1.000  C
  C127     1.0000 0.66820  0.28790  0.32500  Biso   1.000  C
  C128     1.0000 0.66820  0.71210  0.67500  Biso   1.000  C
  C129     1.0000 0.82500  0.83180  0.71210  Biso   1.000  C
  C130     1.0000 0.17500  0.83180  0.28790  Biso   1.000  C
  C131     1.0000 0.82500  0.16820  0.28790  Biso   1.000  C
  C132     1.0000 0.17500  0.16820  0.71210  Biso   1.000  C
  C133     1.0000 0.32500  0.21210  0.33180  Biso   1.000  C
  C134     1.0000 0.67500  0.78790  0.33180  Biso   1.000  C
  C135     1.0000 0.32500  0.78790  0.66820  Biso   1.000  C
  C136     1.0000 0.67500  0.21210  0.66820  Biso   1.000  C
  C137     1.0000 0.71210  0.33180  0.82500  Biso   1.000  C
  C138     1.0000 0.28790  0.33180  0.17500  Biso   1.000  C
  C139     1.0000 0.28790  0.66820  0.82500  Biso   1.000  C
  C140     1.0000 0.71210  0.66820  0.17500  Biso   1.000  C
  C141     1.0000 0.83180  0.82500  0.21210  Biso   1.000  C
  C142     1.0000 0.83180  0.17500  0.78790  Biso   1.000  C
  C143     1.0000 0.16820  0.82500  0.78790  Biso   1.000  C
  C144     1.0000 0.16820  0.17500  0.21210  Biso   1.000  C
  C145     1.0000 0.71210  0.82500  0.83180  Biso   1.000  C
  C146     1.0000 0.28790  0.17500  0.83180  Biso   1.000  C
  C147     1.0000 0.28790  0.82500  0.16820  Biso   1.000  C
  C148     1.0000 0.71210  0.17500  0.16820  Biso   1.000  C
  C149     1.0000 0.83180  0.21210  0.32500  Biso   1.000  C
  C150     1.0000 0.83180  0.78790  0.67500  Biso   1.000  C
  C151     1.0000 0.16820  0.78790  0.32500  Biso   1.000  C
  C152     1.0000 0.16820  0.21210  0.67500  Biso   1.000  C
  C153     1.0000 0.32500  0.33180  0.71210  Biso   1.000  C
  C154     1.0000 0.67500  0.33180  0.28790  Biso   1.000  C
  C155     1.0000 0.32500  0.66820  0.28790  Biso   1.000  C
  C156     1.0000 0.67500  0.66820  0.71210  Biso   1.000  C
  C157     1.0000 0.82500  0.71210  0.33180  Biso   1.000  C
  C158     1.0000 0.17500  0.28790  0.33180  Biso   1.000  C
  C159     1.0000 0.82500  0.28790  0.66820  Biso   1.000  C
  C160     1.0000 0.17500  0.71210  0.66820  Biso   1.000  C
  C161     1.0000 0.21210  0.83180  0.82500  Biso   1.000  C
  C162     1.0000 0.78790  0.83180  0.17500  Biso   1.000  C
  C163     1.0000 0.78790  0.16820  0.82500  Biso   1.000  C
  C164     1.0000 0.21210  0.16820  0.17500  Biso   1.000  C
  C165     1.0000 0.33180  0.32500  0.21210  Biso   1.000  C
  C166     1.0000 0.33180  0.67500  0.78790  Biso   1.000  C
  C167     1.0000 0.66820  0.32500  0.78790  Biso   1.000  C
  C168     1.0000 0.66820  0.67500  0.21210  Biso   1.000  C
  C169     1.0000 0.71210  0.32500  0.33180  Biso   1.000  C
  C170     1.0000 0.28790  0.67500  0.33180  Biso   1.000  C
  C171     1.0000 0.28790  0.32500  0.66820  Biso   1.000  C
  C172     1.0000 0.71210  0.67500  0.66820  Biso   1.000  C
  C173     1.0000 0.83180  0.71210  0.82500  Biso   1.000  C
  C174     1.0000 0.83180  0.28790  0.17500  Biso   1.000  C
  C175     1.0000 0.16820  0.28790  0.82500  Biso   1.000  C
  C176     1.0000 0.16820  0.71210  0.17500  Biso   1.000  C
  C177     1.0000 0.32500  0.83180  0.21210  Biso   1.000  C
  C178     1.0000 0.67500  0.83180  0.78790  Biso   1.000  C
  C179     1.0000 0.32500  0.16820  0.78790  Biso   1.000  C
  C180     1.0000 0.67500  0.16820  0.21210  Biso   1.000  C
  C181     1.0000 0.82500  0.21210  0.83180  Biso   1.000  C
  C182     1.0000 0.17500  0.78790  0.83180  Biso   1.000  C
  C183     1.0000 0.82500  0.78790  0.16820  Biso   1.000  C
  C184     1.0000 0.17500  0.21210  0.16820  Biso   1.000  C
  C185     1.0000 0.21210  0.33180  0.32500  Biso   1.000  C
  C186     1.0000 0.78790  0.33180  0.67500  Biso   1.000  C
  C187     1.0000 0.78790  0.66820  0.32500  Biso   1.000  C
  C188     1.0000 0.21210  0.66820  0.67500  Biso   1.000  C
  C189     1.0000 0.33180  0.82500  0.71210  Biso   1.000  C
  C190     1.0000 0.33180  0.17500  0.28790  Biso   1.000  C
  C191     1.0000 0.66820  0.82500  0.28790  Biso   1.000  C
  C192     1.0000 0.66820  0.17500  0.71210  Biso   1.000  C
  H1       1.0000 0.20850  0.80020  0.31540  Biso   1.000  H
  H2       1.0000 0.79150  0.19980  0.31540  Biso   1.000  H
  H3       1.0000 0.79150  0.80020  0.68460  Biso   1.000  H
  H4       1.0000 0.20850  0.19980  0.68460  Biso   1.000  H
  H5       1.0000 0.31540  0.20850  0.80020  Biso   1.000  H
  H6       1.0000 0.31540  0.79150  0.19980  Biso   1.000  H
  H7       1.0000 0.68460  0.79150  0.80020  Biso   1.000  H
  H8       1.0000 0.68460  0.20850  0.19980  Biso   1.000  H
  H9       1.0000 0.80020  0.31540  0.20850  Biso   1.000  H
  H10      1.0000 0.19980  0.31540  0.79150  Biso   1.000  H
  H11      1.0000 0.80020  0.68460  0.79150  Biso   1.000  H
  H12      1.0000 0.19980  0.68460  0.20850  Biso   1.000  H
  H13      1.0000 0.30020  0.70850  0.81540  Biso   1.000  H
  H14      1.0000 0.69980  0.29150  0.81540  Biso   1.000  H
  H15      1.0000 0.30020  0.29150  0.18460  Biso   1.000  H
  H16      1.0000 0.69980  0.70850  0.18460  Biso   1.000  H
  H17      1.0000 0.70850  0.81540  0.30020  Biso   1.000  H
  H18      1.0000 0.29150  0.81540  0.69980  Biso   1.000  H
  H19      1.0000 0.29150  0.18460  0.30020  Biso   1.000  H
  H20      1.0000 0.70850  0.18460  0.69980  Biso   1.000  H
  H21      1.0000 0.81540  0.30020  0.70850  Biso   1.000  H
  H22      1.0000 0.81540  0.69980  0.29150  Biso   1.000  H
  H23      1.0000 0.18460  0.30020  0.29150  Biso   1.000  H
  H24      1.0000 0.18460  0.69980  0.70850  Biso   1.000  H
  H25      1.0000 0.20850  0.30020  0.81540  Biso   1.000  H
  H26      1.0000 0.79150  0.69980  0.81540  Biso   1.000  H
  H27      1.0000 0.79150  0.30020  0.18460  Biso   1.000  H
  H28      1.0000 0.20850  0.69980  0.18460  Biso   1.000  H
  H29      1.0000 0.31540  0.70850  0.30020  Biso   1.000  H
  H30      1.0000 0.31540  0.29150  0.69980  Biso   1.000  H
  H31      1.0000 0.68460  0.29150  0.30020  Biso   1.000  H
  H32      1.0000 0.68460  0.70850  0.69980  Biso   1.000  H
  H33      1.0000 0.80020  0.81540  0.70850  Biso   1.000  H
  H34      1.0000 0.19980  0.81540  0.29150  Biso   1.000  H
  H35      1.0000 0.80020  0.18460  0.29150  Biso   1.000  H
  H36      1.0000 0.19980  0.18460  0.70850  Biso   1.000  H
  H37      1.0000 0.30020  0.20850  0.31540  Biso   1.000  H
  H38      1.0000 0.69980  0.79150  0.31540  Biso   1.000  H
  H39      1.0000 0.30020  0.79150  0.68460  Biso   1.000  H
  H40      1.0000 0.69980  0.20850  0.68460  Biso   1.000  H
  H41      1.0000 0.70850  0.31540  0.80020  Biso   1.000  H
  H42      1.0000 0.29150  0.31540  0.19980  Biso   1.000  H
  H43      1.0000 0.29150  0.68460  0.80020  Biso   1.000  H
  H44      1.0000 0.70850  0.68460  0.19980  Biso   1.000  H
  H45      1.0000 0.81540  0.80020  0.20850  Biso   1.000  H
  H46      1.0000 0.81540  0.19980  0.79150  Biso   1.000  H
  H47      1.0000 0.18460  0.80020  0.79150  Biso   1.000  H
  H48      1.0000 0.18460  0.19980  0.20850  Biso   1.000  H
  H49      1.0000 0.70850  0.80020  0.81540  Biso   1.000  H
  H50      1.0000 0.29150  0.19980  0.81540  Biso   1.000  H
  H51      1.0000 0.29150  0.80020  0.18460  Biso   1.000  H
  H52      1.0000 0.70850  0.19980  0.18460  Biso   1.000  H
  H53      1.0000 0.81540  0.20850  0.30020  Biso   1.000  H
  H54      1.0000 0.81540  0.79150  0.69980  Biso   1.000  H
  H55      1.0000 0.18460  0.79150  0.30020  Biso   1.000  H
  H56      1.0000 0.18460  0.20850  0.69980  Biso   1.000  H
  H57      1.0000 0.30020  0.31540  0.70850  Biso   1.000  H
  H58      1.0000 0.69980  0.31540  0.29150  Biso   1.000  H
  H59      1.0000 0.30020  0.68460  0.29150  Biso   1.000  H
  H60      1.0000 0.69980  0.68460  0.70850  Biso   1.000  H
  H61      1.0000 0.80020  0.70850  0.31540  Biso   1.000  H
  H62      1.0000 0.19980  0.29150  0.31540  Biso   1.000  H
  H63      1.0000 0.80020  0.29150  0.68460  Biso   1.000  H
  H64      1.0000 0.19980  0.70850  0.68460  Biso   1.000  H
  H65      1.0000 0.20850  0.81540  0.80020  Biso   1.000  H
  H66      1.0000 0.79150  0.81540  0.19980  Biso   1.000  H
  H67      1.0000 0.79150  0.18460  0.80020  Biso   1.000  H
  H68      1.0000 0.20850  0.18460  0.19980  Biso   1.000  H
  H69      1.0000 0.31540  0.30020  0.20850  Biso   1.000  H
  H70      1.0000 0.31540  0.69980  0.79150  Biso   1.000  H
  H71      1.0000 0.68460  0.30020  0.79150  Biso   1.000  H
  H72      1.0000 0.68460  0.69980  0.20850  Biso   1.000  H
  H73      1.0000 0.70850  0.30020  0.31540  Biso   1.000  H
  H74      1.0000 0.29150  0.69980  0.31540  Biso   1.000  H
  H75      1.0000 0.29150  0.30020  0.68460  Biso   1.000  H
  H76      1.0000 0.70850  0.69980  0.68460  Biso   1.000  H
  H77      1.0000 0.81540  0.70850  0.80020  Biso   1.000  H
  H78      1.0000 0.81540  0.29150  0.19980  Biso   1.000  H
  H79      1.0000 0.18460  0.29150  0.80020  Biso   1.000  H
  H80      1.0000 0.18460  0.70850  0.19980  Biso   1.000  H
  H81      1.0000 0.30020  0.81540  0.20850  Biso   1.000  H
  H82      1.0000 0.69980  0.81540  0.79150  Biso   1.000  H
  H83      1.0000 0.30020  0.18460  0.79150  Biso   1.000  H
  H84      1.0000 0.69980  0.18460  0.20850  Biso   1.000  H
  H85      1.0000 0.80020  0.20850  0.81540  Biso   1.000  H
  H86      1.0000 0.19980  0.79150  0.81540  Biso   1.000  H
  H87      1.0000 0.80020  0.79150  0.18460  Biso   1.000  H
  H88      1.0000 0.19980  0.20850  0.18460  Biso   1.000  H
  H89      1.0000 0.20850  0.31540  0.30020  Biso   1.000  H
  H90      1.0000 0.79150  0.31540  0.69980  Biso   1.000  H
  H91      1.0000 0.79150  0.68460  0.30020  Biso   1.000  H
  H92      1.0000 0.20850  0.68460  0.69980  Biso   1.000  H
  H93      1.0000 0.31540  0.80020  0.70850  Biso   1.000  H
  H94      1.0000 0.31540  0.19980  0.29150  Biso   1.000  H
  H95      1.0000 0.68460  0.80020  0.29150  Biso   1.000  H
  H96      1.0000 0.68460  0.19980  0.70850  Biso   1.000  H
  H97      1.0000 0.23030  0.81910  0.35490  Biso   1.000  H
  H98      1.0000 0.76970  0.18090  0.35490  Biso   1.000  H
  H99      1.0000 0.76970  0.81910  0.64510  Biso   1.000  H
  H100     1.0000 0.23030  0.18090  0.64510  Biso   1.000  H
  H101     1.0000 0.35490  0.23030  0.81910  Biso   1.000  H
  H102     1.0000 0.35490  0.76970  0.18090  Biso   1.000  H
  H103     1.0000 0.64510  0.76970  0.81910  Biso   1.000  H
  H104     1.0000 0.64510  0.23030  0.18090  Biso   1.000  H
  H105     1.0000 0.81910  0.35490  0.23030  Biso   1.000  H
  H106     1.0000 0.18090  0.35490  0.76970  Biso   1.000  H
  H107     1.0000 0.81910  0.64510  0.76970  Biso   1.000  H
  H108     1.0000 0.18090  0.64510  0.23030  Biso   1.000  H
  H109     1.0000 0.31910  0.73030  0.85490  Biso   1.000  H
  H110     1.0000 0.68090  0.26970  0.85490  Biso   1.000  H
  H111     1.0000 0.31910  0.26970  0.14510  Biso   1.000  H
  H112     1.0000 0.68090  0.73030  0.14510  Biso   1.000  H
  H113     1.0000 0.73030  0.85490  0.31910  Biso   1.000  H
  H114     1.0000 0.26970  0.85490  0.68090  Biso   1.000  H
  H115     1.0000 0.26970  0.14510  0.31910  Biso   1.000  H
  H116     1.0000 0.73030  0.14510  0.68090  Biso   1.000  H
  H117     1.0000 0.85490  0.31910  0.73030  Biso   1.000  H
  H118     1.0000 0.85490  0.68090  0.26970  Biso   1.000  H
  H119     1.0000 0.14510  0.31910  0.26970  Biso   1.000  H
  H120     1.0000 0.14510  0.68090  0.73030  Biso   1.000  H
  H121     1.0000 0.23030  0.31910  0.85490  Biso   1.000  H
  H122     1.0000 0.76970  0.68090  0.85490  Biso   1.000  H
  H123     1.0000 0.76970  0.31910  0.14510  Biso   1.000  H
  H124     1.0000 0.23030  0.68090  0.14510  Biso   1.000  H
  H125     1.0000 0.35490  0.73030  0.31910  Biso   1.000  H
  H126     1.0000 0.35490  0.26970  0.68090  Biso   1.000  H
  H127     1.0000 0.64510  0.26970  0.31910  Biso   1.000  H
  H128     1.0000 0.64510  0.73030  0.68090  Biso   1.000  H
  H129     1.0000 0.81910  0.85490  0.73030  Biso   1.000  H
  H130     1.0000 0.18090  0.85490  0.26970  Biso   1.000  H
  H131     1.0000 0.81910  0.14510  0.26970  Biso   1.000  H
  H132     1.0000 0.18090  0.14510  0.73030  Biso   1.000  H
  H133     1.0000 0.31910  0.23030  0.35490  Biso   1.000  H
  H134     1.0000 0.68090  0.76970  0.35490  Biso   1.000  H
  H135     1.0000 0.31910  0.76970  0.64510  Biso   1.000  H
  H136     1.0000 0.68090  0.23030  0.64510  Biso   1.000  H
  H137     1.0000 0.73030  0.35490  0.81910  Biso   1.000  H
  H138     1.0000 0.26970  0.35490  0.18090  Biso   1.000  H
  H139     1.0000 0.26970  0.64510  0.81910  Biso   1.000  H
  H140     1.0000 0.73030  0.64510  0.18090  Biso   1.000  H
  H141     1.0000 0.85490  0.81910  0.23030  Biso   1.000  H
  H142     1.0000 0.85490  0.18090  0.76970  Biso   1.000  H
  H143     1.0000 0.14510  0.81910  0.76970  Biso   1.000  H
  H144     1.0000 0.14510  0.18090  0.23030  Biso   1.000  H
  H145     1.0000 0.73030  0.81910  0.85490  Biso   1.000  H
  H146     1.0000 0.26970  0.18090  0.85490  Biso   1.000  H
  H147     1.0000 0.26970  0.81910  0.14510  Biso   1.000  H
  H148     1.0000 0.73030  0.18090  0.14510  Biso   1.000  H
  H149     1.0000 0.85490  0.23030  0.31910  Biso   1.000  H
  H150     1.0000 0.85490  0.76970  0.68090  Biso   1.000  H
  H151     1.0000 0.14510  0.76970  0.31910  Biso   1.000  H
  H152     1.0000 0.14510  0.23030  0.68090  Biso   1.000  H
  H153     1.0000 0.31910  0.35490  0.73030  Biso   1.000  H
  H154     1.0000 0.68090  0.35490  0.26970  Biso   1.000  H
  H155     1.0000 0.31910  0.64510  0.26970  Biso   1.000  H
  H156     1.0000 0.68090  0.64510  0.73030  Biso   1.000  H
  H157     1.0000 0.81910  0.73030  0.35490  Biso   1.000  H
  H158     1.0000 0.18090  0.26970  0.35490  Biso   1.000  H
  H159     1.0000 0.81910  0.26970  0.64510  Biso   1.000  H
  H160     1.0000 0.18090  0.73030  0.64510  Biso   1.000  H
  H161     1.0000 0.23030  0.85490  0.81910  Biso   1.000  H
  H162     1.0000 0.76970  0.85490  0.18090  Biso   1.000  H
  H163     1.0000 0.76970  0.14510  0.81910  Biso   1.000  H
  H164     1.0000 0.23030  0.14510  0.18090  Biso   1.000  H
  H165     1.0000 0.35490  0.31910  0.23030  Biso   1.000  H
  H166     1.0000 0.35490  0.68090  0.76970  Biso   1.000  H
  H167     1.0000 0.64510  0.31910  0.76970  Biso   1.000  H
  H168     1.0000 0.64510  0.68090  0.23030  Biso   1.000  H
  H169     1.0000 0.73030  0.31910  0.35490  Biso   1.000  H
  H170     1.0000 0.26970  0.68090  0.35490  Biso   1.000  H
  H171     1.0000 0.26970  0.31910  0.64510  Biso   1.000  H
  H172     1.0000 0.73030  0.68090  0.64510  Biso   1.000  H
  H173     1.0000 0.85490  0.73030  0.81910  Biso   1.000  H
  H174     1.0000 0.85490  0.26970  0.18090  Biso   1.000  H
  H175     1.0000 0.14510  0.26970  0.81910  Biso   1.000  H
  H176     1.0000 0.14510  0.73030  0.18090  Biso   1.000  H
  H177     1.0000 0.31910  0.85490  0.23030  Biso   1.000  H
  H178     1.0000 0.68090  0.85490  0.76970  Biso   1.000  H
  H179     1.0000 0.31910  0.14510  0.76970  Biso   1.000  H
  H180     1.0000 0.68090  0.14510  0.23030  Biso   1.000  H
  H181     1.0000 0.81910  0.23030  0.85490  Biso   1.000  H
  H182     1.0000 0.18090  0.76970  0.85490  Biso   1.000  H
  H183     1.0000 0.81910  0.76970  0.14510  Biso   1.000  H
  H184     1.0000 0.18090  0.23030  0.14510  Biso   1.000  H
  H185     1.0000 0.23030  0.35490  0.31910  Biso   1.000  H
  H186     1.0000 0.76970  0.35490  0.68090  Biso   1.000  H
  H187     1.0000 0.76970  0.64510  0.31910  Biso   1.000  H
  H188     1.0000 0.23030  0.64510  0.68090  Biso   1.000  H
  H189     1.0000 0.35490  0.81910  0.73030  Biso   1.000  H
  H190     1.0000 0.35490  0.18090  0.26970  Biso   1.000  H
  H191     1.0000 0.64510  0.81910  0.26970  Biso   1.000  H
  H192     1.0000 0.64510  0.18090  0.73030  Biso   1.000  H
  H193     1.0000 0.22420  0.84650  0.31490  Biso   1.000  H
  H194     1.0000 0.77580  0.15350  0.31490  Biso   1.000  H
  H195     1.0000 0.77580  0.84650  0.68510  Biso   1.000  H
  H196     1.0000 0.22420  0.15350  0.68510  Biso   1.000  H
  H197     1.0000 0.31490  0.22420  0.84650  Biso   1.000  H
  H198     1.0000 0.31490  0.77580  0.15350  Biso   1.000  H
  H199     1.0000 0.68510  0.77580  0.84650  Biso   1.000  H
  H200     1.0000 0.68510  0.22420  0.15350  Biso   1.000  H
  H201     1.0000 0.84650  0.31490  0.22420  Biso   1.000  H
  H202     1.0000 0.15350  0.31490  0.77580  Biso   1.000  H
  H203     1.0000 0.84650  0.68510  0.77580  Biso   1.000  H
  H204     1.0000 0.15350  0.68510  0.22420  Biso   1.000  H
  H205     1.0000 0.34650  0.72420  0.81490  Biso   1.000  H
  H206     1.0000 0.65350  0.27580  0.81490  Biso   1.000  H
  H207     1.0000 0.34650  0.27580  0.18510  Biso   1.000  H
  H208     1.0000 0.65350  0.72420  0.18510  Biso   1.000  H
  H209     1.0000 0.72420  0.81490  0.34650  Biso   1.000  H
  H210     1.0000 0.27580  0.81490  0.65350  Biso   1.000  H
  H211     1.0000 0.27580  0.18510  0.34650  Biso   1.000  H
  H212     1.0000 0.72420  0.18510  0.65350  Biso   1.000  H
  H213     1.0000 0.81490  0.34650  0.72420  Biso   1.000  H
  H214     1.0000 0.81490  0.65350  0.27580  Biso   1.000  H
  H215     1.0000 0.18510  0.34650  0.27580  Biso   1.000  H
  H216     1.0000 0.18510  0.65350  0.72420  Biso   1.000  H
  H217     1.0000 0.22420  0.34650  0.81490  Biso   1.000  H
  H218     1.0000 0.77580  0.65350  0.81490  Biso   1.000  H
  H219     1.0000 0.77580  0.34650  0.18510  Biso   1.000  H
  H220     1.0000 0.22420  0.65350  0.18510  Biso   1.000  H
  H221     1.0000 0.31490  0.72420  0.34650  Biso   1.000  H
  H222     1.0000 0.31490  0.27580  0.65350  Biso   1.000  H
  H223     1.0000 0.68510  0.27580  0.34650  Biso   1.000  H
  H224     1.0000 0.68510  0.72420  0.65350  Biso   1.000  H
  H225     1.0000 0.84650  0.81490  0.72420  Biso   1.000  H
  H226     1.0000 0.15350  0.81490  0.27580  Biso   1.000  H
  H227     1.0000 0.84650  0.18510  0.27580  Biso   1.000  H
  H228     1.0000 0.15350  0.18510  0.72420  Biso   1.000  H
  H229     1.0000 0.34650  0.22420  0.31490  Biso   1.000  H
  H230     1.0000 0.65350  0.77580  0.31490  Biso   1.000  H
  H231     1.0000 0.34650  0.77580  0.68510  Biso   1.000  H
  H232     1.0000 0.65350  0.22420  0.68510  Biso   1.000  H
  H233     1.0000 0.72420  0.31490  0.84650  Biso   1.000  H
  H234     1.0000 0.27580  0.31490  0.15350  Biso   1.000  H
  H235     1.0000 0.27580  0.68510  0.84650  Biso   1.000  H
  H236     1.0000 0.72420  0.68510  0.15350  Biso   1.000  H
  H237     1.0000 0.81490  0.84650  0.22420  Biso   1.000  H
  H238     1.0000 0.81490  0.15350  0.77580  Biso   1.000  H
  H239     1.0000 0.18510  0.84650  0.77580  Biso   1.000  H
  H240     1.0000 0.18510  0.15350  0.22420  Biso   1.000  H
  H241     1.0000 0.72420  0.84650  0.81490  Biso   1.000  H
  H242     1.0000 0.27580  0.15350  0.81490  Biso   1.000  H
  H243     1.0000 0.27580  0.84650  0.18510  Biso   1.000  H
  H244     1.0000 0.72420  0.15350  0.18510  Biso   1.000  H
  H245     1.0000 0.81490  0.22420  0.34650  Biso   1.000  H
  H246     1.0000 0.81490  0.77580  0.65350  Biso   1.000  H
  H247     1.0000 0.18510  0.77580  0.34650  Biso   1.000  H
  H248     1.0000 0.18510  0.22420  0.65350  Biso   1.000  H
  H249     1.0000 0.34650  0.31490  0.72420  Biso   1.000  H
  H250     1.0000 0.65350  0.31490  0.27580  Biso   1.000  H
  H251     1.0000 0.34650  0.68510  0.27580  Biso   1.000  H
  H252     1.0000 0.65350  0.68510  0.72420  Biso   1.000  H
  H253     1.0000 0.84650  0.72420  0.31490  Biso   1.000  H
  H254     1.0000 0.15350  0.27580  0.31490  Biso   1.000  H
  H255     1.0000 0.84650  0.27580  0.68510  Biso   1.000  H
  H256     1.0000 0.15350  0.72420  0.68510  Biso   1.000  H
  H257     1.0000 0.22420  0.81490  0.84650  Biso   1.000  H
  H258     1.0000 0.77580  0.81490  0.15350  Biso   1.000  H
  H259     1.0000 0.77580  0.18510  0.84650  Biso   1.000  H
  H260     1.0000 0.22420  0.18510  0.15350  Biso   1.000  H
  H261     1.0000 0.31490  0.34650  0.22420  Biso   1.000  H
  H262     1.0000 0.31490  0.65350  0.77580  Biso   1.000  H
  H263     1.0000 0.68510  0.34650  0.77580  Biso   1.000  H
  H264     1.0000 0.68510  0.65350  0.22420  Biso   1.000  H
  H265     1.0000 0.72420  0.34650  0.31490  Biso   1.000  H
  H266     1.0000 0.27580  0.65350  0.31490  Biso   1.000  H
  H267     1.0000 0.27580  0.34650  0.68510  Biso   1.000  H
  H268     1.0000 0.72420  0.65350  0.68510  Biso   1.000  H
  H269     1.0000 0.81490  0.72420  0.84650  Biso   1.000  H
  H270     1.0000 0.81490  0.27580  0.15350  Biso   1.000  H
  H271     1.0000 0.18510  0.27580  0.84650  Biso   1.000  H
  H272     1.0000 0.18510  0.72420  0.15350  Biso   1.000  H
  H273     1.0000 0.34650  0.81490  0.22420  Biso   1.000  H
  H274     1.0000 0.65350  0.81490  0.77580  Biso   1.000  H
  H275     1.0000 0.34650  0.18510  0.77580  Biso   1.000  H
  H276     1.0000 0.65350  0.18510  0.22420  Biso   1.000  H
  H277     1.0000 0.84650  0.22420  0.81490  Biso   1.000  H
  H278     1.0000 0.15350  0.77580  0.81490  Biso   1.000  H
  H279     1.0000 0.84650  0.77580  0.18510  Biso   1.000  H
  H280     1.0000 0.15350  0.22420  0.18510  Biso   1.000  H
  H281     1.0000 0.22420  0.31490  0.34650  Biso   1.000  H
  H282     1.0000 0.77580  0.31490  0.65350  Biso   1.000  H
  H283     1.0000 0.77580  0.68510  0.34650  Biso   1.000  H
  H284     1.0000 0.22420  0.68510  0.65350  Biso   1.000  H
  H285     1.0000 0.31490  0.84650  0.72420  Biso   1.000  H
  H286     1.0000 0.31490  0.15350  0.27580  Biso   1.000  H
  H287     1.0000 0.68510  0.84650  0.27580  Biso   1.000  H
  H288     1.0000 0.68510  0.15350  0.72420  Biso   1.000  H
  C193     1.0000 0.00000  0.25000  0.25000  Biso   1.000  C
  C194     1.0000 0.00000  0.75000  0.25000  Biso   1.000  C
  C195     1.0000 0.00000  0.25000  0.75000  Biso   1.000  C
  C196     1.0000 0.00000  0.75000  0.75000  Biso   1.000  C
  C197     1.0000 0.25000  0.00000  0.25000  Biso   1.000  C
  C198     1.0000 0.25000  0.00000  0.75000  Biso   1.000  C
  C199     1.0000 0.75000  0.00000  0.25000  Biso   1.000  C
  C200     1.0000 0.75000  0.00000  0.75000  Biso   1.000  C
  C201     1.0000 0.25000  0.25000  0.00000  Biso   1.000  C
  C202     1.0000 0.75000  0.25000  0.00000  Biso   1.000  C
  C203     1.0000 0.25000  0.75000  0.00000  Biso   1.000  C
  C204     1.0000 0.75000  0.75000  0.00000  Biso   1.000  C
  C205     1.0000 0.75000  0.50000  0.75000  Biso   1.000  C
  C206     1.0000 0.25000  0.50000  0.75000  Biso   1.000  C
  C207     1.0000 0.75000  0.50000  0.25000  Biso   1.000  C
  C208     1.0000 0.25000  0.50000  0.25000  Biso   1.000  C
  C209     1.0000 0.50000  0.75000  0.75000  Biso   1.000  C
  C210     1.0000 0.50000  0.75000  0.25000  Biso   1.000  C
  C211     1.0000 0.50000  0.25000  0.75000  Biso   1.000  C
  C212     1.0000 0.50000  0.25000  0.25000  Biso   1.000  C
  C213     1.0000 0.75000  0.75000  0.50000  Biso   1.000  C
  C214     1.0000 0.75000  0.25000  0.50000  Biso   1.000  C
  C215     1.0000 0.25000  0.75000  0.50000  Biso   1.000  C
  C216     1.0000 0.25000  0.25000  0.50000  Biso   1.000  C
  C217     1.0000 0.02836  0.21358  0.26203  Biso   1.000  C
  C218     1.0000 0.97164  0.78642  0.26203  Biso   1.000  C
  C219     1.0000 0.97164  0.21358  0.73797  Biso   1.000  C
  C220     1.0000 0.02836  0.78642  0.73797  Biso   1.000  C
  C221     1.0000 0.26203  0.02836  0.21358  Biso   1.000  C
  C222     1.0000 0.26203  0.97164  0.78642  Biso   1.000  C
  C223     1.0000 0.73797  0.97164  0.21358  Biso   1.000  C
  C224     1.0000 0.73797  0.02836  0.78642  Biso   1.000  C
  C225     1.0000 0.21358  0.26203  0.02836  Biso   1.000  C
  C226     1.0000 0.78642  0.26203  0.97164  Biso   1.000  C
  C227     1.0000 0.21358  0.73797  0.97164  Biso   1.000  C
  C228     1.0000 0.78642  0.73797  0.02836  Biso   1.000  C
  C229     1.0000 0.71358  0.52836  0.76203  Biso   1.000  C
  C230     1.0000 0.28642  0.47164  0.76203  Biso   1.000  C
  C231     1.0000 0.71358  0.47164  0.23797  Biso   1.000  C
  C232     1.0000 0.28642  0.52836  0.23797  Biso   1.000  C
  C233     1.0000 0.52836  0.76203  0.71358  Biso   1.000  C
  C234     1.0000 0.47164  0.76203  0.28642  Biso   1.000  C
  C235     1.0000 0.47164  0.23797  0.71358  Biso   1.000  C
  C236     1.0000 0.52836  0.23797  0.28642  Biso   1.000  C
  C237     1.0000 0.76203  0.71358  0.52836  Biso   1.000  C
  C238     1.0000 0.76203  0.28642  0.47164  Biso   1.000  C
  C239     1.0000 0.23797  0.71358  0.47164  Biso   1.000  C
  C240     1.0000 0.23797  0.28642  0.52836  Biso   1.000  C
  C241     1.0000 0.02836  0.71358  0.76203  Biso   1.000  C
  C242     1.0000 0.97164  0.28642  0.76203  Biso   1.000  C
  C243     1.0000 0.97164  0.71358  0.23797  Biso   1.000  C
  C244     1.0000 0.02836  0.28642  0.23797  Biso   1.000  C
  C245     1.0000 0.26203  0.52836  0.71358  Biso   1.000  C
  C246     1.0000 0.26203  0.47164  0.28642  Biso   1.000  C
  C247     1.0000 0.73797  0.47164  0.71358  Biso   1.000  C
  C248     1.0000 0.73797  0.52836  0.28642  Biso   1.000  C
  C249     1.0000 0.21358  0.76203  0.52836  Biso   1.000  C
  C250     1.0000 0.78642  0.76203  0.47164  Biso   1.000  C
  C251     1.0000 0.21358  0.23797  0.47164  Biso   1.000  C
  C252     1.0000 0.78642  0.23797  0.52836  Biso   1.000  C
  C253     1.0000 0.71358  0.02836  0.26203  Biso   1.000  C
  C254     1.0000 0.28642  0.97164  0.26203  Biso   1.000  C
  C255     1.0000 0.71358  0.97164  0.73797  Biso   1.000  C
  C256     1.0000 0.28642  0.02836  0.73797  Biso   1.000  C
  C257     1.0000 0.52836  0.26203  0.21358  Biso   1.000  C
  C258     1.0000 0.47164  0.26203  0.78642  Biso   1.000  C
  C259     1.0000 0.47164  0.73797  0.21358  Biso   1.000  C
  C260     1.0000 0.52836  0.73797  0.78642  Biso   1.000  C
  C261     1.0000 0.76203  0.21358  0.02836  Biso   1.000  C
  C262     1.0000 0.76203  0.78642  0.97164  Biso   1.000  C
  C263     1.0000 0.23797  0.21358  0.97164  Biso   1.000  C
  C264     1.0000 0.23797  0.78642  0.02836  Biso   1.000  C
  C265     1.0000 0.52836  0.21358  0.76203  Biso   1.000  C
  C266     1.0000 0.47164  0.78642  0.76203  Biso   1.000  C
  C267     1.0000 0.47164  0.21358  0.23797  Biso   1.000  C
  C268     1.0000 0.52836  0.78642  0.23797  Biso   1.000  C
  C269     1.0000 0.76203  0.02836  0.71358  Biso   1.000  C
  C270     1.0000 0.76203  0.97164  0.28642  Biso   1.000  C
  C271     1.0000 0.23797  0.97164  0.71358  Biso   1.000  C
  C272     1.0000 0.23797  0.02836  0.28642  Biso   1.000  C
  C273     1.0000 0.71358  0.26203  0.52836  Biso   1.000  C
  C274     1.0000 0.28642  0.26203  0.47164  Biso   1.000  C
  C275     1.0000 0.71358  0.73797  0.47164  Biso   1.000  C
  C276     1.0000 0.28642  0.73797  0.52836  Biso   1.000  C
  C277     1.0000 0.21358  0.52836  0.26203  Biso   1.000  C
  C278     1.0000 0.78642  0.47164  0.26203  Biso   1.000  C
  C279     1.0000 0.21358  0.47164  0.73797  Biso   1.000  C
  C280     1.0000 0.78642  0.52836  0.73797  Biso   1.000  C
  C281     1.0000 0.02836  0.76203  0.21358  Biso   1.000  C
  C282     1.0000 0.97164  0.76203  0.78642  Biso   1.000  C
  C283     1.0000 0.97164  0.23797  0.21358  Biso   1.000  C
  C284     1.0000 0.02836  0.23797  0.78642  Biso   1.000  C
  C285     1.0000 0.26203  0.71358  0.02836  Biso   1.000  C
  C286     1.0000 0.26203  0.28642  0.97164  Biso   1.000  C
  C287     1.0000 0.73797  0.71358  0.97164  Biso   1.000  C
  C288     1.0000 0.73797  0.28642  0.02836  Biso   1.000  C
  C289     1.0000 0.52836  0.71358  0.26203  Biso   1.000  C
  C290     1.0000 0.47164  0.28642  0.26203  Biso   1.000  C
  C291     1.0000 0.47164  0.71358  0.73797  Biso   1.000  C
  C292     1.0000 0.52836  0.28642  0.73797  Biso   1.000  C
  C293     1.0000 0.76203  0.52836  0.21358  Biso   1.000  C
  C294     1.0000 0.76203  0.47164  0.78642  Biso   1.000  C
  C295     1.0000 0.23797  0.47164  0.21358  Biso   1.000  C
  C296     1.0000 0.23797  0.52836  0.78642  Biso   1.000  C
  C297     1.0000 0.71358  0.76203  0.02836  Biso   1.000  C
  C298     1.0000 0.28642  0.76203  0.97164  Biso   1.000  C
  C299     1.0000 0.71358  0.23797  0.97164  Biso   1.000  C
  C300     1.0000 0.28642  0.23797  0.02836  Biso   1.000  C
  C301     1.0000 0.21358  0.02836  0.76203  Biso   1.000  C
  C302     1.0000 0.78642  0.97164  0.76203  Biso   1.000  C
  C303     1.0000 0.21358  0.97164  0.23797  Biso   1.000  C
  C304     1.0000 0.78642  0.02836  0.23797  Biso   1.000  C
  C305     1.0000 0.02836  0.26203  0.71358  Biso   1.000  C
  C306     1.0000 0.97164  0.26203  0.28642  Biso   1.000  C
  C307     1.0000 0.97164  0.73797  0.71358  Biso   1.000  C
  C308     1.0000 0.02836  0.73797  0.28642  Biso   1.000  C
  C309     1.0000 0.26203  0.21358  0.52836  Biso   1.000  C
  C310     1.0000 0.26203  0.78642  0.47164  Biso   1.000  C
  C311     1.0000 0.73797  0.21358  0.47164  Biso   1.000  C
  C312     1.0000 0.73797  0.78642  0.52836  Biso   1.000  C
  H289     1.0000 0.04490  0.20480  0.23820  Biso   1.000  H
  H290     1.0000 0.95510  0.79520  0.23820  Biso   1.000  H
  H291     1.0000 0.95510  0.20480  0.76180  Biso   1.000  H
  H292     1.0000 0.04490  0.79520  0.76180  Biso   1.000  H
  H293     1.0000 0.23820  0.04490  0.20480  Biso   1.000  H
  H294     1.0000 0.23820  0.95510  0.79520  Biso   1.000  H
  H295     1.0000 0.76180  0.95510  0.20480  Biso   1.000  H
  H296     1.0000 0.76180  0.04490  0.79520  Biso   1.000  H
  H297     1.0000 0.20480  0.23820  0.04490  Biso   1.000  H
  H298     1.0000 0.79520  0.23820  0.95510  Biso   1.000  H
  H299     1.0000 0.20480  0.76180  0.95510  Biso   1.000  H
  H300     1.0000 0.79520  0.76180  0.04490  Biso   1.000  H
  H301     1.0000 0.70480  0.54490  0.73820  Biso   1.000  H
  H302     1.0000 0.29520  0.45510  0.73820  Biso   1.000  H
  H303     1.0000 0.70480  0.45510  0.26180  Biso   1.000  H
  H304     1.0000 0.29520  0.54490  0.26180  Biso   1.000  H
  H305     1.0000 0.54490  0.73820  0.70480  Biso   1.000  H
  H306     1.0000 0.45510  0.73820  0.29520  Biso   1.000  H
  H307     1.0000 0.45510  0.26180  0.70480  Biso   1.000  H
  H308     1.0000 0.54490  0.26180  0.29520  Biso   1.000  H
  H309     1.0000 0.73820  0.70480  0.54490  Biso   1.000  H
  H310     1.0000 0.73820  0.29520  0.45510  Biso   1.000  H
  H311     1.0000 0.26180  0.70480  0.45510  Biso   1.000  H
  H312     1.0000 0.26180  0.29520  0.54490  Biso   1.000  H
  H313     1.0000 0.04490  0.70480  0.73820  Biso   1.000  H
  H314     1.0000 0.95510  0.29520  0.73820  Biso   1.000  H
  H315     1.0000 0.95510  0.70480  0.26180  Biso   1.000  H
  H316     1.0000 0.04490  0.29520  0.26180  Biso   1.000  H
  H317     1.0000 0.23820  0.54490  0.70480  Biso   1.000  H
  H318     1.0000 0.23820  0.45510  0.29520  Biso   1.000  H
  H319     1.0000 0.76180  0.45510  0.70480  Biso   1.000  H
  H320     1.0000 0.76180  0.54490  0.29520  Biso   1.000  H
  H321     1.0000 0.20480  0.73820  0.54490  Biso   1.000  H
  H322     1.0000 0.79520  0.73820  0.45510  Biso   1.000  H
  H323     1.0000 0.20480  0.26180  0.45510  Biso   1.000  H
  H324     1.0000 0.79520  0.26180  0.54490  Biso   1.000  H
  H325     1.0000 0.70480  0.04490  0.23820  Biso   1.000  H
  H326     1.0000 0.29520  0.95510  0.23820  Biso   1.000  H
  H327     1.0000 0.70480  0.95510  0.76180  Biso   1.000  H
  H328     1.0000 0.29520  0.04490  0.76180  Biso   1.000  H
  H329     1.0000 0.54490  0.23820  0.20480  Biso   1.000  H
  H330     1.0000 0.45510  0.23820  0.79520  Biso   1.000  H
  H331     1.0000 0.45510  0.76180  0.20480  Biso   1.000  H
  H332     1.0000 0.54490  0.76180  0.79520  Biso   1.000  H
  H333     1.0000 0.73820  0.20480  0.04490  Biso   1.000  H
  H334     1.0000 0.73820  0.79520  0.95510  Biso   1.000  H
  H335     1.0000 0.26180  0.20480  0.95510  Biso   1.000  H
  H336     1.0000 0.26180  0.79520  0.04490  Biso   1.000  H
  H337     1.0000 0.54490  0.20480  0.73820  Biso   1.000  H
  H338     1.0000 0.45510  0.79520  0.73820  Biso   1.000  H
  H339     1.0000 0.45510  0.20480  0.26180  Biso   1.000  H
  H340     1.0000 0.54490  0.79520  0.26180  Biso   1.000  H
  H341     1.0000 0.73820  0.04490  0.70480  Biso   1.000  H
  H342     1.0000 0.73820  0.95510  0.29520  Biso   1.000  H
  H343     1.0000 0.26180  0.95510  0.70480  Biso   1.000  H
  H344     1.0000 0.26180  0.04490  0.29520  Biso   1.000  H
  H345     1.0000 0.70480  0.23820  0.54490  Biso   1.000  H
  H346     1.0000 0.29520  0.23820  0.45510  Biso   1.000  H
  H347     1.0000 0.70480  0.76180  0.45510  Biso   1.000  H
  H348     1.0000 0.29520  0.76180  0.54490  Biso   1.000  H
  H349     1.0000 0.20480  0.54490  0.23820  Biso   1.000  H
  H350     1.0000 0.79520  0.45510  0.23820  Biso   1.000  H
  H351     1.0000 0.20480  0.45510  0.76180  Biso   1.000  H
  H352     1.0000 0.79520  0.54490  0.76180  Biso   1.000  H
  H353     1.0000 0.04490  0.73820  0.20480  Biso   1.000  H
  H354     1.0000 0.95510  0.73820  0.79520  Biso   1.000  H
  H355     1.0000 0.95510  0.26180  0.20480  Biso   1.000  H
  H356     1.0000 0.04490  0.26180  0.79520  Biso   1.000  H
  H357     1.0000 0.23820  0.70480  0.04490  Biso   1.000  H
  H358     1.0000 0.23820  0.29520  0.95510  Biso   1.000  H
  H359     1.0000 0.76180  0.70480  0.95510  Biso   1.000  H
  H360     1.0000 0.76180  0.29520  0.04490  Biso   1.000  H
  H361     1.0000 0.54490  0.70480  0.23820  Biso   1.000  H
  H362     1.0000 0.45510  0.29520  0.23820  Biso   1.000  H
  H363     1.0000 0.45510  0.70480  0.76180  Biso   1.000  H
  H364     1.0000 0.54490  0.29520  0.76180  Biso   1.000  H
  H365     1.0000 0.73820  0.54490  0.20480  Biso   1.000  H
  H366     1.0000 0.73820  0.45510  0.79520  Biso   1.000  H
  H367     1.0000 0.26180  0.45510  0.20480  Biso   1.000  H
  H368     1.0000 0.26180  0.54490  0.79520  Biso   1.000  H
  H369     1.0000 0.70480  0.73820  0.04490  Biso   1.000  H
  H370     1.0000 0.29520  0.73820  0.95510  Biso   1.000  H
  H371     1.0000 0.70480  0.26180  0.95510  Biso   1.000  H
  H372     1.0000 0.29520  0.26180  0.04490  Biso   1.000  H
  H373     1.0000 0.20480  0.04490  0.73820  Biso   1.000  H
  H374     1.0000 0.79520  0.95510  0.73820  Biso   1.000  H
  H375     1.0000 0.20480  0.95510  0.26180  Biso   1.000  H
  H376     1.0000 0.79520  0.04490  0.26180  Biso   1.000  H
  H377     1.0000 0.04490  0.23820  0.70480  Biso   1.000  H
  H378     1.0000 0.95510  0.23820  0.29520  Biso   1.000  H
  H379     1.0000 0.95510  0.76180  0.70480  Biso   1.000  H
  H380     1.0000 0.04490  0.76180  0.29520  Biso   1.000  H
  H381     1.0000 0.23820  0.20480  0.54490  Biso   1.000  H
  H382     1.0000 0.23820  0.79520  0.45510  Biso   1.000  H
  H383     1.0000 0.76180  0.20480  0.45510  Biso   1.000  H
  H384     1.0000 0.76180  0.79520  0.54490  Biso   1.000  H
  H385     1.0000 0.04710  0.22180  0.28430  Biso   1.000  H
  H386     1.0000 0.95290  0.77820  0.28430  Biso   1.000  H
  H387     1.0000 0.95290  0.22180  0.71570  Biso   1.000  H
  H388     1.0000 0.04710  0.77820  0.71570  Biso   1.000  H
  H389     1.0000 0.28430  0.04710  0.22180  Biso   1.000  H
  H390     1.0000 0.28430  0.95290  0.77820  Biso   1.000  H
  H391     1.0000 0.71570  0.95290  0.22180  Biso   1.000  H
  H392     1.0000 0.71570  0.04710  0.77820  Biso   1.000  H
  H393     1.0000 0.22180  0.28430  0.04710  Biso   1.000  H
  H394     1.0000 0.77820  0.28430  0.95290  Biso   1.000  H
  H395     1.0000 0.22180  0.71570  0.95290  Biso   1.000  H
  H396     1.0000 0.77820  0.71570  0.04710  Biso   1.000  H
  H397     1.0000 0.72180  0.54710  0.78430  Biso   1.000  H
  H398     1.0000 0.27820  0.45290  0.78430  Biso   1.000  H
  H399     1.0000 0.72180  0.45290  0.21570  Biso   1.000  H
  H400     1.0000 0.27820  0.54710  0.21570  Biso   1.000  H
  H401     1.0000 0.54710  0.78430  0.72180  Biso   1.000  H
  H402     1.0000 0.45290  0.78430  0.27820  Biso   1.000  H
  H403     1.0000 0.45290  0.21570  0.72180  Biso   1.000  H
  H404     1.0000 0.54710  0.21570  0.27820  Biso   1.000  H
  H405     1.0000 0.78430  0.72180  0.54710  Biso   1.000  H
  H406     1.0000 0.78430  0.27820  0.45290  Biso   1.000  H
  H407     1.0000 0.21570  0.72180  0.45290  Biso   1.000  H
  H408     1.0000 0.21570  0.27820  0.54710  Biso   1.000  H
  H409     1.0000 0.04710  0.72180  0.78430  Biso   1.000  H
  H410     1.0000 0.95290  0.27820  0.78430  Biso   1.000  H
  H411     1.0000 0.95290  0.72180  0.21570  Biso   1.000  H
  H412     1.0000 0.04710  0.27820  0.21570  Biso   1.000  H
  H413     1.0000 0.28430  0.54710  0.72180  Biso   1.000  H
  H414     1.0000 0.28430  0.45290  0.27820  Biso   1.000  H
  H415     1.0000 0.71570  0.45290  0.72180  Biso   1.000  H
  H416     1.0000 0.71570  0.54710  0.27820  Biso   1.000  H
  H417     1.0000 0.22180  0.78430  0.54710  Biso   1.000  H
  H418     1.0000 0.77820  0.78430  0.45290  Biso   1.000  H
  H419     1.0000 0.22180  0.21570  0.45290  Biso   1.000  H
  H420     1.0000 0.77820  0.21570  0.54710  Biso   1.000  H
  H421     1.0000 0.72180  0.04710  0.28430  Biso   1.000  H
  H422     1.0000 0.27820  0.95290  0.28430  Biso   1.000  H
  H423     1.0000 0.72180  0.95290  0.71570  Biso   1.000  H
  H424     1.0000 0.27820  0.04710  0.71570  Biso   1.000  H
  H425     1.0000 0.54710  0.28430  0.22180  Biso   1.000  H
  H426     1.0000 0.45290  0.28430  0.77820  Biso   1.000  H
  H427     1.0000 0.45290  0.71570  0.22180  Biso   1.000  H
  H428     1.0000 0.54710  0.71570  0.77820  Biso   1.000  H
  H429     1.0000 0.78430  0.22180  0.04710  Biso   1.000  H
  H430     1.0000 0.78430  0.77820  0.95290  Biso   1.000  H
  H431     1.0000 0.21570  0.22180  0.95290  Biso   1.000  H
  H432     1.0000 0.21570  0.77820  0.04710  Biso   1.000  H
  H433     1.0000 0.54710  0.22180  0.78430  Biso   1.000  H
  H434     1.0000 0.45290  0.77820  0.78430  Biso   1.000  H
  H435     1.0000 0.45290  0.22180  0.21570  Biso   1.000  H
  H436     1.0000 0.54710  0.77820  0.21570  Biso   1.000  H
  H437     1.0000 0.78430  0.04710  0.72180  Biso   1.000  H
  H438     1.0000 0.78430  0.95290  0.27820  Biso   1.000  H
  H439     1.0000 0.21570  0.95290  0.72180  Biso   1.000  H
  H440     1.0000 0.21570  0.04710  0.27820  Biso   1.000  H
  H441     1.0000 0.72180  0.28430  0.54710  Biso   1.000  H
  H442     1.0000 0.27820  0.28430  0.45290  Biso   1.000  H
  H443     1.0000 0.72180  0.71570  0.45290  Biso   1.000  H
  H444     1.0000 0.27820  0.71570  0.54710  Biso   1.000  H
  H445     1.0000 0.22180  0.54710  0.28430  Biso   1.000  H
  H446     1.0000 0.77820  0.45290  0.28430  Biso   1.000  H
  H447     1.0000 0.22180  0.45290  0.71570  Biso   1.000  H
  H448     1.0000 0.77820  0.54710  0.71570  Biso   1.000  H
  H449     1.0000 0.04710  0.78430  0.22180  Biso   1.000  H
  H450     1.0000 0.95290  0.78430  0.77820  Biso   1.000  H
  H451     1.0000 0.95290  0.21570  0.22180  Biso   1.000  H
  H452     1.0000 0.04710  0.21570  0.77820  Biso   1.000  H
  H453     1.0000 0.28430  0.72180  0.04710  Biso   1.000  H
  H454     1.0000 0.28430  0.27820  0.95290  Biso   1.000  H
  H455     1.0000 0.71570  0.72180  0.95290  Biso   1.000  H
  H456     1.0000 0.71570  0.27820  0.04710  Biso   1.000  H
  H457     1.0000 0.54710  0.72180  0.28430  Biso   1.000  H
  H458     1.0000 0.45290  0.27820  0.28430  Biso   1.000  H
  H459     1.0000 0.45290  0.72180  0.71570  Biso   1.000  H
  H460     1.0000 0.54710  0.27820  0.71570  Biso   1.000  H
  H461     1.0000 0.78430  0.54710  0.22180  Biso   1.000  H
  H462     1.0000 0.78430  0.45290  0.77820  Biso   1.000  H
  H463     1.0000 0.21570  0.45290  0.22180  Biso   1.000  H
  H464     1.0000 0.21570  0.54710  0.77820  Biso   1.000  H
  H465     1.0000 0.72180  0.78430  0.04710  Biso   1.000  H
  H466     1.0000 0.27820  0.78430  0.95290  Biso   1.000  H
  H467     1.0000 0.72180  0.21570  0.95290  Biso   1.000  H
  H468     1.0000 0.27820  0.21570  0.04710  Biso   1.000  H
  H469     1.0000 0.22180  0.04710  0.78430  Biso   1.000  H
  H470     1.0000 0.77820  0.95290  0.78430  Biso   1.000  H
  H471     1.0000 0.22180  0.95290  0.21570  Biso   1.000  H
  H472     1.0000 0.77820  0.04710  0.21570  Biso   1.000  H
  H473     1.0000 0.04710  0.28430  0.72180  Biso   1.000  H
  H474     1.0000 0.95290  0.28430  0.27820  Biso   1.000  H
  H475     1.0000 0.95290  0.71570  0.72180  Biso   1.000  H
  H476     1.0000 0.04710  0.71570  0.27820  Biso   1.000  H
  H477     1.0000 0.28430  0.22180  0.54710  Biso   1.000  H
  H478     1.0000 0.28430  0.77820  0.45290  Biso   1.000  H
  H479     1.0000 0.71570  0.22180  0.45290  Biso   1.000  H
  H480     1.0000 0.71570  0.77820  0.54710  Biso   1.000  H
  O1       1.0000 0.00191  0.18026  0.27561  Biso   1.000  O
  O2       1.0000 0.99809  0.81974  0.27561  Biso   1.000  O
  O3       1.0000 0.99809  0.18026  0.72439  Biso   1.000  O
  O4       1.0000 0.00191  0.81974  0.72439  Biso   1.000  O
  O5       1.0000 0.27561  0.00191  0.18026  Biso   1.000  O
  O6       1.0000 0.27561  0.99809  0.81974  Biso   1.000  O
  O7       1.0000 0.72439  0.99809  0.18026  Biso   1.000  O
  O8       1.0000 0.72439  0.00191  0.81974  Biso   1.000  O
  O9       1.0000 0.18026  0.27561  0.00191  Biso   1.000  O
  O10      1.0000 0.81974  0.27561  0.99809  Biso   1.000  O
  O11      1.0000 0.18026  0.72439  0.99809  Biso   1.000  O
  O12      1.0000 0.81974  0.72439  0.00191  Biso   1.000  O
  O13      1.0000 0.68026  0.50191  0.77561  Biso   1.000  O
  O14      1.0000 0.31974  0.49809  0.77561  Biso   1.000  O
  O15      1.0000 0.68026  0.49809  0.22439  Biso   1.000  O
  O16      1.0000 0.31974  0.50191  0.22439  Biso   1.000  O
  O17      1.0000 0.50191  0.77561  0.68026  Biso   1.000  O
  O18      1.0000 0.49809  0.77561  0.31974  Biso   1.000  O
  O19      1.0000 0.49809  0.22439  0.68026  Biso   1.000  O
  O20      1.0000 0.50191  0.22439  0.31974  Biso   1.000  O
  O21      1.0000 0.77561  0.68026  0.50191  Biso   1.000  O
  O22      1.0000 0.77561  0.31974  0.49809  Biso   1.000  O
  O23      1.0000 0.22439  0.68026  0.49809  Biso   1.000  O
  O24      1.0000 0.22439  0.31974  0.50191  Biso   1.000  O
  O25      1.0000 0.00191  0.68026  0.77561  Biso   1.000  O
  O26      1.0000 0.99809  0.31974  0.77561  Biso   1.000  O
  O27      1.0000 0.99809  0.68026  0.22439  Biso   1.000  O
  O28      1.0000 0.00191  0.31974  0.22439  Biso   1.000  O
  O29      1.0000 0.27561  0.50191  0.68026  Biso   1.000  O
  O30      1.0000 0.27561  0.49809  0.31974  Biso   1.000  O
  O31      1.0000 0.72439  0.49809  0.68026  Biso   1.000  O
  O32      1.0000 0.72439  0.50191  0.31974  Biso   1.000  O
  O33      1.0000 0.18026  0.77561  0.50191  Biso   1.000  O
  O34      1.0000 0.81974  0.77561  0.49809  Biso   1.000  O
  O35      1.0000 0.18026  0.22439  0.49809  Biso   1.000  O
  O36      1.0000 0.81974  0.22439  0.50191  Biso   1.000  O
  O37      1.0000 0.68026  0.00191  0.27561  Biso   1.000  O
  O38      1.0000 0.31974  0.99809  0.27561  Biso   1.000  O
  O39      1.0000 0.68026  0.99809  0.72439  Biso   1.000  O
  O40      1.0000 0.31974  0.00191  0.72439  Biso   1.000  O
  O41      1.0000 0.50191  0.27561  0.18026  Biso   1.000  O
  O42      1.0000 0.49809  0.27561  0.81974  Biso   1.000  O
  O43      1.0000 0.49809  0.72439  0.18026  Biso   1.000  O
  O44      1.0000 0.50191  0.72439  0.81974  Biso   1.000  O
  O45      1.0000 0.77561  0.18026  0.00191  Biso   1.000  O
  O46      1.0000 0.77561  0.81974  0.99809  Biso   1.000  O
  O47      1.0000 0.22439  0.18026  0.99809  Biso   1.000  O
  O48      1.0000 0.22439  0.81974  0.00191  Biso   1.000  O
  O49      1.0000 0.50191  0.18026  0.77561  Biso   1.000  O
  O50      1.0000 0.49809  0.81974  0.77561  Biso   1.000  O
  O51      1.0000 0.49809  0.18026  0.22439  Biso   1.000  O
  O52      1.0000 0.50191  0.81974  0.22439  Biso   1.000  O
  O53      1.0000 0.77561  0.00191  0.68026  Biso   1.000  O
  O54      1.0000 0.77561  0.99809  0.31974  Biso   1.000  O
  O55      1.0000 0.22439  0.99809  0.68026  Biso   1.000  O
  O56      1.0000 0.22439  0.00191  0.31974  Biso   1.000  O
  O57      1.0000 0.68026  0.27561  0.50191  Biso   1.000  O
  O58      1.0000 0.31974  0.27561  0.49809  Biso   1.000  O
  O59      1.0000 0.68026  0.72439  0.49809  Biso   1.000  O
  O60      1.0000 0.31974  0.72439  0.50191  Biso   1.000  O
  O61      1.0000 0.18026  0.50191  0.27561  Biso   1.000  O
  O62      1.0000 0.81974  0.49809  0.27561  Biso   1.000  O
  O63      1.0000 0.18026  0.49809  0.72439  Biso   1.000  O
  O64      1.0000 0.81974  0.50191  0.72439  Biso   1.000  O
  O65      1.0000 0.00191  0.77561  0.18026  Biso   1.000  O
  O66      1.0000 0.99809  0.77561  0.81974  Biso   1.000  O
  O67      1.0000 0.99809  0.22439  0.18026  Biso   1.000  O
  O68      1.0000 0.00191  0.22439  0.81974  Biso   1.000  O
  O69      1.0000 0.27561  0.68026  0.00191  Biso   1.000  O
  O70      1.0000 0.27561  0.31974  0.99809  Biso   1.000  O
  O71      1.0000 0.72439  0.68026  0.99809  Biso   1.000  O
  O72      1.0000 0.72439  0.31974  0.00191  Biso   1.000  O
  O73      1.0000 0.50191  0.68026  0.27561  Biso   1.000  O
  O74      1.0000 0.49809  0.31974  0.27561  Biso   1.000  O
  O75      1.0000 0.49809  0.68026  0.72439  Biso   1.000  O
  O76      1.0000 0.50191  0.31974  0.72439  Biso   1.000  O
  O77      1.0000 0.77561  0.50191  0.18026  Biso   1.000  O
  O78      1.0000 0.77561  0.49809  0.81974  Biso   1.000  O
  O79      1.0000 0.22439  0.49809  0.18026  Biso   1.000  O
  O80      1.0000 0.22439  0.50191  0.81974  Biso   1.000  O
  O81      1.0000 0.68026  0.77561  0.00191  Biso   1.000  O
  O82      1.0000 0.31974  0.77561  0.99809  Biso   1.000  O
  O83      1.0000 0.68026  0.22439  0.99809  Biso   1.000  O
  O84      1.0000 0.31974  0.22439  0.00191  Biso   1.000  O
  O85      1.0000 0.18026  0.00191  0.77561  Biso   1.000  O
  O86      1.0000 0.81974  0.99809  0.77561  Biso   1.000  O
  O87      1.0000 0.18026  0.99809  0.22439  Biso   1.000  O
  O88      1.0000 0.81974  0.00191  0.22439  Biso   1.000  O
  O89      1.0000 0.00191  0.27561  0.68026  Biso   1.000  O
  O90      1.0000 0.99809  0.27561  0.31974  Biso   1.000  O
  O91      1.0000 0.99809  0.72439  0.68026  Biso   1.000  O
  O92      1.0000 0.00191  0.72439  0.31974  Biso   1.000  O
  O93      1.0000 0.27561  0.18026  0.50191  Biso   1.000  O
  O94      1.0000 0.27561  0.81974  0.49809  Biso   1.000  O
  O95      1.0000 0.72439  0.18026  0.49809  Biso   1.000  O
  O96      1.0000 0.72439  0.81974  0.50191  Biso   1.000  O
  C313     1.0000 0.02082  0.14412  0.28822  Biso   1.000  C
  C314     1.0000 0.97918  0.85588  0.28822  Biso   1.000  C
  C315     1.0000 0.97918  0.14412  0.71178  Biso   1.000  C
  C316     1.0000 0.02082  0.85588  0.71178  Biso   1.000  C
  C317     1.0000 0.28822  0.02082  0.14412  Biso   1.000  C
  C318     1.0000 0.28822  0.97918  0.85588  Biso   1.000  C
  C319     1.0000 0.71178  0.97918  0.14412  Biso   1.000  C
  C320     1.0000 0.71178  0.02082  0.85588  Biso   1.000  C
  C321     1.0000 0.14412  0.28822  0.02082  Biso   1.000  C
  C322     1.0000 0.85588  0.28822  0.97918  Biso   1.000  C
  C323     1.0000 0.14412  0.71178  0.97918  Biso   1.000  C
  C324     1.0000 0.85588  0.71178  0.02082  Biso   1.000  C
  C325     1.0000 0.64412  0.52082  0.78822  Biso   1.000  C
  C326     1.0000 0.35588  0.47918  0.78822  Biso   1.000  C
  C327     1.0000 0.64412  0.47918  0.21178  Biso   1.000  C
  C328     1.0000 0.35588  0.52082  0.21178  Biso   1.000  C
  C329     1.0000 0.52082  0.78822  0.64412  Biso   1.000  C
  C330     1.0000 0.47918  0.78822  0.35588  Biso   1.000  C
  C331     1.0000 0.47918  0.21178  0.64412  Biso   1.000  C
  C332     1.0000 0.52082  0.21178  0.35588  Biso   1.000  C
  C333     1.0000 0.78822  0.64412  0.52082  Biso   1.000  C
  C334     1.0000 0.78822  0.35588  0.47918  Biso   1.000  C
  C335     1.0000 0.21178  0.64412  0.47918  Biso   1.000  C
  C336     1.0000 0.21178  0.35588  0.52082  Biso   1.000  C
  C337     1.0000 0.02082  0.64412  0.78822  Biso   1.000  C
  C338     1.0000 0.97918  0.35588  0.78822  Biso   1.000  C
  C339     1.0000 0.97918  0.64412  0.21178  Biso   1.000  C
  C340     1.0000 0.02082  0.35588  0.21178  Biso   1.000  C
  C341     1.0000 0.28822  0.52082  0.64412  Biso   1.000  C
  C342     1.0000 0.28822  0.47918  0.35588  Biso   1.000  C
  C343     1.0000 0.71178  0.47918  0.64412  Biso   1.000  C
  C344     1.0000 0.71178  0.52082  0.35588  Biso   1.000  C
  C345     1.0000 0.14412  0.78822  0.52082  Biso   1.000  C
  C346     1.0000 0.85588  0.78822  0.47918  Biso   1.000  C
  C347     1.0000 0.14412  0.21178  0.47918  Biso   1.000  C
  C348     1.0000 0.85588  0.21178  0.52082  Biso   1.000  C
  C349     1.0000 0.64412  0.02082  0.28822  Biso   1.000  C
  C350     1.0000 0.35588  0.97918  0.28822  Biso   1.000  C
  C351     1.0000 0.64412  0.97918  0.71178  Biso   1.000  C
  C352     1.0000 0.35588  0.02082  0.71178  Biso   1.000  C
  C353     1.0000 0.52082  0.28822  0.14412  Biso   1.000  C
  C354     1.0000 0.47918  0.28822  0.85588  Biso   1.000  C
  C355     1.0000 0.47918  0.71178  0.14412  Biso   1.000  C
  C356     1.0000 0.52082  0.71178  0.85588  Biso   1.000  C
  C357     1.0000 0.78822  0.14412  0.02082  Biso   1.000  C
  C358     1.0000 0.78822  0.85588  0.97918  Biso   1.000  C
  C359     1.0000 0.21178  0.14412  0.97918  Biso   1.000  C
  C360     1.0000 0.21178  0.85588  0.02082  Biso   1.000  C
  C361     1.0000 0.52082  0.14412  0.78822  Biso   1.000  C
  C362     1.0000 0.47918  0.85588  0.78822  Biso   1.000  C
  C363     1.0000 0.47918  0.14412  0.21178  Biso   1.000  C
  C364     1.0000 0.52082  0.85588  0.21178  Biso   1.000  C
  C365     1.0000 0.78822  0.02082  0.64412  Biso   1.000  C
  C366     1.0000 0.78822  0.97918  0.35588  Biso   1.000  C
  C367     1.0000 0.21178  0.97918  0.64412  Biso   1.000  C
  C368     1.0000 0.21178  0.02082  0.35588  Biso   1.000  C
  C369     1.0000 0.64412  0.28822  0.52082  Biso   1.000  C
  C370     1.0000 0.35588  0.28822  0.47918  Biso   1.000  C
  C371     1.0000 0.64412  0.71178  0.47918  Biso   1.000  C
  C372     1.0000 0.35588  0.71178  0.52082  Biso   1.000  C
  C373     1.0000 0.14412  0.52082  0.28822  Biso   1.000  C
  C374     1.0000 0.85588  0.47918  0.28822  Biso   1.000  C
  C375     1.0000 0.14412  0.47918  0.71178  Biso   1.000  C
  C376     1.0000 0.85588  0.52082  0.71178  Biso   1.000  C
  C377     1.0000 0.02082  0.78822  0.14412  Biso   1.000  C
  C378     1.0000 0.97918  0.78822  0.85588  Biso   1.000  C
  C379     1.0000 0.97918  0.21178  0.14412  Biso   1.000  C
  C380     1.0000 0.02082  0.21178  0.85588  Biso   1.000  C
  C381     1.0000 0.28822  0.64412  0.02082  Biso   1.000  C
  C382     1.0000 0.28822  0.35588  0.97918  Biso   1.000  C
  C383     1.0000 0.71178  0.64412  0.97918  Biso   1.000  C
  C384     1.0000 0.71178  0.35588  0.02082  Biso   1.000  C
  C385     1.0000 0.52082  0.64412  0.28822  Biso   1.000  C
  C386     1.0000 0.47918  0.35588  0.28822  Biso   1.000  C
  C387     1.0000 0.47918  0.64412  0.71178  Biso   1.000  C
  C388     1.0000 0.52082  0.35588  0.71178  Biso   1.000  C
  C389     1.0000 0.78822  0.52082  0.14412  Biso   1.000  C
  C390     1.0000 0.78822  0.47918  0.85588  Biso   1.000  C
  C391     1.0000 0.21178  0.47918  0.14412  Biso   1.000  C
  C392     1.0000 0.21178  0.52082  0.85588  Biso   1.000  C
  C393     1.0000 0.64412  0.78822  0.02082  Biso   1.000  C
  C394     1.0000 0.35588  0.78822  0.97918  Biso   1.000  C
  C395     1.0000 0.64412  0.21178  0.97918  Biso   1.000  C
  C396     1.0000 0.35588  0.21178  0.02082  Biso   1.000  C
  C397     1.0000 0.14412  0.02082  0.78822  Biso   1.000  C
  C398     1.0000 0.85588  0.97918  0.78822  Biso   1.000  C
  C399     1.0000 0.14412  0.97918  0.21178  Biso   1.000  C
  C400     1.0000 0.85588  0.02082  0.21178  Biso   1.000  C
  C401     1.0000 0.02082  0.28822  0.64412  Biso   1.000  C
  C402     1.0000 0.97918  0.28822  0.35588  Biso   1.000  C
  C403     1.0000 0.97918  0.71178  0.64412  Biso   1.000  C
  C404     1.0000 0.02082  0.71178  0.35588  Biso   1.000  C
  C405     1.0000 0.28822  0.14412  0.52082  Biso   1.000  C
  C406     1.0000 0.28822  0.85588  0.47918  Biso   1.000  C
  C407     1.0000 0.71178  0.14412  0.47918  Biso   1.000  C
  C408     1.0000 0.71178  0.85588  0.52082  Biso   1.000  C
  C409     1.0000 0.99457  0.11478  0.30638  Biso   1.000  C
  C410     1.0000 0.00543  0.88522  0.30638  Biso   1.000  C
  C411     1.0000 0.00543  0.11478  0.69362  Biso   1.000  C
  C412     1.0000 0.99457  0.88522  0.69362  Biso   1.000  C
  C413     1.0000 0.30638  0.99457  0.11478  Biso   1.000  C
  C414     1.0000 0.30638  0.00543  0.88522  Biso   1.000  C
  C415     1.0000 0.69362  0.00543  0.11478  Biso   1.000  C
  C416     1.0000 0.69362  0.99457  0.88522  Biso   1.000  C
  C417     1.0000 0.11478  0.30638  0.99457  Biso   1.000  C
  C418     1.0000 0.88522  0.30638  0.00543  Biso   1.000  C
  C419     1.0000 0.11478  0.69362  0.00543  Biso   1.000  C
  C420     1.0000 0.88522  0.69362  0.99457  Biso   1.000  C
  C421     1.0000 0.61478  0.49457  0.80638  Biso   1.000  C
  C422     1.0000 0.38522  0.50543  0.80638  Biso   1.000  C
  C423     1.0000 0.61478  0.50543  0.19362  Biso   1.000  C
  C424     1.0000 0.38522  0.49457  0.19362  Biso   1.000  C
  C425     1.0000 0.49457  0.80638  0.61478  Biso   1.000  C
  C426     1.0000 0.50543  0.80638  0.38522  Biso   1.000  C
  C427     1.0000 0.50543  0.19362  0.61478  Biso   1.000  C
  C428     1.0000 0.49457  0.19362  0.38522  Biso   1.000  C
  C429     1.0000 0.80638  0.61478  0.49457  Biso   1.000  C
  C430     1.0000 0.80638  0.38522  0.50543  Biso   1.000  C
  C431     1.0000 0.19362  0.61478  0.50543  Biso   1.000  C
  C432     1.0000 0.19362  0.38522  0.49457  Biso   1.000  C
  C433     1.0000 0.99457  0.61478  0.80638  Biso   1.000  C
  C434     1.0000 0.00543  0.38522  0.80638  Biso   1.000  C
  C435     1.0000 0.00543  0.61478  0.19362  Biso   1.000  C
  C436     1.0000 0.99457  0.38522  0.19362  Biso   1.000  C
  C437     1.0000 0.30638  0.49457  0.61478  Biso   1.000  C
  C438     1.0000 0.30638  0.50543  0.38522  Biso   1.000  C
  C439     1.0000 0.69362  0.50543  0.61478  Biso   1.000  C
  C440     1.0000 0.69362  0.49457  0.38522  Biso   1.000  C
  C441     1.0000 0.11478  0.80638  0.49457  Biso   1.000  C
  C442     1.0000 0.88522  0.80638  0.50543  Biso   1.000  C
  C443     1.0000 0.11478  0.19362  0.50543  Biso   1.000  C
  C444     1.0000 0.88522  0.19362  0.49457  Biso   1.000  C
  C445     1.0000 0.61478  0.99457  0.30638  Biso   1.000  C
  C446     1.0000 0.38522  0.00543  0.30638  Biso   1.000  C
  C447     1.0000 0.61478  0.00543  0.69362  Biso   1.000  C
  C448     1.0000 0.38522  0.99457  0.69362  Biso   1.000  C
  C449     1.0000 0.49457  0.30638  0.11478  Biso   1.000  C
  C450     1.0000 0.50543  0.30638  0.88522  Biso   1.000  C
  C451     1.0000 0.50543  0.69362  0.11478  Biso   1.000  C
  C452     1.0000 0.49457  0.69362  0.88522  Biso   1.000  C
  C453     1.0000 0.80638  0.11478  0.99457  Biso   1.000  C
  C454     1.0000 0.80638  0.88522  0.00543  Biso   1.000  C
  C455     1.0000 0.19362  0.11478  0.00543  Biso   1.000  C
  C456     1.0000 0.19362  0.88522  0.99457  Biso   1.000  C
  C457     1.0000 0.49457  0.11478  0.80638  Biso   1.000  C
  C458     1.0000 0.50543  0.88522  0.80638  Biso   1.000  C
  C459     1.0000 0.50543  0.11478  0.19362  Biso   1.000  C
  C460     1.0000 0.49457  0.88522  0.19362  Biso   1.000  C
  C461     1.0000 0.80638  0.99457  0.61478  Biso   1.000  C
  C462     1.0000 0.80638  0.00543  0.38522  Biso   1.000  C
  C463     1.0000 0.19362  0.00543  0.61478  Biso   1.000  C
  C464     1.0000 0.19362  0.99457  0.38522  Biso   1.000  C
  C465     1.0000 0.61478  0.30638  0.49457  Biso   1.000  C
  C466     1.0000 0.38522  0.30638  0.50543  Biso   1.000  C
  C467     1.0000 0.61478  0.69362  0.50543  Biso   1.000  C
  C468     1.0000 0.38522  0.69362  0.49457  Biso   1.000  C
  C469     1.0000 0.11478  0.49457  0.30638  Biso   1.000  C
  C470     1.0000 0.88522  0.50543  0.30638  Biso   1.000  C
  C471     1.0000 0.11478  0.50543  0.69362  Biso   1.000  C
  C472     1.0000 0.88522  0.49457  0.69362  Biso   1.000  C
  C473     1.0000 0.99457  0.80638  0.11478  Biso   1.000  C
  C474     1.0000 0.00543  0.80638  0.88522  Biso   1.000  C
  C475     1.0000 0.00543  0.19362  0.11478  Biso   1.000  C
  C476     1.0000 0.99457  0.19362  0.88522  Biso   1.000  C
  C477     1.0000 0.30638  0.61478  0.99457  Biso   1.000  C
  C478     1.0000 0.30638  0.38522  0.00543  Biso   1.000  C
  C479     1.0000 0.69362  0.61478  0.00543  Biso   1.000  C
  C480     1.0000 0.69362  0.38522  0.99457  Biso   1.000  C
  C481     1.0000 0.49457  0.61478  0.30638  Biso   1.000  C
  C482     1.0000 0.50543  0.38522  0.30638  Biso   1.000  C
  C483     1.0000 0.50543  0.61478  0.69362  Biso   1.000  C
  C484     1.0000 0.49457  0.38522  0.69362  Biso   1.000  C
  C485     1.0000 0.80638  0.49457  0.11478  Biso   1.000  C
  C486     1.0000 0.80638  0.50543  0.88522  Biso   1.000  C
  C487     1.0000 0.19362  0.50543  0.11478  Biso   1.000  C
  C488     1.0000 0.19362  0.49457  0.88522  Biso   1.000  C
  C489     1.0000 0.61478  0.80638  0.99457  Biso   1.000  C
  C490     1.0000 0.38522  0.80638  0.00543  Biso   1.000  C
  C491     1.0000 0.61478  0.19362  0.00543  Biso   1.000  C
  C492     1.0000 0.38522  0.19362  0.99457  Biso   1.000  C
  C493     1.0000 0.11478  0.99457  0.80638  Biso   1.000  C
  C494     1.0000 0.88522  0.00543  0.80638  Biso   1.000  C
  C495     1.0000 0.11478  0.00543  0.19362  Biso   1.000  C
  C496     1.0000 0.88522  0.99457  0.19362  Biso   1.000  C
  C497     1.0000 0.99457  0.30638  0.61478  Biso   1.000  C
  C498     1.0000 0.00543  0.30638  0.38522  Biso   1.000  C
  C499     1.0000 0.00543  0.69362  0.61478  Biso   1.000  C
  C500     1.0000 0.99457  0.69362  0.38522  Biso   1.000  C
  C501     1.0000 0.30638  0.11478  0.49457  Biso   1.000  C
  C502     1.0000 0.30638  0.88522  0.50543  Biso   1.000  C
  C503     1.0000 0.69362  0.11478  0.50543  Biso   1.000  C
  C504     1.0000 0.69362  0.88522  0.49457  Biso   1.000  C
  H481     1.0000 0.96630  0.12040  0.30940  Biso   1.000  H
  H482     1.0000 0.03370  0.87960  0.30940  Biso   1.000  H
  H483     1.0000 0.03370  0.12040  0.69060  Biso   1.000  H
  H484     1.0000 0.96630  0.87960  0.69060  Biso   1.000  H
  H485     1.0000 0.30940  0.96630  0.12040  Biso   1.000  H
  H486     1.0000 0.30940  0.03370  0.87960  Biso   1.000  H
  H487     1.0000 0.69060  0.03370  0.12040  Biso   1.000  H
  H488     1.0000 0.69060  0.96630  0.87960  Biso   1.000  H
  H489     1.0000 0.12040  0.30940  0.96630  Biso   1.000  H
  H490     1.0000 0.87960  0.30940  0.03370  Biso   1.000  H
  H491     1.0000 0.12040  0.69060  0.03370  Biso   1.000  H
  H492     1.0000 0.87960  0.69060  0.96630  Biso   1.000  H
  H493     1.0000 0.62040  0.46630  0.80940  Biso   1.000  H
  H494     1.0000 0.37960  0.53370  0.80940  Biso   1.000  H
  H495     1.0000 0.62040  0.53370  0.19060  Biso   1.000  H
  H496     1.0000 0.37960  0.46630  0.19060  Biso   1.000  H
  H497     1.0000 0.46630  0.80940  0.62040  Biso   1.000  H
  H498     1.0000 0.53370  0.80940  0.37960  Biso   1.000  H
  H499     1.0000 0.53370  0.19060  0.62040  Biso   1.000  H
  H500     1.0000 0.46630  0.19060  0.37960  Biso   1.000  H
  H501     1.0000 0.80940  0.62040  0.46630  Biso   1.000  H
  H502     1.0000 0.80940  0.37960  0.53370  Biso   1.000  H
  H503     1.0000 0.19060  0.62040  0.53370  Biso   1.000  H
  H504     1.0000 0.19060  0.37960  0.46630  Biso   1.000  H
  H505     1.0000 0.96630  0.62040  0.80940  Biso   1.000  H
  H506     1.0000 0.03370  0.37960  0.80940  Biso   1.000  H
  H507     1.0000 0.03370  0.62040  0.19060  Biso   1.000  H
  H508     1.0000 0.96630  0.37960  0.19060  Biso   1.000  H
  H509     1.0000 0.30940  0.46630  0.62040  Biso   1.000  H
  H510     1.0000 0.30940  0.53370  0.37960  Biso   1.000  H
  H511     1.0000 0.69060  0.53370  0.62040  Biso   1.000  H
  H512     1.0000 0.69060  0.46630  0.37960  Biso   1.000  H
  H513     1.0000 0.12040  0.80940  0.46630  Biso   1.000  H
  H514     1.0000 0.87960  0.80940  0.53370  Biso   1.000  H
  H515     1.0000 0.12040  0.19060  0.53370  Biso   1.000  H
  H516     1.0000 0.87960  0.19060  0.46630  Biso   1.000  H
  H517     1.0000 0.62040  0.96630  0.30940  Biso   1.000  H
  H518     1.0000 0.37960  0.03370  0.30940  Biso   1.000  H
  H519     1.0000 0.62040  0.03370  0.69060  Biso   1.000  H
  H520     1.0000 0.37960  0.96630  0.69060  Biso   1.000  H
  H521     1.0000 0.46630  0.30940  0.12040  Biso   1.000  H
  H522     1.0000 0.53370  0.30940  0.87960  Biso   1.000  H
  H523     1.0000 0.53370  0.69060  0.12040  Biso   1.000  H
  H524     1.0000 0.46630  0.69060  0.87960  Biso   1.000  H
  H525     1.0000 0.80940  0.12040  0.96630  Biso   1.000  H
  H526     1.0000 0.80940  0.87960  0.03370  Biso   1.000  H
  H527     1.0000 0.19060  0.12040  0.03370  Biso   1.000  H
  H528     1.0000 0.19060  0.87960  0.96630  Biso   1.000  H
  H529     1.0000 0.46630  0.12040  0.80940  Biso   1.000  H
  H530     1.0000 0.53370  0.87960  0.80940  Biso   1.000  H
  H531     1.0000 0.53370  0.12040  0.19060  Biso   1.000  H
  H532     1.0000 0.46630  0.87960  0.19060  Biso   1.000  H
  H533     1.0000 0.80940  0.96630  0.62040  Biso   1.000  H
  H534     1.0000 0.80940  0.03370  0.37960  Biso   1.000  H
  H535     1.0000 0.19060  0.03370  0.62040  Biso   1.000  H
  H536     1.0000 0.19060  0.96630  0.37960  Biso   1.000  H
  H537     1.0000 0.62040  0.30940  0.46630  Biso   1.000  H
  H538     1.0000 0.37960  0.30940  0.53370  Biso   1.000  H
  H539     1.0000 0.62040  0.69060  0.53370  Biso   1.000  H
  H540     1.0000 0.37960  0.69060  0.46630  Biso   1.000  H
  H541     1.0000 0.12040  0.46630  0.30940  Biso   1.000  H
  H542     1.0000 0.87960  0.53370  0.30940  Biso   1.000  H
  H543     1.0000 0.12040  0.53370  0.69060  Biso   1.000  H
  H544     1.0000 0.87960  0.46630  0.69060  Biso   1.000  H
  H545     1.0000 0.96630  0.80940  0.12040  Biso   1.000  H
  H546     1.0000 0.03370  0.80940  0.87960  Biso   1.000  H
  H547     1.0000 0.03370  0.19060  0.12040  Biso   1.000  H
  H548     1.0000 0.96630  0.19060  0.87960  Biso   1.000  H
  H549     1.0000 0.30940  0.62040  0.96630  Biso   1.000  H
  H550     1.0000 0.30940  0.37960  0.03370  Biso   1.000  H
  H551     1.0000 0.69060  0.62040  0.03370  Biso   1.000  H
  H552     1.0000 0.69060  0.37960  0.96630  Biso   1.000  H
  H553     1.0000 0.46630  0.62040  0.30940  Biso   1.000  H
  H554     1.0000 0.53370  0.37960  0.30940  Biso   1.000  H
  H555     1.0000 0.53370  0.62040  0.69060  Biso   1.000  H
  H556     1.0000 0.46630  0.37960  0.69060  Biso   1.000  H
  H557     1.0000 0.80940  0.46630  0.12040  Biso   1.000  H
  H558     1.0000 0.80940  0.53370  0.87960  Biso   1.000  H
  H559     1.0000 0.19060  0.53370  0.12040  Biso   1.000  H
  H560     1.0000 0.19060  0.46630  0.87960  Biso   1.000  H
  H561     1.0000 0.62040  0.80940  0.96630  Biso   1.000  H
  H562     1.0000 0.37960  0.80940  0.03370  Biso   1.000  H
  H563     1.0000 0.62040  0.19060  0.03370  Biso   1.000  H
  H564     1.0000 0.37960  0.19060  0.96630  Biso   1.000  H
  H565     1.0000 0.12040  0.96630  0.80940  Biso   1.000  H
  H566     1.0000 0.87960  0.03370  0.80940  Biso   1.000  H
  H567     1.0000 0.12040  0.03370  0.19060  Biso   1.000  H
  H568     1.0000 0.87960  0.96630  0.19060  Biso   1.000  H
  H569     1.0000 0.96630  0.30940  0.62040  Biso   1.000  H
  H570     1.0000 0.03370  0.30940  0.37960  Biso   1.000  H
  H571     1.0000 0.03370  0.69060  0.62040  Biso   1.000  H
  H572     1.0000 0.96630  0.69060  0.37960  Biso   1.000  H
  H573     1.0000 0.30940  0.12040  0.46630  Biso   1.000  H
  H574     1.0000 0.30940  0.87960  0.53370  Biso   1.000  H
  H575     1.0000 0.69060  0.12040  0.53370  Biso   1.000  H
  H576     1.0000 0.69060  0.87960  0.46630  Biso   1.000  H
  C505     1.0000 0.01072  0.07744  0.31976  Biso   1.000  C
  C506     1.0000 0.98928  0.92256  0.31976  Biso   1.000  C
  C507     1.0000 0.98928  0.07744  0.68024  Biso   1.000  C
  C508     1.0000 0.01072  0.92256  0.68024  Biso   1.000  C
  C509     1.0000 0.31976  0.01072  0.07744  Biso   1.000  C
  C510     1.0000 0.31976  0.98928  0.92256  Biso   1.000  C
  C511     1.0000 0.68024  0.98928  0.07744  Biso   1.000  C
  C512     1.0000 0.68024  0.01072  0.92256  Biso   1.000  C
  C513     1.0000 0.07744  0.31976  0.01072  Biso   1.000  C
  C514     1.0000 0.92256  0.31976  0.98928  Biso   1.000  C
  C515     1.0000 0.07744  0.68024  0.98928  Biso   1.000  C
  C516     1.0000 0.92256  0.68024  0.01072  Biso   1.000  C
  C517     1.0000 0.57744  0.51072  0.81976  Biso   1.000  C
  C518     1.0000 0.42256  0.48928  0.81976  Biso   1.000  C
  C519     1.0000 0.57744  0.48928  0.18024  Biso   1.000  C
  C520     1.0000 0.42256  0.51072  0.18024  Biso   1.000  C
  C521     1.0000 0.51072  0.81976  0.57744  Biso   1.000  C
  C522     1.0000 0.48928  0.81976  0.42256  Biso   1.000  C
  C523     1.0000 0.48928  0.18024  0.57744  Biso   1.000  C
  C524     1.0000 0.51072  0.18024  0.42256  Biso   1.000  C
  C525     1.0000 0.81976  0.57744  0.51072  Biso   1.000  C
  C526     1.0000 0.81976  0.42256  0.48928  Biso   1.000  C
  C527     1.0000 0.18024  0.57744  0.48928  Biso   1.000  C
  C528     1.0000 0.18024  0.42256  0.51072  Biso   1.000  C
  C529     1.0000 0.01072  0.57744  0.81976  Biso   1.000  C
  C530     1.0000 0.98928  0.42256  0.81976  Biso   1.000  C
  C531     1.0000 0.98928  0.57744  0.18024  Biso   1.000  C
  C532     1.0000 0.01072  0.42256  0.18024  Biso   1.000  C
  C533     1.0000 0.31976  0.51072  0.57744  Biso   1.000  C
  C534     1.0000 0.31976  0.48928  0.42256  Biso   1.000  C
  C535     1.0000 0.68024  0.48928  0.57744  Biso   1.000  C
  C536     1.0000 0.68024  0.51072  0.42256  Biso   1.000  C
  C537     1.0000 0.07744  0.81976  0.51072  Biso   1.000  C
  C538     1.0000 0.92256  0.81976  0.48928  Biso   1.000  C
  C539     1.0000 0.07744  0.18024  0.48928  Biso   1.000  C
  C540     1.0000 0.92256  0.18024  0.51072  Biso   1.000  C
  C541     1.0000 0.57744  0.01072  0.31976  Biso   1.000  C
  C542     1.0000 0.42256  0.98928  0.31976  Biso   1.000  C
  C543     1.0000 0.57744  0.98928  0.68024  Biso   1.000  C
  C544     1.0000 0.42256  0.01072  0.68024  Biso   1.000  C
  C545     1.0000 0.51072  0.31976  0.07744  Biso   1.000  C
  C546     1.0000 0.48928  0.31976  0.92256  Biso   1.000  C
  C547     1.0000 0.48928  0.68024  0.07744  Biso   1.000  C
  C548     1.0000 0.51072  0.68024  0.92256  Biso   1.000  C
  C549     1.0000 0.81976  0.07744  0.01072  Biso   1.000  C
  C550     1.0000 0.81976  0.92256  0.98928  Biso   1.000  C
  C551     1.0000 0.18024  0.07744  0.98928  Biso   1.000  C
  C552     1.0000 0.18024  0.92256  0.01072  Biso   1.000  C
  C553     1.0000 0.51072  0.07744  0.81976  Biso   1.000  C
  C554     1.0000 0.48928  0.92256  0.81976  Biso   1.000  C
  C555     1.0000 0.48928  0.07744  0.18024  Biso   1.000  C
  C556     1.0000 0.51072  0.92256  0.18024  Biso   1.000  C
  C557     1.0000 0.81976  0.01072  0.57744  Biso   1.000  C
  C558     1.0000 0.81976  0.98928  0.42256  Biso   1.000  C
  C559     1.0000 0.18024  0.98928  0.57744  Biso   1.000  C
  C560     1.0000 0.18024  0.01072  0.42256  Biso   1.000  C
  C561     1.0000 0.57744  0.31976  0.51072  Biso   1.000  C
  C562     1.0000 0.42256  0.31976  0.48928  Biso   1.000  C
  C563     1.0000 0.57744  0.68024  0.48928  Biso   1.000  C
  C564     1.0000 0.42256  0.68024  0.51072  Biso   1.000  C
  C565     1.0000 0.07744  0.51072  0.31976  Biso   1.000  C
  C566     1.0000 0.92256  0.48928  0.31976  Biso   1.000  C
  C567     1.0000 0.07744  0.48928  0.68024  Biso   1.000  C
  C568     1.0000 0.92256  0.51072  0.68024  Biso   1.000  C
  C569     1.0000 0.01072  0.81976  0.07744  Biso   1.000  C
  C570     1.0000 0.98928  0.81976  0.92256  Biso   1.000  C
  C571     1.0000 0.98928  0.18024  0.07744  Biso   1.000  C
  C572     1.0000 0.01072  0.18024  0.92256  Biso   1.000  C
  C573     1.0000 0.31976  0.57744  0.01072  Biso   1.000  C
  C574     1.0000 0.31976  0.42256  0.98928  Biso   1.000  C
  C575     1.0000 0.68024  0.57744  0.98928  Biso   1.000  C
  C576     1.0000 0.68024  0.42256  0.01072  Biso   1.000  C
  C577     1.0000 0.51072  0.57744  0.31976  Biso   1.000  C
  C578     1.0000 0.48928  0.42256  0.31976  Biso   1.000  C
  C579     1.0000 0.48928  0.57744  0.68024  Biso   1.000  C
  C580     1.0000 0.51072  0.42256  0.68024  Biso   1.000  C
  C581     1.0000 0.81976  0.51072  0.07744  Biso   1.000  C
  C582     1.0000 0.81976  0.48928  0.92256  Biso   1.000  C
  C583     1.0000 0.18024  0.48928  0.07744  Biso   1.000  C
  C584     1.0000 0.18024  0.51072  0.92256  Biso   1.000  C
  C585     1.0000 0.57744  0.81976  0.01072  Biso   1.000  C
  C586     1.0000 0.42256  0.81976  0.98928  Biso   1.000  C
  C587     1.0000 0.57744  0.18024  0.98928  Biso   1.000  C
  C588     1.0000 0.42256  0.18024  0.01072  Biso   1.000  C
  C589     1.0000 0.07744  0.01072  0.81976  Biso   1.000  C
  C590     1.0000 0.92256  0.98928  0.81976  Biso   1.000  C
  C591     1.0000 0.07744  0.98928  0.18024  Biso   1.000  C
  C592     1.0000 0.92256  0.01072  0.18024  Biso   1.000  C
  C593     1.0000 0.01072  0.31976  0.57744  Biso   1.000  C
  C594     1.0000 0.98928  0.31976  0.42256  Biso   1.000  C
  C595     1.0000 0.98928  0.68024  0.57744  Biso   1.000  C
  C596     1.0000 0.01072  0.68024  0.42256  Biso   1.000  C
  C597     1.0000 0.31976  0.07744  0.51072  Biso   1.000  C
  C598     1.0000 0.31976  0.92256  0.48928  Biso   1.000  C
  C599     1.0000 0.68024  0.07744  0.48928  Biso   1.000  C
  C600     1.0000 0.68024  0.92256  0.51072  Biso   1.000  C
  H577     1.0000 0.99310  0.05800  0.33210  Biso   1.000  H
  H578     1.0000 0.00690  0.94200  0.33210  Biso   1.000  H
  H579     1.0000 0.00690  0.05800  0.66790  Biso   1.000  H
  H580     1.0000 0.99310  0.94200  0.66790  Biso   1.000  H
  H581     1.0000 0.33210  0.99310  0.05800  Biso   1.000  H
  H582     1.0000 0.33210  0.00690  0.94200  Biso   1.000  H
  H583     1.0000 0.66790  0.00690  0.05800  Biso   1.000  H
  H584     1.0000 0.66790  0.99310  0.94200  Biso   1.000  H
  H585     1.0000 0.05800  0.33210  0.99310  Biso   1.000  H
  H586     1.0000 0.94200  0.33210  0.00690  Biso   1.000  H
  H587     1.0000 0.05800  0.66790  0.00690  Biso   1.000  H
  H588     1.0000 0.94200  0.66790  0.99310  Biso   1.000  H
  H589     1.0000 0.55800  0.49310  0.83210  Biso   1.000  H
  H590     1.0000 0.44200  0.50690  0.83210  Biso   1.000  H
  H591     1.0000 0.55800  0.50690  0.16790  Biso   1.000  H
  H592     1.0000 0.44200  0.49310  0.16790  Biso   1.000  H
  H593     1.0000 0.49310  0.83210  0.55800  Biso   1.000  H
  H594     1.0000 0.50690  0.83210  0.44200  Biso   1.000  H
  H595     1.0000 0.50690  0.16790  0.55800  Biso   1.000  H
  H596     1.0000 0.49310  0.16790  0.44200  Biso   1.000  H
  H597     1.0000 0.83210  0.55800  0.49310  Biso   1.000  H
  H598     1.0000 0.83210  0.44200  0.50690  Biso   1.000  H
  H599     1.0000 0.16790  0.55800  0.50690  Biso   1.000  H
  H600     1.0000 0.16790  0.44200  0.49310  Biso   1.000  H
  H601     1.0000 0.99310  0.55800  0.83210  Biso   1.000  H
  H602     1.0000 0.00690  0.44200  0.83210  Biso   1.000  H
  H603     1.0000 0.00690  0.55800  0.16790  Biso   1.000  H
  H604     1.0000 0.99310  0.44200  0.16790  Biso   1.000  H
  H605     1.0000 0.33210  0.49310  0.55800  Biso   1.000  H
  H606     1.0000 0.33210  0.50690  0.44200  Biso   1.000  H
  H607     1.0000 0.66790  0.50690  0.55800  Biso   1.000  H
  H608     1.0000 0.66790  0.49310  0.44200  Biso   1.000  H
  H609     1.0000 0.05800  0.83210  0.49310  Biso   1.000  H
  H610     1.0000 0.94200  0.83210  0.50690  Biso   1.000  H
  H611     1.0000 0.05800  0.16790  0.50690  Biso   1.000  H
  H612     1.0000 0.94200  0.16790  0.49310  Biso   1.000  H
  H613     1.0000 0.55800  0.99310  0.33210  Biso   1.000  H
  H614     1.0000 0.44200  0.00690  0.33210  Biso   1.000  H
  H615     1.0000 0.55800  0.00690  0.66790  Biso   1.000  H
  H616     1.0000 0.44200  0.99310  0.66790  Biso   1.000  H
  H617     1.0000 0.49310  0.33210  0.05800  Biso   1.000  H
  H618     1.0000 0.50690  0.33210  0.94200  Biso   1.000  H
  H619     1.0000 0.50690  0.66790  0.05800  Biso   1.000  H
  H620     1.0000 0.49310  0.66790  0.94200  Biso   1.000  H
  H621     1.0000 0.83210  0.05800  0.99310  Biso   1.000  H
  H622     1.0000 0.83210  0.94200  0.00690  Biso   1.000  H
  H623     1.0000 0.16790  0.05800  0.00690  Biso   1.000  H
  H624     1.0000 0.16790  0.94200  0.99310  Biso   1.000  H
  H625     1.0000 0.49310  0.05800  0.83210  Biso   1.000  H
  H626     1.0000 0.50690  0.94200  0.83210  Biso   1.000  H
  H627     1.0000 0.50690  0.05800  0.16790  Biso   1.000  H
  H628     1.0000 0.49310  0.94200  0.16790  Biso   1.000  H
  H629     1.0000 0.83210  0.99310  0.55800  Biso   1.000  H
  H630     1.0000 0.83210  0.00690  0.44200  Biso   1.000  H
  H631     1.0000 0.16790  0.00690  0.55800  Biso   1.000  H
  H632     1.0000 0.16790  0.99310  0.44200  Biso   1.000  H
  H633     1.0000 0.55800  0.33210  0.49310  Biso   1.000  H
  H634     1.0000 0.44200  0.33210  0.50690  Biso   1.000  H
  H635     1.0000 0.55800  0.66790  0.50690  Biso   1.000  H
  H636     1.0000 0.44200  0.66790  0.49310  Biso   1.000  H
  H637     1.0000 0.05800  0.49310  0.33210  Biso   1.000  H
  H638     1.0000 0.94200  0.50690  0.33210  Biso   1.000  H
  H639     1.0000 0.05800  0.50690  0.66790  Biso   1.000  H
  H640     1.0000 0.94200  0.49310  0.66790  Biso   1.000  H
  H641     1.0000 0.99310  0.83210  0.05800  Biso   1.000  H
  H642     1.0000 0.00690  0.83210  0.94200  Biso   1.000  H
  H643     1.0000 0.00690  0.16790  0.05800  Biso   1.000  H
  H644     1.0000 0.99310  0.16790  0.94200  Biso   1.000  H
  H645     1.0000 0.33210  0.55800  0.99310  Biso   1.000  H
  H646     1.0000 0.33210  0.44200  0.00690  Biso   1.000  H
  H647     1.0000 0.66790  0.55800  0.00690  Biso   1.000  H
  H648     1.0000 0.66790  0.44200  0.99310  Biso   1.000  H
  H649     1.0000 0.49310  0.55800  0.33210  Biso   1.000  H
  H650     1.0000 0.50690  0.44200  0.33210  Biso   1.000  H
  H651     1.0000 0.50690  0.55800  0.66790  Biso   1.000  H
  H652     1.0000 0.49310  0.44200  0.66790  Biso   1.000  H
  H653     1.0000 0.83210  0.49310  0.05800  Biso   1.000  H
  H654     1.0000 0.83210  0.50690  0.94200  Biso   1.000  H
  H655     1.0000 0.16790  0.50690  0.05800  Biso   1.000  H
  H656     1.0000 0.16790  0.49310  0.94200  Biso   1.000  H
  H657     1.0000 0.55800  0.83210  0.99310  Biso   1.000  H
  H658     1.0000 0.44200  0.83210  0.00690  Biso   1.000  H
  H659     1.0000 0.55800  0.16790  0.00690  Biso   1.000  H
  H660     1.0000 0.44200  0.16790  0.99310  Biso   1.000  H
  H661     1.0000 0.05800  0.99310  0.83210  Biso   1.000  H
  H662     1.0000 0.94200  0.00690  0.83210  Biso   1.000  H
  H663     1.0000 0.05800  0.00690  0.16790  Biso   1.000  H
  H664     1.0000 0.94200  0.99310  0.16790  Biso   1.000  H
  H665     1.0000 0.99310  0.33210  0.55800  Biso   1.000  H
  H666     1.0000 0.00690  0.33210  0.44200  Biso   1.000  H
  H667     1.0000 0.00690  0.66790  0.55800  Biso   1.000  H
  H668     1.0000 0.99310  0.66790  0.44200  Biso   1.000  H
  H669     1.0000 0.33210  0.05800  0.49310  Biso   1.000  H
  H670     1.0000 0.33210  0.94200  0.50690  Biso   1.000  H
  H671     1.0000 0.66790  0.05800  0.50690  Biso   1.000  H
  H672     1.0000 0.66790  0.94200  0.49310  Biso   1.000  H
  C601     1.0000 0.05290  0.06794  0.31527  Biso   1.000  C
  C602     1.0000 0.94710  0.93206  0.31527  Biso   1.000  C
  C603     1.0000 0.94710  0.06794  0.68473  Biso   1.000  C
  C604     1.0000 0.05290  0.93206  0.68473  Biso   1.000  C
  C605     1.0000 0.31527  0.05290  0.06794  Biso   1.000  C
  C606     1.0000 0.31527  0.94710  0.93206  Biso   1.000  C
  C607     1.0000 0.68473  0.94710  0.06794  Biso   1.000  C
  C608     1.0000 0.68473  0.05290  0.93206  Biso   1.000  C
  C609     1.0000 0.06794  0.31527  0.05290  Biso   1.000  C
  C610     1.0000 0.93206  0.31527  0.94710  Biso   1.000  C
  C611     1.0000 0.06794  0.68473  0.94710  Biso   1.000  C
  C612     1.0000 0.93206  0.68473  0.05290  Biso   1.000  C
  C613     1.0000 0.56794  0.55290  0.81527  Biso   1.000  C
  C614     1.0000 0.43206  0.44710  0.81527  Biso   1.000  C
  C615     1.0000 0.56794  0.44710  0.18473  Biso   1.000  C
  C616     1.0000 0.43206  0.55290  0.18473  Biso   1.000  C
  C617     1.0000 0.55290  0.81527  0.56794  Biso   1.000  C
  C618     1.0000 0.44710  0.81527  0.43206  Biso   1.000  C
  C619     1.0000 0.44710  0.18473  0.56794  Biso   1.000  C
  C620     1.0000 0.55290  0.18473  0.43206  Biso   1.000  C
  C621     1.0000 0.81527  0.56794  0.55290  Biso   1.000  C
  C622     1.0000 0.81527  0.43206  0.44710  Biso   1.000  C
  C623     1.0000 0.18473  0.56794  0.44710  Biso   1.000  C
  C624     1.0000 0.18473  0.43206  0.55290  Biso   1.000  C
  C625     1.0000 0.05290  0.56794  0.81527  Biso   1.000  C
  C626     1.0000 0.94710  0.43206  0.81527  Biso   1.000  C
  C627     1.0000 0.94710  0.56794  0.18473  Biso   1.000  C
  C628     1.0000 0.05290  0.43206  0.18473  Biso   1.000  C
  C629     1.0000 0.31527  0.55290  0.56794  Biso   1.000  C
  C630     1.0000 0.31527  0.44710  0.43206  Biso   1.000  C
  C631     1.0000 0.68473  0.44710  0.56794  Biso   1.000  C
  C632     1.0000 0.68473  0.55290  0.43206  Biso   1.000  C
  C633     1.0000 0.06794  0.81527  0.55290  Biso   1.000  C
  C634     1.0000 0.93206  0.81527  0.44710  Biso   1.000  C
  C635     1.0000 0.06794  0.18473  0.44710  Biso   1.000  C
  C636     1.0000 0.93206  0.18473  0.55290  Biso   1.000  C
  C637     1.0000 0.56794  0.05290  0.31527  Biso   1.000  C
  C638     1.0000 0.43206  0.94710  0.31527  Biso   1.000  C
  C639     1.0000 0.56794  0.94710  0.68473  Biso   1.000  C
  C640     1.0000 0.43206  0.05290  0.68473  Biso   1.000  C
  C641     1.0000 0.55290  0.31527  0.06794  Biso   1.000  C
  C642     1.0000 0.44710  0.31527  0.93206  Biso   1.000  C
  C643     1.0000 0.44710  0.68473  0.06794  Biso   1.000  C
  C644     1.0000 0.55290  0.68473  0.93206  Biso   1.000  C
  C645     1.0000 0.81527  0.06794  0.05290  Biso   1.000  C
  C646     1.0000 0.81527  0.93206  0.94710  Biso   1.000  C
  C647     1.0000 0.18473  0.06794  0.94710  Biso   1.000  C
  C648     1.0000 0.18473  0.93206  0.05290  Biso   1.000  C
  C649     1.0000 0.55290  0.06794  0.81527  Biso   1.000  C
  C650     1.0000 0.44710  0.93206  0.81527  Biso   1.000  C
  C651     1.0000 0.44710  0.06794  0.18473  Biso   1.000  C
  C652     1.0000 0.55290  0.93206  0.18473  Biso   1.000  C
  C653     1.0000 0.81527  0.05290  0.56794  Biso   1.000  C
  C654     1.0000 0.81527  0.94710  0.43206  Biso   1.000  C
  C655     1.0000 0.18473  0.94710  0.56794  Biso   1.000  C
  C656     1.0000 0.18473  0.05290  0.43206  Biso   1.000  C
  C657     1.0000 0.56794  0.31527  0.55290  Biso   1.000  C
  C658     1.0000 0.43206  0.31527  0.44710  Biso   1.000  C
  C659     1.0000 0.56794  0.68473  0.44710  Biso   1.000  C
  C660     1.0000 0.43206  0.68473  0.55290  Biso   1.000  C
  C661     1.0000 0.06794  0.55290  0.31527  Biso   1.000  C
  C662     1.0000 0.93206  0.44710  0.31527  Biso   1.000  C
  C663     1.0000 0.06794  0.44710  0.68473  Biso   1.000  C
  C664     1.0000 0.93206  0.55290  0.68473  Biso   1.000  C
  C665     1.0000 0.05290  0.81527  0.06794  Biso   1.000  C
  C666     1.0000 0.94710  0.81527  0.93206  Biso   1.000  C
  C667     1.0000 0.94710  0.18473  0.06794  Biso   1.000  C
  C668     1.0000 0.05290  0.18473  0.93206  Biso   1.000  C
  C669     1.0000 0.31527  0.56794  0.05290  Biso   1.000  C
  C670     1.0000 0.31527  0.43206  0.94710  Biso   1.000  C
  C671     1.0000 0.68473  0.56794  0.94710  Biso   1.000  C
  C672     1.0000 0.68473  0.43206  0.05290  Biso   1.000  C
  C673     1.0000 0.55290  0.56794  0.31527  Biso   1.000  C
  C674     1.0000 0.44710  0.43206  0.31527  Biso   1.000  C
  C675     1.0000 0.44710  0.56794  0.68473  Biso   1.000  C
  C676     1.0000 0.55290  0.43206  0.68473  Biso   1.000  C
  C677     1.0000 0.81527  0.55290  0.06794  Biso   1.000  C
  C678     1.0000 0.81527  0.44710  0.93206  Biso   1.000  C
  C679     1.0000 0.18473  0.44710  0.06794  Biso   1.000  C
  C680     1.0000 0.18473  0.55290  0.93206  Biso   1.000  C
  C681     1.0000 0.56794  0.81527  0.05290  Biso   1.000  C
  C682     1.0000 0.43206  0.81527  0.94710  Biso   1.000  C
  C683     1.0000 0.56794  0.18473  0.94710  Biso   1.000  C
  C684     1.0000 0.43206  0.18473  0.05290  Biso   1.000  C
  C685     1.0000 0.06794  0.05290  0.81527  Biso   1.000  C
  C686     1.0000 0.93206  0.94710  0.81527  Biso   1.000  C
  C687     1.0000 0.06794  0.94710  0.18473  Biso   1.000  C
  C688     1.0000 0.93206  0.05290  0.18473  Biso   1.000  C
  C689     1.0000 0.05290  0.31527  0.56794  Biso   1.000  C
  C690     1.0000 0.94710  0.31527  0.43206  Biso   1.000  C
  C691     1.0000 0.94710  0.68473  0.56794  Biso   1.000  C
  C692     1.0000 0.05290  0.68473  0.43206  Biso   1.000  C
  C693     1.0000 0.31527  0.06794  0.55290  Biso   1.000  C
  C694     1.0000 0.31527  0.93206  0.44710  Biso   1.000  C
  C695     1.0000 0.68473  0.06794  0.44710  Biso   1.000  C
  C696     1.0000 0.68473  0.93206  0.55290  Biso   1.000  C
  C697     1.0000 0.07990  0.09727  0.29726  Biso   1.000  C
  C698     1.0000 0.92010  0.90273  0.29726  Biso   1.000  C
  C699     1.0000 0.92010  0.09727  0.70274  Biso   1.000  C
  C700     1.0000 0.07990  0.90273  0.70274  Biso   1.000  C
  C701     1.0000 0.29726  0.07990  0.09727  Biso   1.000  C
  C702     1.0000 0.29726  0.92010  0.90273  Biso   1.000  C
  C703     1.0000 0.70274  0.92010  0.09727  Biso   1.000  C
  C704     1.0000 0.70274  0.07990  0.90273  Biso   1.000  C
  C705     1.0000 0.09727  0.29726  0.07990  Biso   1.000  C
  C706     1.0000 0.90273  0.29726  0.92010  Biso   1.000  C
  C707     1.0000 0.09727  0.70274  0.92010  Biso   1.000  C
  C708     1.0000 0.90273  0.70274  0.07990  Biso   1.000  C
  C709     1.0000 0.59727  0.57990  0.79726  Biso   1.000  C
  C710     1.0000 0.40273  0.42010  0.79726  Biso   1.000  C
  C711     1.0000 0.59727  0.42010  0.20274  Biso   1.000  C
  C712     1.0000 0.40273  0.57990  0.20274  Biso   1.000  C
  C713     1.0000 0.57990  0.79726  0.59727  Biso   1.000  C
  C714     1.0000 0.42010  0.79726  0.40273  Biso   1.000  C
  C715     1.0000 0.42010  0.20274  0.59727  Biso   1.000  C
  C716     1.0000 0.57990  0.20274  0.40273  Biso   1.000  C
  C717     1.0000 0.79726  0.59727  0.57990  Biso   1.000  C
  C718     1.0000 0.79726  0.40273  0.42010  Biso   1.000  C
  C719     1.0000 0.20274  0.59727  0.42010  Biso   1.000  C
  C720     1.0000 0.20274  0.40273  0.57990  Biso   1.000  C
  C721     1.0000 0.07990  0.59727  0.79726  Biso   1.000  C
  C722     1.0000 0.92010  0.40273  0.79726  Biso   1.000  C
  C723     1.0000 0.92010  0.59727  0.20274  Biso   1.000  C
  C724     1.0000 0.07990  0.40273  0.20274  Biso   1.000  C
  C725     1.0000 0.29726  0.57990  0.59727  Biso   1.000  C
  C726     1.0000 0.29726  0.42010  0.40273  Biso   1.000  C
  C727     1.0000 0.70274  0.42010  0.59727  Biso   1.000  C
  C728     1.0000 0.70274  0.57990  0.40273  Biso   1.000  C
  C729     1.0000 0.09727  0.79726  0.57990  Biso   1.000  C
  C730     1.0000 0.90273  0.79726  0.42010  Biso   1.000  C
  C731     1.0000 0.09727  0.20274  0.42010  Biso   1.000  C
  C732     1.0000 0.90273  0.20274  0.57990  Biso   1.000  C
  C733     1.0000 0.59727  0.07990  0.29726  Biso   1.000  C
  C734     1.0000 0.40273  0.92010  0.29726  Biso   1.000  C
  C735     1.0000 0.59727  0.92010  0.70274  Biso   1.000  C
  C736     1.0000 0.40273  0.07990  0.70274  Biso   1.000  C
  C737     1.0000 0.57990  0.29726  0.09727  Biso   1.000  C
  C738     1.0000 0.42010  0.29726  0.90273  Biso   1.000  C
  C739     1.0000 0.42010  0.70274  0.09727  Biso   1.000  C
  C740     1.0000 0.57990  0.70274  0.90273  Biso   1.000  C
  C741     1.0000 0.79726  0.09727  0.07990  Biso   1.000  C
  C742     1.0000 0.79726  0.90273  0.92010  Biso   1.000  C
  C743     1.0000 0.20274  0.09727  0.92010  Biso   1.000  C
  C744     1.0000 0.20274  0.90273  0.07990  Biso   1.000  C
  C745     1.0000 0.57990  0.09727  0.79726  Biso   1.000  C
  C746     1.0000 0.42010  0.90273  0.79726  Biso   1.000  C
  C747     1.0000 0.42010  0.09727  0.20274  Biso   1.000  C
  C748     1.0000 0.57990  0.90273  0.20274  Biso   1.000  C
  C749     1.0000 0.79726  0.07990  0.59727  Biso   1.000  C
  C750     1.0000 0.79726  0.92010  0.40273  Biso   1.000  C
  C751     1.0000 0.20274  0.92010  0.59727  Biso   1.000  C
  C752     1.0000 0.20274  0.07990  0.40273  Biso   1.000  C
  C753     1.0000 0.59727  0.29726  0.57990  Biso   1.000  C
  C754     1.0000 0.40273  0.29726  0.42010  Biso   1.000  C
  C755     1.0000 0.59727  0.70274  0.42010  Biso   1.000  C
  C756     1.0000 0.40273  0.70274  0.57990  Biso   1.000  C
  C757     1.0000 0.09727  0.57990  0.29726  Biso   1.000  C
  C758     1.0000 0.90273  0.42010  0.29726  Biso   1.000  C
  C759     1.0000 0.09727  0.42010  0.70274  Biso   1.000  C
  C760     1.0000 0.90273  0.57990  0.70274  Biso   1.000  C
  C761     1.0000 0.07990  0.79726  0.09727  Biso   1.000  C
  C762     1.0000 0.92010  0.79726  0.90273  Biso   1.000  C
  C763     1.0000 0.92010  0.20274  0.09727  Biso   1.000  C
  C764     1.0000 0.07990  0.20274  0.90273  Biso   1.000  C
  C765     1.0000 0.29726  0.59727  0.07990  Biso   1.000  C
  C766     1.0000 0.29726  0.40273  0.92010  Biso   1.000  C
  C767     1.0000 0.70274  0.59727  0.92010  Biso   1.000  C
  C768     1.0000 0.70274  0.40273  0.07990  Biso   1.000  C
  C769     1.0000 0.57990  0.59727  0.29726  Biso   1.000  C
  C770     1.0000 0.42010  0.40273  0.29726  Biso   1.000  C
  C771     1.0000 0.42010  0.59727  0.70274  Biso   1.000  C
  C772     1.0000 0.57990  0.40273  0.70274  Biso   1.000  C
  C773     1.0000 0.79726  0.57990  0.09727  Biso   1.000  C
  C774     1.0000 0.79726  0.42010  0.90273  Biso   1.000  C
  C775     1.0000 0.20274  0.42010  0.09727  Biso   1.000  C
  C776     1.0000 0.20274  0.57990  0.90273  Biso   1.000  C
  C777     1.0000 0.59727  0.79726  0.07990  Biso   1.000  C
  C778     1.0000 0.40273  0.79726  0.92010  Biso   1.000  C
  C779     1.0000 0.59727  0.20274  0.92010  Biso   1.000  C
  C780     1.0000 0.40273  0.20274  0.07990  Biso   1.000  C
  C781     1.0000 0.09727  0.07990  0.79726  Biso   1.000  C
  C782     1.0000 0.90273  0.92010  0.79726  Biso   1.000  C
  C783     1.0000 0.09727  0.92010  0.20274  Biso   1.000  C
  C784     1.0000 0.90273  0.07990  0.20274  Biso   1.000  C
  C785     1.0000 0.07990  0.29726  0.59727  Biso   1.000  C
  C786     1.0000 0.92010  0.29726  0.40273  Biso   1.000  C
  C787     1.0000 0.92010  0.70274  0.59727  Biso   1.000  C
  C788     1.0000 0.07990  0.70274  0.40273  Biso   1.000  C
  C789     1.0000 0.29726  0.09727  0.57990  Biso   1.000  C
  C790     1.0000 0.29726  0.90273  0.42010  Biso   1.000  C
  C791     1.0000 0.70274  0.09727  0.42010  Biso   1.000  C
  C792     1.0000 0.70274  0.90273  0.57990  Biso   1.000  C
  C793     1.0000 0.06322  0.13535  0.28380  Biso   1.000  C
  C794     1.0000 0.93678  0.86465  0.28380  Biso   1.000  C
  C795     1.0000 0.93678  0.13535  0.71620  Biso   1.000  C
  C796     1.0000 0.06322  0.86465  0.71620  Biso   1.000  C
  C797     1.0000 0.28380  0.06322  0.13535  Biso   1.000  C
  C798     1.0000 0.28380  0.93678  0.86465  Biso   1.000  C
  C799     1.0000 0.71620  0.93678  0.13535  Biso   1.000  C
  C800     1.0000 0.71620  0.06322  0.86465  Biso   1.000  C
  C801     1.0000 0.13535  0.28380  0.06322  Biso   1.000  C
  C802     1.0000 0.86465  0.28380  0.93678  Biso   1.000  C
  C803     1.0000 0.13535  0.71620  0.93678  Biso   1.000  C
  C804     1.0000 0.86465  0.71620  0.06322  Biso   1.000  C
  C805     1.0000 0.63535  0.56322  0.78380  Biso   1.000  C
  C806     1.0000 0.36465  0.43678  0.78380  Biso   1.000  C
  C807     1.0000 0.63535  0.43678  0.21620  Biso   1.000  C
  C808     1.0000 0.36465  0.56322  0.21620  Biso   1.000  C
  C809     1.0000 0.56322  0.78380  0.63535  Biso   1.000  C
  C810     1.0000 0.43678  0.78380  0.36465  Biso   1.000  C
  C811     1.0000 0.43678  0.21620  0.63535  Biso   1.000  C
  C812     1.0000 0.56322  0.21620  0.36465  Biso   1.000  C
  C813     1.0000 0.78380  0.63535  0.56322  Biso   1.000  C
  C814     1.0000 0.78380  0.36465  0.43678  Biso   1.000  C
  C815     1.0000 0.21620  0.63535  0.43678  Biso   1.000  C
  C816     1.0000 0.21620  0.36465  0.56322  Biso   1.000  C
  C817     1.0000 0.06322  0.63535  0.78380  Biso   1.000  C
  C818     1.0000 0.93678  0.36465  0.78380  Biso   1.000  C
  C819     1.0000 0.93678  0.63535  0.21620  Biso   1.000  C
  C820     1.0000 0.06322  0.36465  0.21620  Biso   1.000  C
  C821     1.0000 0.28380  0.56322  0.63535  Biso   1.000  C
  C822     1.0000 0.28380  0.43678  0.36465  Biso   1.000  C
  C823     1.0000 0.71620  0.43678  0.63535  Biso   1.000  C
  C824     1.0000 0.71620  0.56322  0.36465  Biso   1.000  C
  C825     1.0000 0.13535  0.78380  0.56322  Biso   1.000  C
  C826     1.0000 0.86465  0.78380  0.43678  Biso   1.000  C
  C827     1.0000 0.13535  0.21620  0.43678  Biso   1.000  C
  C828     1.0000 0.86465  0.21620  0.56322  Biso   1.000  C
  C829     1.0000 0.63535  0.06322  0.28380  Biso   1.000  C
  C830     1.0000 0.36465  0.93678  0.28380  Biso   1.000  C
  C831     1.0000 0.63535  0.93678  0.71620  Biso   1.000  C
  C832     1.0000 0.36465  0.06322  0.71620  Biso   1.000  C
  C833     1.0000 0.56322  0.28380  0.13535  Biso   1.000  C
  C834     1.0000 0.43678  0.28380  0.86465  Biso   1.000  C
  C835     1.0000 0.43678  0.71620  0.13535  Biso   1.000  C
  C836     1.0000 0.56322  0.71620  0.86465  Biso   1.000  C
  C837     1.0000 0.78380  0.13535  0.06322  Biso   1.000  C
  C838     1.0000 0.78380  0.86465  0.93678  Biso   1.000  C
  C839     1.0000 0.21620  0.13535  0.93678  Biso   1.000  C
  C840     1.0000 0.21620  0.86465  0.06322  Biso   1.000  C
  C841     1.0000 0.56322  0.13535  0.78380  Biso   1.000  C
  C842     1.0000 0.43678  0.86465  0.78380  Biso   1.000  C
  C843     1.0000 0.43678  0.13535  0.21620  Biso   1.000  C
  C844     1.0000 0.56322  0.86465  0.21620  Biso   1.000  C
  C845     1.0000 0.78380  0.06322  0.63535  Biso   1.000  C
  C846     1.0000 0.78380  0.93678  0.36465  Biso   1.000  C
  C847     1.0000 0.21620  0.93678  0.63535  Biso   1.000  C
  C848     1.0000 0.21620  0.06322  0.36465  Biso   1.000  C
  C849     1.0000 0.63535  0.28380  0.56322  Biso   1.000  C
  C850     1.0000 0.36465  0.28380  0.43678  Biso   1.000  C
  C851     1.0000 0.63535  0.71620  0.43678  Biso   1.000  C
  C852     1.0000 0.36465  0.71620  0.56322  Biso   1.000  C
  C853     1.0000 0.13535  0.56322  0.28380  Biso   1.000  C
  C854     1.0000 0.86465  0.43678  0.28380  Biso   1.000  C
  C855     1.0000 0.13535  0.43678  0.71620  Biso   1.000  C
  C856     1.0000 0.86465  0.56322  0.71620  Biso   1.000  C
  C857     1.0000 0.06322  0.78380  0.13535  Biso   1.000  C
  C858     1.0000 0.93678  0.78380  0.86465  Biso   1.000  C
  C859     1.0000 0.93678  0.21620  0.13535  Biso   1.000  C
  C860     1.0000 0.06322  0.21620  0.86465  Biso   1.000  C
  C861     1.0000 0.28380  0.63535  0.06322  Biso   1.000  C
  C862     1.0000 0.28380  0.36465  0.93678  Biso   1.000  C
  C863     1.0000 0.71620  0.63535  0.93678  Biso   1.000  C
  C864     1.0000 0.71620  0.36465  0.06322  Biso   1.000  C
  C865     1.0000 0.56322  0.63535  0.28380  Biso   1.000  C
  C866     1.0000 0.43678  0.36465  0.28380  Biso   1.000  C
  C867     1.0000 0.43678  0.63535  0.71620  Biso   1.000  C
  C868     1.0000 0.56322  0.36465  0.71620  Biso   1.000  C
  C869     1.0000 0.78380  0.56322  0.13535  Biso   1.000  C
  C870     1.0000 0.78380  0.43678  0.86465  Biso   1.000  C
  C871     1.0000 0.21620  0.43678  0.13535  Biso   1.000  C
  C872     1.0000 0.21620  0.56322  0.86465  Biso   1.000  C
  C873     1.0000 0.63535  0.78380  0.06322  Biso   1.000  C
  C874     1.0000 0.36465  0.78380  0.93678  Biso   1.000  C
  C875     1.0000 0.63535  0.21620  0.93678  Biso   1.000  C
  C876     1.0000 0.36465  0.21620  0.06322  Biso   1.000  C
  C877     1.0000 0.13535  0.06322  0.78380  Biso   1.000  C
  C878     1.0000 0.86465  0.93678  0.78380  Biso   1.000  C
  C879     1.0000 0.13535  0.93678  0.21620  Biso   1.000  C
  C880     1.0000 0.86465  0.06322  0.21620  Biso   1.000  C
  C881     1.0000 0.06322  0.28380  0.63535  Biso   1.000  C
  C882     1.0000 0.93678  0.28380  0.36465  Biso   1.000  C
  C883     1.0000 0.93678  0.71620  0.63535  Biso   1.000  C
  C884     1.0000 0.06322  0.71620  0.36465  Biso   1.000  C
  C885     1.0000 0.28380  0.13535  0.56322  Biso   1.000  C
  C886     1.0000 0.28380  0.86465  0.43678  Biso   1.000  C
  C887     1.0000 0.71620  0.13535  0.43678  Biso   1.000  C
  C888     1.0000 0.71620  0.86465  0.56322  Biso   1.000  C
  H673     1.0000 0.08070  0.15510  0.27170  Biso   1.000  H
  H674     1.0000 0.91930  0.84490  0.27170  Biso   1.000  H
  H675     1.0000 0.91930  0.15510  0.72830  Biso   1.000  H
  H676     1.0000 0.08070  0.84490  0.72830  Biso   1.000  H
  H677     1.0000 0.27170  0.08070  0.15510  Biso   1.000  H
  H678     1.0000 0.27170  0.91930  0.84490  Biso   1.000  H
  H679     1.0000 0.72830  0.91930  0.15510  Biso   1.000  H
  H680     1.0000 0.72830  0.08070  0.84490  Biso   1.000  H
  H681     1.0000 0.15510  0.27170  0.08070  Biso   1.000  H
  H682     1.0000 0.84490  0.27170  0.91930  Biso   1.000  H
  H683     1.0000 0.15510  0.72830  0.91930  Biso   1.000  H
  H684     1.0000 0.84490  0.72830  0.08070  Biso   1.000  H
  H685     1.0000 0.65510  0.58070  0.77170  Biso   1.000  H
  H686     1.0000 0.34490  0.41930  0.77170  Biso   1.000  H
  H687     1.0000 0.65510  0.41930  0.22830  Biso   1.000  H
  H688     1.0000 0.34490  0.58070  0.22830  Biso   1.000  H
  H689     1.0000 0.58070  0.77170  0.65510  Biso   1.000  H
  H690     1.0000 0.41930  0.77170  0.34490  Biso   1.000  H
  H691     1.0000 0.41930  0.22830  0.65510  Biso   1.000  H
  H692     1.0000 0.58070  0.22830  0.34490  Biso   1.000  H
  H693     1.0000 0.77170  0.65510  0.58070  Biso   1.000  H
  H694     1.0000 0.77170  0.34490  0.41930  Biso   1.000  H
  H695     1.0000 0.22830  0.65510  0.41930  Biso   1.000  H
  H696     1.0000 0.22830  0.34490  0.58070  Biso   1.000  H
  H697     1.0000 0.08070  0.65510  0.77170  Biso   1.000  H
  H698     1.0000 0.91930  0.34490  0.77170  Biso   1.000  H
  H699     1.0000 0.91930  0.65510  0.22830  Biso   1.000  H
  H700     1.0000 0.08070  0.34490  0.22830  Biso   1.000  H
  H701     1.0000 0.27170  0.58070  0.65510  Biso   1.000  H
  H702     1.0000 0.27170  0.41930  0.34490  Biso   1.000  H
  H703     1.0000 0.72830  0.41930  0.65510  Biso   1.000  H
  H704     1.0000 0.72830  0.58070  0.34490  Biso   1.000  H
  H705     1.0000 0.15510  0.77170  0.58070  Biso   1.000  H
  H706     1.0000 0.84490  0.77170  0.41930  Biso   1.000  H
  H707     1.0000 0.15510  0.22830  0.41930  Biso   1.000  H
  H708     1.0000 0.84490  0.22830  0.58070  Biso   1.000  H
  H709     1.0000 0.65510  0.08070  0.27170  Biso   1.000  H
  H710     1.0000 0.34490  0.91930  0.27170  Biso   1.000  H
  H711     1.0000 0.65510  0.91930  0.72830  Biso   1.000  H
  H712     1.0000 0.34490  0.08070  0.72830  Biso   1.000  H
  H713     1.0000 0.58070  0.27170  0.15510  Biso   1.000  H
  H714     1.0000 0.41930  0.27170  0.84490  Biso   1.000  H
  H715     1.0000 0.41930  0.72830  0.15510  Biso   1.000  H
  H716     1.0000 0.58070  0.72830  0.84490  Biso   1.000  H
  H717     1.0000 0.77170  0.15510  0.08070  Biso   1.000  H
  H718     1.0000 0.77170  0.84490  0.91930  Biso   1.000  H
  H719     1.0000 0.22830  0.15510  0.91930  Biso   1.000  H
  H720     1.0000 0.22830  0.84490  0.08070  Biso   1.000  H
  H721     1.0000 0.58070  0.15510  0.77170  Biso   1.000  H
  H722     1.0000 0.41930  0.84490  0.77170  Biso   1.000  H
  H723     1.0000 0.41930  0.15510  0.22830  Biso   1.000  H
  H724     1.0000 0.58070  0.84490  0.22830  Biso   1.000  H
  H725     1.0000 0.77170  0.08070  0.65510  Biso   1.000  H
  H726     1.0000 0.77170  0.91930  0.34490  Biso   1.000  H
  H727     1.0000 0.22830  0.91930  0.65510  Biso   1.000  H
  H728     1.0000 0.22830  0.08070  0.34490  Biso   1.000  H
  H729     1.0000 0.65510  0.27170  0.58070  Biso   1.000  H
  H730     1.0000 0.34490  0.27170  0.41930  Biso   1.000  H
  H731     1.0000 0.65510  0.72830  0.41930  Biso   1.000  H
  H732     1.0000 0.34490  0.72830  0.58070  Biso   1.000  H
  H733     1.0000 0.15510  0.58070  0.27170  Biso   1.000  H
  H734     1.0000 0.84490  0.41930  0.27170  Biso   1.000  H
  H735     1.0000 0.15510  0.41930  0.72830  Biso   1.000  H
  H736     1.0000 0.84490  0.58070  0.72830  Biso   1.000  H
  H737     1.0000 0.08070  0.77170  0.15510  Biso   1.000  H
  H738     1.0000 0.91930  0.77170  0.84490  Biso   1.000  H
  H739     1.0000 0.91930  0.22830  0.15510  Biso   1.000  H
  H740     1.0000 0.08070  0.22830  0.84490  Biso   1.000  H
  H741     1.0000 0.27170  0.65510  0.08070  Biso   1.000  H
  H742     1.0000 0.27170  0.34490  0.91930  Biso   1.000  H
  H743     1.0000 0.72830  0.65510  0.91930  Biso   1.000  H
  H744     1.0000 0.72830  0.34490  0.08070  Biso   1.000  H
  H745     1.0000 0.58070  0.65510  0.27170  Biso   1.000  H
  H746     1.0000 0.41930  0.34490  0.27170  Biso   1.000  H
  H747     1.0000 0.41930  0.65510  0.72830  Biso   1.000  H
  H748     1.0000 0.58070  0.34490  0.72830  Biso   1.000  H
  H749     1.0000 0.77170  0.58070  0.15510  Biso   1.000  H
  H750     1.0000 0.77170  0.41930  0.84490  Biso   1.000  H
  H751     1.0000 0.22830  0.41930  0.15510  Biso   1.000  H
  H752     1.0000 0.22830  0.58070  0.84490  Biso   1.000  H
  H753     1.0000 0.65510  0.77170  0.08070  Biso   1.000  H
  H754     1.0000 0.34490  0.77170  0.91930  Biso   1.000  H
  H755     1.0000 0.65510  0.22830  0.91930  Biso   1.000  H
  H756     1.0000 0.34490  0.22830  0.08070  Biso   1.000  H
  H757     1.0000 0.15510  0.08070  0.77170  Biso   1.000  H
  H758     1.0000 0.84490  0.91930  0.77170  Biso   1.000  H
  H759     1.0000 0.15510  0.91930  0.22830  Biso   1.000  H
  H760     1.0000 0.84490  0.08070  0.22830  Biso   1.000  H
  H761     1.0000 0.08070  0.27170  0.65510  Biso   1.000  H
  H762     1.0000 0.91930  0.27170  0.34490  Biso   1.000  H
  H763     1.0000 0.91930  0.72830  0.65510  Biso   1.000  H
  H764     1.0000 0.08070  0.72830  0.34490  Biso   1.000  H
  H765     1.0000 0.27170  0.15510  0.58070  Biso   1.000  H
  H766     1.0000 0.27170  0.84490  0.41930  Biso   1.000  H
  H767     1.0000 0.72830  0.15510  0.41930  Biso   1.000  H
  H768     1.0000 0.72830  0.84490  0.58070  Biso   1.000  H
  C889     1.0000 0.06817  0.02741  0.33229  Biso   1.000  C
  C890     1.0000 0.93183  0.97259  0.33229  Biso   1.000  C
  C891     1.0000 0.93183  0.02741  0.66771  Biso   1.000  C
  C892     1.0000 0.06817  0.97259  0.66771  Biso   1.000  C
  C893     1.0000 0.33229  0.06817  0.02741  Biso   1.000  C
  C894     1.0000 0.33229  0.93183  0.97259  Biso   1.000  C
  C895     1.0000 0.66771  0.93183  0.02741  Biso   1.000  C
  C896     1.0000 0.66771  0.06817  0.97259  Biso   1.000  C
  C897     1.0000 0.02741  0.33229  0.06817  Biso   1.000  C
  C898     1.0000 0.97259  0.33229  0.93183  Biso   1.000  C
  C899     1.0000 0.02741  0.66771  0.93183  Biso   1.000  C
  C900     1.0000 0.97259  0.66771  0.06817  Biso   1.000  C
  C901     1.0000 0.52741  0.56817  0.83229  Biso   1.000  C
  C902     1.0000 0.47259  0.43183  0.83229  Biso   1.000  C
  C903     1.0000 0.52741  0.43183  0.16771  Biso   1.000  C
  C904     1.0000 0.47259  0.56817  0.16771  Biso   1.000  C
  C905     1.0000 0.56817  0.83229  0.52741  Biso   1.000  C
  C906     1.0000 0.43183  0.83229  0.47259  Biso   1.000  C
  C907     1.0000 0.43183  0.16771  0.52741  Biso   1.000  C
  C908     1.0000 0.56817  0.16771  0.47259  Biso   1.000  C
  C909     1.0000 0.83229  0.52741  0.56817  Biso   1.000  C
  C910     1.0000 0.83229  0.47259  0.43183  Biso   1.000  C
  C911     1.0000 0.16771  0.52741  0.43183  Biso   1.000  C
  C912     1.0000 0.16771  0.47259  0.56817  Biso   1.000  C
  C913     1.0000 0.06817  0.52741  0.83229  Biso   1.000  C
  C914     1.0000 0.93183  0.47259  0.83229  Biso   1.000  C
  C915     1.0000 0.93183  0.52741  0.16771  Biso   1.000  C
  C916     1.0000 0.06817  0.47259  0.16771  Biso   1.000  C
  C917     1.0000 0.33229  0.56817  0.52741  Biso   1.000  C
  C918     1.0000 0.33229  0.43183  0.47259  Biso   1.000  C
  C919     1.0000 0.66771  0.43183  0.52741  Biso   1.000  C
  C920     1.0000 0.66771  0.56817  0.47259  Biso   1.000  C
  C921     1.0000 0.02741  0.83229  0.56817  Biso   1.000  C
  C922     1.0000 0.97259  0.83229  0.43183  Biso   1.000  C
  C923     1.0000 0.02741  0.16771  0.43183  Biso   1.000  C
  C924     1.0000 0.97259  0.16771  0.56817  Biso   1.000  C
  C925     1.0000 0.52741  0.06817  0.33229  Biso   1.000  C
  C926     1.0000 0.47259  0.93183  0.33229  Biso   1.000  C
  C927     1.0000 0.52741  0.93183  0.66771  Biso   1.000  C
  C928     1.0000 0.47259  0.06817  0.66771  Biso   1.000  C
  C929     1.0000 0.56817  0.33229  0.02741  Biso   1.000  C
  C930     1.0000 0.43183  0.33229  0.97259  Biso   1.000  C
  C931     1.0000 0.43183  0.66771  0.02741  Biso   1.000  C
  C932     1.0000 0.56817  0.66771  0.97259  Biso   1.000  C
  C933     1.0000 0.83229  0.02741  0.06817  Biso   1.000  C
  C934     1.0000 0.83229  0.97259  0.93183  Biso   1.000  C
  C935     1.0000 0.16771  0.02741  0.93183  Biso   1.000  C
  C936     1.0000 0.16771  0.97259  0.06817  Biso   1.000  C
  C937     1.0000 0.56817  0.02741  0.83229  Biso   1.000  C
  C938     1.0000 0.43183  0.97259  0.83229  Biso   1.000  C
  C939     1.0000 0.43183  0.02741  0.16771  Biso   1.000  C
  C940     1.0000 0.56817  0.97259  0.16771  Biso   1.000  C
  C941     1.0000 0.83229  0.06817  0.52741  Biso   1.000  C
  C942     1.0000 0.83229  0.93183  0.47259  Biso   1.000  C
  C943     1.0000 0.16771  0.93183  0.52741  Biso   1.000  C
  C944     1.0000 0.16771  0.06817  0.47259  Biso   1.000  C
  C945     1.0000 0.52741  0.33229  0.56817  Biso   1.000  C
  C946     1.0000 0.47259  0.33229  0.43183  Biso   1.000  C
  C947     1.0000 0.52741  0.66771  0.43183  Biso   1.000  C
  C948     1.0000 0.47259  0.66771  0.56817  Biso   1.000  C
  C949     1.0000 0.02741  0.56817  0.33229  Biso   1.000  C
  C950     1.0000 0.97259  0.43183  0.33229  Biso   1.000  C
  C951     1.0000 0.02741  0.43183  0.66771  Biso   1.000  C
  C952     1.0000 0.97259  0.56817  0.66771  Biso   1.000  C
  C953     1.0000 0.06817  0.83229  0.02741  Biso   1.000  C
  C954     1.0000 0.93183  0.83229  0.97259  Biso   1.000  C
  C955     1.0000 0.93183  0.16771  0.02741  Biso   1.000  C
  C956     1.0000 0.06817  0.16771  0.97259  Biso   1.000  C
  C957     1.0000 0.33229  0.52741  0.06817  Biso   1.000  C
  C958     1.0000 0.33229  0.47259  0.93183  Biso   1.000  C
  C959     1.0000 0.66771  0.52741  0.93183  Biso   1.000  C
  C960     1.0000 0.66771  0.47259  0.06817  Biso   1.000  C
  C961     1.0000 0.56817  0.52741  0.33229  Biso   1.000  C
  C962     1.0000 0.43183  0.47259  0.33229  Biso   1.000  C
  C963     1.0000 0.43183  0.52741  0.66771  Biso   1.000  C
  C964     1.0000 0.56817  0.47259  0.66771  Biso   1.000  C
  C965     1.0000 0.83229  0.56817  0.02741  Biso   1.000  C
  C966     1.0000 0.83229  0.43183  0.97259  Biso   1.000  C
  C967     1.0000 0.16771  0.43183  0.02741  Biso   1.000  C
  C968     1.0000 0.16771  0.56817  0.97259  Biso   1.000  C
  C969     1.0000 0.52741  0.83229  0.06817  Biso   1.000  C
  C970     1.0000 0.47259  0.83229  0.93183  Biso   1.000  C
  C971     1.0000 0.52741  0.16771  0.93183  Biso   1.000  C
  C972     1.0000 0.47259  0.16771  0.06817  Biso   1.000  C
  C973     1.0000 0.02741  0.06817  0.83229  Biso   1.000  C
  C974     1.0000 0.97259  0.93183  0.83229  Biso   1.000  C
  C975     1.0000 0.02741  0.93183  0.16771  Biso   1.000  C
  C976     1.0000 0.97259  0.06817  0.16771  Biso   1.000  C
  C977     1.0000 0.06817  0.33229  0.52741  Biso   1.000  C
  C978     1.0000 0.93183  0.33229  0.47259  Biso   1.000  C
  C979     1.0000 0.93183  0.66771  0.52741  Biso   1.000  C
  C980     1.0000 0.06817  0.66771  0.47259  Biso   1.000  C
  C981     1.0000 0.33229  0.02741  0.56817  Biso   1.000  C
  C982     1.0000 0.33229  0.97259  0.43183  Biso   1.000  C
  C983     1.0000 0.66771  0.02741  0.43183  Biso   1.000  C
  C984     1.0000 0.66771  0.97259  0.56817  Biso   1.000  C
  C985     1.0000 0.06249  0.01877  0.37447  Biso   1.000  C
  C986     1.0000 0.93751  0.98123  0.37447  Biso   1.000  C
  C987     1.0000 0.93751  0.01877  0.62553  Biso   1.000  C
  C988     1.0000 0.06249  0.98123  0.62553  Biso   1.000  C
  C989     1.0000 0.37447  0.06249  0.01877  Biso   1.000  C
  C990     1.0000 0.37447  0.93751  0.98123  Biso   1.000  C
  C991     1.0000 0.62553  0.93751  0.01877  Biso   1.000  C
  C992     1.0000 0.62553  0.06249  0.98123  Biso   1.000  C
  C993     1.0000 0.01877  0.37447  0.06249  Biso   1.000  C
  C994     1.0000 0.98123  0.37447  0.93751  Biso   1.000  C
  C995     1.0000 0.01877  0.62553  0.93751  Biso   1.000  C
  C996     1.0000 0.98123  0.62553  0.06249  Biso   1.000  C
  C997     1.0000 0.51877  0.56249  0.87447  Biso   1.000  C
  C998     1.0000 0.48123  0.43751  0.87447  Biso   1.000  C
  C999     1.0000 0.51877  0.43751  0.12553  Biso   1.000  C
  C1000    1.0000 0.48123  0.56249  0.12553  Biso   1.000  C
  C1001    1.0000 0.56249  0.87447  0.51877  Biso   1.000  C
  C1002    1.0000 0.43751  0.87447  0.48123  Biso   1.000  C
  C1003    1.0000 0.43751  0.12553  0.51877  Biso   1.000  C
  C1004    1.0000 0.56249  0.12553  0.48123  Biso   1.000  C
  C1005    1.0000 0.87447  0.51877  0.56249  Biso   1.000  C
  C1006    1.0000 0.87447  0.48123  0.43751  Biso   1.000  C
  C1007    1.0000 0.12553  0.51877  0.43751  Biso   1.000  C
  C1008    1.0000 0.12553  0.48123  0.56249  Biso   1.000  C
  C1009    1.0000 0.06249  0.51877  0.87447  Biso   1.000  C
  C1010    1.0000 0.93751  0.48123  0.87447  Biso   1.000  C
  C1011    1.0000 0.93751  0.51877  0.12553  Biso   1.000  C
  C1012    1.0000 0.06249  0.48123  0.12553  Biso   1.000  C
  C1013    1.0000 0.37447  0.56249  0.51877  Biso   1.000  C
  C1014    1.0000 0.37447  0.43751  0.48123  Biso   1.000  C
  C1015    1.0000 0.62553  0.43751  0.51877  Biso   1.000  C
  C1016    1.0000 0.62553  0.56249  0.48123  Biso   1.000  C
  C1017    1.0000 0.01877  0.87447  0.56249  Biso   1.000  C
  C1018    1.0000 0.98123  0.87447  0.43751  Biso   1.000  C
  C1019    1.0000 0.01877  0.12553  0.43751  Biso   1.000  C
  C1020    1.0000 0.98123  0.12553  0.56249  Biso   1.000  C
  C1021    1.0000 0.51877  0.06249  0.37447  Biso   1.000  C
  C1022    1.0000 0.48123  0.93751  0.37447  Biso   1.000  C
  C1023    1.0000 0.51877  0.93751  0.62553  Biso   1.000  C
  C1024    1.0000 0.48123  0.06249  0.62553  Biso   1.000  C
  C1025    1.0000 0.56249  0.37447  0.01877  Biso   1.000  C
  C1026    1.0000 0.43751  0.37447  0.98123  Biso   1.000  C
  C1027    1.0000 0.43751  0.62553  0.01877  Biso   1.000  C
  C1028    1.0000 0.56249  0.62553  0.98123  Biso   1.000  C
  C1029    1.0000 0.87447  0.01877  0.06249  Biso   1.000  C
  C1030    1.0000 0.87447  0.98123  0.93751  Biso   1.000  C
  C1031    1.0000 0.12553  0.01877  0.93751  Biso   1.000  C
  C1032    1.0000 0.12553  0.98123  0.06249  Biso   1.000  C
  C1033    1.0000 0.56249  0.01877  0.87447  Biso   1.000  C
  C1034    1.0000 0.43751  0.98123  0.87447  Biso   1.000  C
  C1035    1.0000 0.43751  0.01877  0.12553  Biso   1.000  C
  C1036    1.0000 0.56249  0.98123  0.12553  Biso   1.000  C
  C1037    1.0000 0.87447  0.06249  0.51877  Biso   1.000  C
  C1038    1.0000 0.87447  0.93751  0.48123  Biso   1.000  C
  C1039    1.0000 0.12553  0.93751  0.51877  Biso   1.000  C
  C1040    1.0000 0.12553  0.06249  0.48123  Biso   1.000  C
  C1041    1.0000 0.51877  0.37447  0.56249  Biso   1.000  C
  C1042    1.0000 0.48123  0.37447  0.43751  Biso   1.000  C
  C1043    1.0000 0.51877  0.62553  0.43751  Biso   1.000  C
  C1044    1.0000 0.48123  0.62553  0.56249  Biso   1.000  C
  C1045    1.0000 0.01877  0.56249  0.37447  Biso   1.000  C
  C1046    1.0000 0.98123  0.43751  0.37447  Biso   1.000  C
  C1047    1.0000 0.01877  0.43751  0.62553  Biso   1.000  C
  C1048    1.0000 0.98123  0.56249  0.62553  Biso   1.000  C
  C1049    1.0000 0.06249  0.87447  0.01877  Biso   1.000  C
  C1050    1.0000 0.93751  0.87447  0.98123  Biso   1.000  C
  C1051    1.0000 0.93751  0.12553  0.01877  Biso   1.000  C
  C1052    1.0000 0.06249  0.12553  0.98123  Biso   1.000  C
  C1053    1.0000 0.37447  0.51877  0.06249  Biso   1.000  C
  C1054    1.0000 0.37447  0.48123  0.93751  Biso   1.000  C
  C1055    1.0000 0.62553  0.51877  0.93751  Biso   1.000  C
  C1056    1.0000 0.62553  0.48123  0.06249  Biso   1.000  C
  C1057    1.0000 0.56249  0.51877  0.37447  Biso   1.000  C
  C1058    1.0000 0.43751  0.48123  0.37447  Biso   1.000  C
  C1059    1.0000 0.43751  0.51877  0.62553  Biso   1.000  C
  C1060    1.0000 0.56249  0.48123  0.62553  Biso   1.000  C
  C1061    1.0000 0.87447  0.56249  0.01877  Biso   1.000  C
  C1062    1.0000 0.87447  0.43751  0.98123  Biso   1.000  C
  C1063    1.0000 0.12553  0.43751  0.01877  Biso   1.000  C
  C1064    1.0000 0.12553  0.56249  0.98123  Biso   1.000  C
  C1065    1.0000 0.51877  0.87447  0.06249  Biso   1.000  C
  C1066    1.0000 0.48123  0.87447  0.93751  Biso   1.000  C
  C1067    1.0000 0.51877  0.12553  0.93751  Biso   1.000  C
  C1068    1.0000 0.48123  0.12553  0.06249  Biso   1.000  C
  C1069    1.0000 0.01877  0.06249  0.87447  Biso   1.000  C
  C1070    1.0000 0.98123  0.93751  0.87447  Biso   1.000  C
  C1071    1.0000 0.01877  0.93751  0.12553  Biso   1.000  C
  C1072    1.0000 0.98123  0.06249  0.12553  Biso   1.000  C
  C1073    1.0000 0.06249  0.37447  0.51877  Biso   1.000  C
  C1074    1.0000 0.93751  0.37447  0.48123  Biso   1.000  C
  C1075    1.0000 0.93751  0.62553  0.51877  Biso   1.000  C
  C1076    1.0000 0.06249  0.62553  0.48123  Biso   1.000  C
  C1077    1.0000 0.37447  0.01877  0.56249  Biso   1.000  C
  C1078    1.0000 0.37447  0.98123  0.43751  Biso   1.000  C
  C1079    1.0000 0.62553  0.01877  0.43751  Biso   1.000  C
  C1080    1.0000 0.62553  0.98123  0.56249  Biso   1.000  C
  H769     1.0000 0.04970  0.03830  0.39180  Biso   1.000  H
  H770     1.0000 0.95030  0.96170  0.39180  Biso   1.000  H
  H771     1.0000 0.95030  0.03830  0.60820  Biso   1.000  H
  H772     1.0000 0.04970  0.96170  0.60820  Biso   1.000  H
  H773     1.0000 0.39180  0.04970  0.03830  Biso   1.000  H
  H774     1.0000 0.39180  0.95030  0.96170  Biso   1.000  H
  H775     1.0000 0.60820  0.95030  0.03830  Biso   1.000  H
  H776     1.0000 0.60820  0.04970  0.96170  Biso   1.000  H
  H777     1.0000 0.03830  0.39180  0.04970  Biso   1.000  H
  H778     1.0000 0.96170  0.39180  0.95030  Biso   1.000  H
  H779     1.0000 0.03830  0.60820  0.95030  Biso   1.000  H
  H780     1.0000 0.96170  0.60820  0.04970  Biso   1.000  H
  H781     1.0000 0.53830  0.54970  0.89180  Biso   1.000  H
  H782     1.0000 0.46170  0.45030  0.89180  Biso   1.000  H
  H783     1.0000 0.53830  0.45030  0.10820  Biso   1.000  H
  H784     1.0000 0.46170  0.54970  0.10820  Biso   1.000  H
  H785     1.0000 0.54970  0.89180  0.53830  Biso   1.000  H
  H786     1.0000 0.45030  0.89180  0.46170  Biso   1.000  H
  H787     1.0000 0.45030  0.10820  0.53830  Biso   1.000  H
  H788     1.0000 0.54970  0.10820  0.46170  Biso   1.000  H
  H789     1.0000 0.89180  0.53830  0.54970  Biso   1.000  H
  H790     1.0000 0.89180  0.46170  0.45030  Biso   1.000  H
  H791     1.0000 0.10820  0.53830  0.45030  Biso   1.000  H
  H792     1.0000 0.10820  0.46170  0.54970  Biso   1.000  H
  H793     1.0000 0.04970  0.53830  0.89180  Biso   1.000  H
  H794     1.0000 0.95030  0.46170  0.89180  Biso   1.000  H
  H795     1.0000 0.95030  0.53830  0.10820  Biso   1.000  H
  H796     1.0000 0.04970  0.46170  0.10820  Biso   1.000  H
  H797     1.0000 0.39180  0.54970  0.53830  Biso   1.000  H
  H798     1.0000 0.39180  0.45030  0.46170  Biso   1.000  H
  H799     1.0000 0.60820  0.45030  0.53830  Biso   1.000  H
  H800     1.0000 0.60820  0.54970  0.46170  Biso   1.000  H
  H801     1.0000 0.03830  0.89180  0.54970  Biso   1.000  H
  H802     1.0000 0.96170  0.89180  0.45030  Biso   1.000  H
  H803     1.0000 0.03830  0.10820  0.45030  Biso   1.000  H
  H804     1.0000 0.96170  0.10820  0.54970  Biso   1.000  H
  H805     1.0000 0.53830  0.04970  0.39180  Biso   1.000  H
  H806     1.0000 0.46170  0.95030  0.39180  Biso   1.000  H
  H807     1.0000 0.53830  0.95030  0.60820  Biso   1.000  H
  H808     1.0000 0.46170  0.04970  0.60820  Biso   1.000  H
  H809     1.0000 0.54970  0.39180  0.03830  Biso   1.000  H
  H810     1.0000 0.45030  0.39180  0.96170  Biso   1.000  H
  H811     1.0000 0.45030  0.60820  0.03830  Biso   1.000  H
  H812     1.0000 0.54970  0.60820  0.96170  Biso   1.000  H
  H813     1.0000 0.89180  0.03830  0.04970  Biso   1.000  H
  H814     1.0000 0.89180  0.96170  0.95030  Biso   1.000  H
  H815     1.0000 0.10820  0.03830  0.95030  Biso   1.000  H
  H816     1.0000 0.10820  0.96170  0.04970  Biso   1.000  H
  H817     1.0000 0.54970  0.03830  0.89180  Biso   1.000  H
  H818     1.0000 0.45030  0.96170  0.89180  Biso   1.000  H
  H819     1.0000 0.45030  0.03830  0.10820  Biso   1.000  H
  H820     1.0000 0.54970  0.96170  0.10820  Biso   1.000  H
  H821     1.0000 0.89180  0.04970  0.53830  Biso   1.000  H
  H822     1.0000 0.89180  0.95030  0.46170  Biso   1.000  H
  H823     1.0000 0.10820  0.95030  0.53830  Biso   1.000  H
  H824     1.0000 0.10820  0.04970  0.46170  Biso   1.000  H
  H825     1.0000 0.53830  0.39180  0.54970  Biso   1.000  H
  H826     1.0000 0.46170  0.39180  0.45030  Biso   1.000  H
  H827     1.0000 0.53830  0.60820  0.45030  Biso   1.000  H
  H828     1.0000 0.46170  0.60820  0.54970  Biso   1.000  H
  H829     1.0000 0.03830  0.54970  0.39180  Biso   1.000  H
  H830     1.0000 0.96170  0.45030  0.39180  Biso   1.000  H
  H831     1.0000 0.03830  0.45030  0.60820  Biso   1.000  H
  H832     1.0000 0.96170  0.54970  0.60820  Biso   1.000  H
  H833     1.0000 0.04970  0.89180  0.03830  Biso   1.000  H
  H834     1.0000 0.95030  0.89180  0.96170  Biso   1.000  H
  H835     1.0000 0.95030  0.10820  0.03830  Biso   1.000  H
  H836     1.0000 0.04970  0.10820  0.96170  Biso   1.000  H
  H837     1.0000 0.39180  0.53830  0.04970  Biso   1.000  H
  H838     1.0000 0.39180  0.46170  0.95030  Biso   1.000  H
  H839     1.0000 0.60820  0.53830  0.95030  Biso   1.000  H
  H840     1.0000 0.60820  0.46170  0.04970  Biso   1.000  H
  H841     1.0000 0.54970  0.53830  0.39180  Biso   1.000  H
  H842     1.0000 0.45030  0.46170  0.39180  Biso   1.000  H
  H843     1.0000 0.45030  0.53830  0.60820  Biso   1.000  H
  H844     1.0000 0.54970  0.46170  0.60820  Biso   1.000  H
  H845     1.0000 0.89180  0.54970  0.03830  Biso   1.000  H
  H846     1.0000 0.89180  0.45030  0.96170  Biso   1.000  H
  H847     1.0000 0.10820  0.45030  0.03830  Biso   1.000  H
  H848     1.0000 0.10820  0.54970  0.96170  Biso   1.000  H
  H849     1.0000 0.53830  0.89180  0.04970  Biso   1.000  H
  H850     1.0000 0.46170  0.89180  0.95030  Biso   1.000  H
  H851     1.0000 0.53830  0.10820  0.95030  Biso   1.000  H
  H852     1.0000 0.46170  0.10820  0.04970  Biso   1.000  H
  H853     1.0000 0.03830  0.04970  0.89180  Biso   1.000  H
  H854     1.0000 0.96170  0.95030  0.89180  Biso   1.000  H
  H855     1.0000 0.03830  0.95030  0.10820  Biso   1.000  H
  H856     1.0000 0.96170  0.04970  0.10820  Biso   1.000  H
  H857     1.0000 0.04970  0.39180  0.53830  Biso   1.000  H
  H858     1.0000 0.95030  0.39180  0.46170  Biso   1.000  H
  H859     1.0000 0.95030  0.60820  0.53830  Biso   1.000  H
  H860     1.0000 0.04970  0.60820  0.46170  Biso   1.000  H
  H861     1.0000 0.39180  0.03830  0.54970  Biso   1.000  H
  H862     1.0000 0.39180  0.96170  0.45030  Biso   1.000  H
  H863     1.0000 0.60820  0.03830  0.45030  Biso   1.000  H
  H864     1.0000 0.60820  0.96170  0.54970  Biso   1.000  H
  C1081    1.0000 0.07586  0.98111  0.39053  Biso   1.000  C
  C1082    1.0000 0.92414  0.01889  0.39053  Biso   1.000  C
  C1083    1.0000 0.92414  0.98111  0.60947  Biso   1.000  C
  C1084    1.0000 0.07586  0.01889  0.60947  Biso   1.000  C
  C1085    1.0000 0.39053  0.07586  0.98111  Biso   1.000  C
  C1086    1.0000 0.39053  0.92414  0.01889  Biso   1.000  C
  C1087    1.0000 0.60947  0.92414  0.98111  Biso   1.000  C
  C1088    1.0000 0.60947  0.07586  0.01889  Biso   1.000  C
  C1089    1.0000 0.98111  0.39053  0.07586  Biso   1.000  C
  C1090    1.0000 0.01889  0.39053  0.92414  Biso   1.000  C
  C1091    1.0000 0.98111  0.60947  0.92414  Biso   1.000  C
  C1092    1.0000 0.01889  0.60947  0.07586  Biso   1.000  C
  C1093    1.0000 0.48111  0.57586  0.89053  Biso   1.000  C
  C1094    1.0000 0.51889  0.42414  0.89053  Biso   1.000  C
  C1095    1.0000 0.48111  0.42414  0.10947  Biso   1.000  C
  C1096    1.0000 0.51889  0.57586  0.10947  Biso   1.000  C
  C1097    1.0000 0.57586  0.89053  0.48111  Biso   1.000  C
  C1098    1.0000 0.42414  0.89053  0.51889  Biso   1.000  C
  C1099    1.0000 0.42414  0.10947  0.48111  Biso   1.000  C
  C1100    1.0000 0.57586  0.10947  0.51889  Biso   1.000  C
  C1101    1.0000 0.89053  0.48111  0.57586  Biso   1.000  C
  C1102    1.0000 0.89053  0.51889  0.42414  Biso   1.000  C
  C1103    1.0000 0.10947  0.48111  0.42414  Biso   1.000  C
  C1104    1.0000 0.10947  0.51889  0.57586  Biso   1.000  C
  C1105    1.0000 0.07586  0.48111  0.89053  Biso   1.000  C
  C1106    1.0000 0.92414  0.51889  0.89053  Biso   1.000  C
  C1107    1.0000 0.92414  0.48111  0.10947  Biso   1.000  C
  C1108    1.0000 0.07586  0.51889  0.10947  Biso   1.000  C
  C1109    1.0000 0.39053  0.57586  0.48111  Biso   1.000  C
  C1110    1.0000 0.39053  0.42414  0.51889  Biso   1.000  C
  C1111    1.0000 0.60947  0.42414  0.48111  Biso   1.000  C
  C1112    1.0000 0.60947  0.57586  0.51889  Biso   1.000  C
  C1113    1.0000 0.98111  0.89053  0.57586  Biso   1.000  C
  C1114    1.0000 0.01889  0.89053  0.42414  Biso   1.000  C
  C1115    1.0000 0.98111  0.10947  0.42414  Biso   1.000  C
  C1116    1.0000 0.01889  0.10947  0.57586  Biso   1.000  C
  C1117    1.0000 0.48111  0.07586  0.39053  Biso   1.000  C
  C1118    1.0000 0.51889  0.92414  0.39053  Biso   1.000  C
  C1119    1.0000 0.48111  0.92414  0.60947  Biso   1.000  C
  C1120    1.0000 0.51889  0.07586  0.60947  Biso   1.000  C
  C1121    1.0000 0.57586  0.39053  0.98111  Biso   1.000  C
  C1122    1.0000 0.42414  0.39053  0.01889  Biso   1.000  C
  C1123    1.0000 0.42414  0.60947  0.98111  Biso   1.000  C
  C1124    1.0000 0.57586  0.60947  0.01889  Biso   1.000  C
  C1125    1.0000 0.89053  0.98111  0.07586  Biso   1.000  C
  C1126    1.0000 0.89053  0.01889  0.92414  Biso   1.000  C
  C1127    1.0000 0.10947  0.98111  0.92414  Biso   1.000  C
  C1128    1.0000 0.10947  0.01889  0.07586  Biso   1.000  C
  C1129    1.0000 0.57586  0.98111  0.89053  Biso   1.000  C
  C1130    1.0000 0.42414  0.01889  0.89053  Biso   1.000  C
  C1131    1.0000 0.42414  0.98111  0.10947  Biso   1.000  C
  C1132    1.0000 0.57586  0.01889  0.10947  Biso   1.000  C
  C1133    1.0000 0.89053  0.07586  0.48111  Biso   1.000  C
  C1134    1.0000 0.89053  0.92414  0.51889  Biso   1.000  C
  C1135    1.0000 0.10947  0.92414  0.48111  Biso   1.000  C
  C1136    1.0000 0.10947  0.07586  0.51889  Biso   1.000  C
  C1137    1.0000 0.48111  0.39053  0.57586  Biso   1.000  C
  C1138    1.0000 0.51889  0.39053  0.42414  Biso   1.000  C
  C1139    1.0000 0.48111  0.60947  0.42414  Biso   1.000  C
  C1140    1.0000 0.51889  0.60947  0.57586  Biso   1.000  C
  C1141    1.0000 0.98111  0.57586  0.39053  Biso   1.000  C
  C1142    1.0000 0.01889  0.42414  0.39053  Biso   1.000  C
  C1143    1.0000 0.98111  0.42414  0.60947  Biso   1.000  C
  C1144    1.0000 0.01889  0.57586  0.60947  Biso   1.000  C
  C1145    1.0000 0.07586  0.89053  0.98111  Biso   1.000  C
  C1146    1.0000 0.92414  0.89053  0.01889  Biso   1.000  C
  C1147    1.0000 0.92414  0.10947  0.98111  Biso   1.000  C
  C1148    1.0000 0.07586  0.10947  0.01889  Biso   1.000  C
  C1149    1.0000 0.39053  0.48111  0.07586  Biso   1.000  C
  C1150    1.0000 0.39053  0.51889  0.92414  Biso   1.000  C
  C1151    1.0000 0.60947  0.48111  0.92414  Biso   1.000  C
  C1152    1.0000 0.60947  0.51889  0.07586  Biso   1.000  C
  C1153    1.0000 0.57586  0.48111  0.39053  Biso   1.000  C
  C1154    1.0000 0.42414  0.51889  0.39053  Biso   1.000  C
  C1155    1.0000 0.42414  0.48111  0.60947  Biso   1.000  C
  C1156    1.0000 0.57586  0.51889  0.60947  Biso   1.000  C
  C1157    1.0000 0.89053  0.57586  0.98111  Biso   1.000  C
  C1158    1.0000 0.89053  0.42414  0.01889  Biso   1.000  C
  C1159    1.0000 0.10947  0.42414  0.98111  Biso   1.000  C
  C1160    1.0000 0.10947  0.57586  0.01889  Biso   1.000  C
  C1161    1.0000 0.48111  0.89053  0.07586  Biso   1.000  C
  C1162    1.0000 0.51889  0.89053  0.92414  Biso   1.000  C
  C1163    1.0000 0.48111  0.10947  0.92414  Biso   1.000  C
  C1164    1.0000 0.51889  0.10947  0.07586  Biso   1.000  C
  C1165    1.0000 0.98111  0.07586  0.89053  Biso   1.000  C
  C1166    1.0000 0.01889  0.92414  0.89053  Biso   1.000  C
  C1167    1.0000 0.98111  0.92414  0.10947  Biso   1.000  C
  C1168    1.0000 0.01889  0.07586  0.10947  Biso   1.000  C
  C1169    1.0000 0.07586  0.39053  0.48111  Biso   1.000  C
  C1170    1.0000 0.92414  0.39053  0.51889  Biso   1.000  C
  C1171    1.0000 0.92414  0.60947  0.48111  Biso   1.000  C
  C1172    1.0000 0.07586  0.60947  0.51889  Biso   1.000  C
  C1173    1.0000 0.39053  0.98111  0.57586  Biso   1.000  C
  C1174    1.0000 0.39053  0.01889  0.42414  Biso   1.000  C
  C1175    1.0000 0.60947  0.98111  0.42414  Biso   1.000  C
  C1176    1.0000 0.60947  0.01889  0.57586  Biso   1.000  C
  H865     1.0000 0.07220  0.97620  0.41890  Biso   1.000  H
  H866     1.0000 0.92780  0.02380  0.41890  Biso   1.000  H
  H867     1.0000 0.92780  0.97620  0.58110  Biso   1.000  H
  H868     1.0000 0.07220  0.02380  0.58110  Biso   1.000  H
  H869     1.0000 0.41890  0.07220  0.97620  Biso   1.000  H
  H870     1.0000 0.41890  0.92780  0.02380  Biso   1.000  H
  H871     1.0000 0.58110  0.92780  0.97620  Biso   1.000  H
  H872     1.0000 0.58110  0.07220  0.02380  Biso   1.000  H
  H873     1.0000 0.97620  0.41890  0.07220  Biso   1.000  H
  H874     1.0000 0.02380  0.41890  0.92780  Biso   1.000  H
  H875     1.0000 0.97620  0.58110  0.92780  Biso   1.000  H
  H876     1.0000 0.02380  0.58110  0.07220  Biso   1.000  H
  H877     1.0000 0.47620  0.57220  0.91890  Biso   1.000  H
  H878     1.0000 0.52380  0.42780  0.91890  Biso   1.000  H
  H879     1.0000 0.47620  0.42780  0.08110  Biso   1.000  H
  H880     1.0000 0.52380  0.57220  0.08110  Biso   1.000  H
  H881     1.0000 0.57220  0.91890  0.47620  Biso   1.000  H
  H882     1.0000 0.42780  0.91890  0.52380  Biso   1.000  H
  H883     1.0000 0.42780  0.08110  0.47620  Biso   1.000  H
  H884     1.0000 0.57220  0.08110  0.52380  Biso   1.000  H
  H885     1.0000 0.91890  0.47620  0.57220  Biso   1.000  H
  H886     1.0000 0.91890  0.52380  0.42780  Biso   1.000  H
  H887     1.0000 0.08110  0.47620  0.42780  Biso   1.000  H
  H888     1.0000 0.08110  0.52380  0.57220  Biso   1.000  H
  H889     1.0000 0.07220  0.47620  0.91890  Biso   1.000  H
  H890     1.0000 0.92780  0.52380  0.91890  Biso   1.000  H
  H891     1.0000 0.92780  0.47620  0.08110  Biso   1.000  H
  H892     1.0000 0.07220  0.52380  0.08110  Biso   1.000  H
  H893     1.0000 0.41890  0.57220  0.47620  Biso   1.000  H
  H894     1.0000 0.41890  0.42780  0.52380  Biso   1.000  H
  H895     1.0000 0.58110  0.42780  0.47620  Biso   1.000  H
  H896     1.0000 0.58110  0.57220  0.52380  Biso   1.000  H
  H897     1.0000 0.97620  0.91890  0.57220  Biso   1.000  H
  H898     1.0000 0.02380  0.91890  0.42780  Biso   1.000  H
  H899     1.0000 0.97620  0.08110  0.42780  Biso   1.000  H
  H900     1.0000 0.02380  0.08110  0.57220  Biso   1.000  H
  H901     1.0000 0.47620  0.07220  0.41890  Biso   1.000  H
  H902     1.0000 0.52380  0.92780  0.41890  Biso   1.000  H
  H903     1.0000 0.47620  0.92780  0.58110  Biso   1.000  H
  H904     1.0000 0.52380  0.07220  0.58110  Biso   1.000  H
  H905     1.0000 0.57220  0.41890  0.97620  Biso   1.000  H
  H906     1.0000 0.42780  0.41890  0.02380  Biso   1.000  H
  H907     1.0000 0.42780  0.58110  0.97620  Biso   1.000  H
  H908     1.0000 0.57220  0.58110  0.02380  Biso   1.000  H
  H909     1.0000 0.91890  0.97620  0.07220  Biso   1.000  H
  H910     1.0000 0.91890  0.02380  0.92780  Biso   1.000  H
  H911     1.0000 0.08110  0.97620  0.92780  Biso   1.000  H
  H912     1.0000 0.08110  0.02380  0.07220  Biso   1.000  H
  H913     1.0000 0.57220  0.97620  0.91890  Biso   1.000  H
  H914     1.0000 0.42780  0.02380  0.91890  Biso   1.000  H
  H915     1.0000 0.42780  0.97620  0.08110  Biso   1.000  H
  H916     1.0000 0.57220  0.02380  0.08110  Biso   1.000  H
  H917     1.0000 0.91890  0.07220  0.47620  Biso   1.000  H
  H918     1.0000 0.91890  0.92780  0.52380  Biso   1.000  H
  H919     1.0000 0.08110  0.92780  0.47620  Biso   1.000  H
  H920     1.0000 0.08110  0.07220  0.52380  Biso   1.000  H
  H921     1.0000 0.47620  0.41890  0.57220  Biso   1.000  H
  H922     1.0000 0.52380  0.41890  0.42780  Biso   1.000  H
  H923     1.0000 0.47620  0.58110  0.42780  Biso   1.000  H
  H924     1.0000 0.52380  0.58110  0.57220  Biso   1.000  H
  H925     1.0000 0.97620  0.57220  0.41890  Biso   1.000  H
  H926     1.0000 0.02380  0.42780  0.41890  Biso   1.000  H
  H927     1.0000 0.97620  0.42780  0.58110  Biso   1.000  H
  H928     1.0000 0.02380  0.57220  0.58110  Biso   1.000  H
  H929     1.0000 0.07220  0.91890  0.97620  Biso   1.000  H
  H930     1.0000 0.92780  0.91890  0.02380  Biso   1.000  H
  H931     1.0000 0.92780  0.08110  0.97620  Biso   1.000  H
  H932     1.0000 0.07220  0.08110  0.02380  Biso   1.000  H
  H933     1.0000 0.41890  0.47620  0.07220  Biso   1.000  H
  H934     1.0000 0.41890  0.52380  0.92780  Biso   1.000  H
  H935     1.0000 0.58110  0.47620  0.92780  Biso   1.000  H
  H936     1.0000 0.58110  0.52380  0.07220  Biso   1.000  H
  H937     1.0000 0.57220  0.47620  0.41890  Biso   1.000  H
  H938     1.0000 0.42780  0.52380  0.41890  Biso   1.000  H
  H939     1.0000 0.42780  0.47620  0.58110  Biso   1.000  H
  H940     1.0000 0.57220  0.52380  0.58110  Biso   1.000  H
  H941     1.0000 0.91890  0.57220  0.97620  Biso   1.000  H
  H942     1.0000 0.91890  0.42780  0.02380  Biso   1.000  H
  H943     1.0000 0.08110  0.42780  0.97620  Biso   1.000  H
  H944     1.0000 0.08110  0.57220  0.02380  Biso   1.000  H
  H945     1.0000 0.47620  0.91890  0.07220  Biso   1.000  H
  H946     1.0000 0.52380  0.91890  0.92780  Biso   1.000  H
  H947     1.0000 0.47620  0.08110  0.92780  Biso   1.000  H
  H948     1.0000 0.52380  0.08110  0.07220  Biso   1.000  H
  H949     1.0000 0.97620  0.07220  0.91890  Biso   1.000  H
  H950     1.0000 0.02380  0.92780  0.91890  Biso   1.000  H
  H951     1.0000 0.97620  0.92780  0.08110  Biso   1.000  H
  H952     1.0000 0.02380  0.07220  0.08110  Biso   1.000  H
  H953     1.0000 0.07220  0.41890  0.47620  Biso   1.000  H
  H954     1.0000 0.92780  0.41890  0.52380  Biso   1.000  H
  H955     1.0000 0.92780  0.58110  0.47620  Biso   1.000  H
  H956     1.0000 0.07220  0.58110  0.52380  Biso   1.000  H
  H957     1.0000 0.41890  0.97620  0.57220  Biso   1.000  H
  H958     1.0000 0.41890  0.02380  0.42780  Biso   1.000  H
  H959     1.0000 0.58110  0.97620  0.42780  Biso   1.000  H
  H960     1.0000 0.58110  0.02380  0.57220  Biso   1.000  H
  N33      1.0000 0.09391  0.95114  0.36714  Biso   1.000  N
  N34      1.0000 0.90609  0.04886  0.36714  Biso   1.000  N
  N35      1.0000 0.90609  0.95114  0.63286  Biso   1.000  N
  N36      1.0000 0.09391  0.04886  0.63286  Biso   1.000  N
  N37      1.0000 0.36714  0.09391  0.95114  Biso   1.000  N
  N38      1.0000 0.36714  0.90609  0.04886  Biso   1.000  N
  N39      1.0000 0.63286  0.90609  0.95114  Biso   1.000  N
  N40      1.0000 0.63286  0.09391  0.04886  Biso   1.000  N
  N41      1.0000 0.95114  0.36714  0.09391  Biso   1.000  N
  N42      1.0000 0.04886  0.36714  0.90609  Biso   1.000  N
  N43      1.0000 0.95114  0.63286  0.90609  Biso   1.000  N
  N44      1.0000 0.04886  0.63286  0.09391  Biso   1.000  N
  N45      1.0000 0.45114  0.59391  0.86714  Biso   1.000  N
  N46      1.0000 0.54886  0.40609  0.86714  Biso   1.000  N
  N47      1.0000 0.45114  0.40609  0.13286  Biso   1.000  N
  N48      1.0000 0.54886  0.59391  0.13286  Biso   1.000  N
  N49      1.0000 0.59391  0.86714  0.45114  Biso   1.000  N
  N50      1.0000 0.40609  0.86714  0.54886  Biso   1.000  N
  N51      1.0000 0.40609  0.13286  0.45114  Biso   1.000  N
  N52      1.0000 0.59391  0.13286  0.54886  Biso   1.000  N
  N53      1.0000 0.86714  0.45114  0.59391  Biso   1.000  N
  N54      1.0000 0.86714  0.54886  0.40609  Biso   1.000  N
  N55      1.0000 0.13286  0.45114  0.40609  Biso   1.000  N
  N56      1.0000 0.13286  0.54886  0.59391  Biso   1.000  N
  N57      1.0000 0.09391  0.45114  0.86714  Biso   1.000  N
  N58      1.0000 0.90609  0.54886  0.86714  Biso   1.000  N
  N59      1.0000 0.90609  0.45114  0.13286  Biso   1.000  N
  N60      1.0000 0.09391  0.54886  0.13286  Biso   1.000  N
  N61      1.0000 0.36714  0.59391  0.45114  Biso   1.000  N
  N62      1.0000 0.36714  0.40609  0.54886  Biso   1.000  N
  N63      1.0000 0.63286  0.40609  0.45114  Biso   1.000  N
  N64      1.0000 0.63286  0.59391  0.54886  Biso   1.000  N
  N65      1.0000 0.95114  0.86714  0.59391  Biso   1.000  N
  N66      1.0000 0.04886  0.86714  0.40609  Biso   1.000  N
  N67      1.0000 0.95114  0.13286  0.40609  Biso   1.000  N
  N68      1.0000 0.04886  0.13286  0.59391  Biso   1.000  N
  N69      1.0000 0.45114  0.09391  0.36714  Biso   1.000  N
  N70      1.0000 0.54886  0.90609  0.36714  Biso   1.000  N
  N71      1.0000 0.45114  0.90609  0.63286  Biso   1.000  N
  N72      1.0000 0.54886  0.09391  0.63286  Biso   1.000  N
  N73      1.0000 0.59391  0.36714  0.95114  Biso   1.000  N
  N74      1.0000 0.40609  0.36714  0.04886  Biso   1.000  N
  N75      1.0000 0.40609  0.63286  0.95114  Biso   1.000  N
  N76      1.0000 0.59391  0.63286  0.04886  Biso   1.000  N
  N77      1.0000 0.86714  0.95114  0.09391  Biso   1.000  N
  N78      1.0000 0.86714  0.04886  0.90609  Biso   1.000  N
  N79      1.0000 0.13286  0.95114  0.90609  Biso   1.000  N
  N80      1.0000 0.13286  0.04886  0.09391  Biso   1.000  N
  N81      1.0000 0.59391  0.95114  0.86714  Biso   1.000  N
  N82      1.0000 0.40609  0.04886  0.86714  Biso   1.000  N
  N83      1.0000 0.40609  0.95114  0.13286  Biso   1.000  N
  N84      1.0000 0.59391  0.04886  0.13286  Biso   1.000  N
  N85      1.0000 0.86714  0.09391  0.45114  Biso   1.000  N
  N86      1.0000 0.86714  0.90609  0.54886  Biso   1.000  N
  N87      1.0000 0.13286  0.90609  0.45114  Biso   1.000  N
  N88      1.0000 0.13286  0.09391  0.54886  Biso   1.000  N
  N89      1.0000 0.45114  0.36714  0.59391  Biso   1.000  N
  N90      1.0000 0.54886  0.36714  0.40609  Biso   1.000  N
  N91      1.0000 0.45114  0.63286  0.40609  Biso   1.000  N
  N92      1.0000 0.54886  0.63286  0.59391  Biso   1.000  N
  N93      1.0000 0.95114  0.59391  0.36714  Biso   1.000  N
  N94      1.0000 0.04886  0.40609  0.36714  Biso   1.000  N
  N95      1.0000 0.95114  0.40609  0.63286  Biso   1.000  N
  N96      1.0000 0.04886  0.59391  0.63286  Biso   1.000  N
  N97      1.0000 0.09391  0.86714  0.95114  Biso   1.000  N
  N98      1.0000 0.90609  0.86714  0.04886  Biso   1.000  N
  N99      1.0000 0.90609  0.13286  0.95114  Biso   1.000  N
  N100     1.0000 0.09391  0.13286  0.04886  Biso   1.000  N
  N101     1.0000 0.36714  0.45114  0.09391  Biso   1.000  N
  N102     1.0000 0.36714  0.54886  0.90609  Biso   1.000  N
  N103     1.0000 0.63286  0.45114  0.90609  Biso   1.000  N
  N104     1.0000 0.63286  0.54886  0.09391  Biso   1.000  N
  N105     1.0000 0.59391  0.45114  0.36714  Biso   1.000  N
  N106     1.0000 0.40609  0.54886  0.36714  Biso   1.000  N
  N107     1.0000 0.40609  0.45114  0.63286  Biso   1.000  N
  N108     1.0000 0.59391  0.54886  0.63286  Biso   1.000  N
  N109     1.0000 0.86714  0.59391  0.95114  Biso   1.000  N
  N110     1.0000 0.86714  0.40609  0.04886  Biso   1.000  N
  N111     1.0000 0.13286  0.40609  0.95114  Biso   1.000  N
  N112     1.0000 0.13286  0.59391  0.04886  Biso   1.000  N
  N113     1.0000 0.45114  0.86714  0.09391  Biso   1.000  N
  N114     1.0000 0.54886  0.86714  0.90609  Biso   1.000  N
  N115     1.0000 0.45114  0.13286  0.90609  Biso   1.000  N
  N116     1.0000 0.54886  0.13286  0.09391  Biso   1.000  N
  N117     1.0000 0.95114  0.09391  0.86714  Biso   1.000  N
  N118     1.0000 0.04886  0.90609  0.86714  Biso   1.000  N
  N119     1.0000 0.95114  0.90609  0.13286  Biso   1.000  N
  N120     1.0000 0.04886  0.09391  0.13286  Biso   1.000  N
  N121     1.0000 0.09391  0.36714  0.45114  Biso   1.000  N
  N122     1.0000 0.90609  0.36714  0.54886  Biso   1.000  N
  N123     1.0000 0.90609  0.63286  0.45114  Biso   1.000  N
  N124     1.0000 0.09391  0.63286  0.54886  Biso   1.000  N
  N125     1.0000 0.36714  0.95114  0.59391  Biso   1.000  N
  N126     1.0000 0.36714  0.04886  0.40609  Biso   1.000  N
  N127     1.0000 0.63286  0.95114  0.40609  Biso   1.000  N
  N128     1.0000 0.63286  0.04886  0.59391  Biso   1.000  N
  C1177    1.0000 0.09915  0.95956  0.32665  Biso   1.000  C
  C1178    1.0000 0.90085  0.04044  0.32665  Biso   1.000  C
  C1179    1.0000 0.90085  0.95956  0.67335  Biso   1.000  C
  C1180    1.0000 0.09915  0.04044  0.67335  Biso   1.000  C
  C1181    1.0000 0.32665  0.09915  0.95956  Biso   1.000  C
  C1182    1.0000 0.32665  0.90085  0.04044  Biso   1.000  C
  C1183    1.0000 0.67335  0.90085  0.95956  Biso   1.000  C
  C1184    1.0000 0.67335  0.09915  0.04044  Biso   1.000  C
  C1185    1.0000 0.95956  0.32665  0.09915  Biso   1.000  C
  C1186    1.0000 0.04044  0.32665  0.90085  Biso   1.000  C
  C1187    1.0000 0.95956  0.67335  0.90085  Biso   1.000  C
  C1188    1.0000 0.04044  0.67335  0.09915  Biso   1.000  C
  C1189    1.0000 0.45956  0.59915  0.82665  Biso   1.000  C
  C1190    1.0000 0.54044  0.40085  0.82665  Biso   1.000  C
  C1191    1.0000 0.45956  0.40085  0.17335  Biso   1.000  C
  C1192    1.0000 0.54044  0.59915  0.17335  Biso   1.000  C
  C1193    1.0000 0.59915  0.82665  0.45956  Biso   1.000  C
  C1194    1.0000 0.40085  0.82665  0.54044  Biso   1.000  C
  C1195    1.0000 0.40085  0.17335  0.45956  Biso   1.000  C
  C1196    1.0000 0.59915  0.17335  0.54044  Biso   1.000  C
  C1197    1.0000 0.82665  0.45956  0.59915  Biso   1.000  C
  C1198    1.0000 0.82665  0.54044  0.40085  Biso   1.000  C
  C1199    1.0000 0.17335  0.45956  0.40085  Biso   1.000  C
  C1200    1.0000 0.17335  0.54044  0.59915  Biso   1.000  C
  C1201    1.0000 0.09915  0.45956  0.82665  Biso   1.000  C
  C1202    1.0000 0.90085  0.54044  0.82665  Biso   1.000  C
  C1203    1.0000 0.90085  0.45956  0.17335  Biso   1.000  C
  C1204    1.0000 0.09915  0.54044  0.17335  Biso   1.000  C
  C1205    1.0000 0.32665  0.59915  0.45956  Biso   1.000  C
  C1206    1.0000 0.32665  0.40085  0.54044  Biso   1.000  C
  C1207    1.0000 0.67335  0.40085  0.45956  Biso   1.000  C
  C1208    1.0000 0.67335  0.59915  0.54044  Biso   1.000  C
  C1209    1.0000 0.95956  0.82665  0.59915  Biso   1.000  C
  C1210    1.0000 0.04044  0.82665  0.40085  Biso   1.000  C
  C1211    1.0000 0.95956  0.17335  0.40085  Biso   1.000  C
  C1212    1.0000 0.04044  0.17335  0.59915  Biso   1.000  C
  C1213    1.0000 0.45956  0.09915  0.32665  Biso   1.000  C
  C1214    1.0000 0.54044  0.90085  0.32665  Biso   1.000  C
  C1215    1.0000 0.45956  0.90085  0.67335  Biso   1.000  C
  C1216    1.0000 0.54044  0.09915  0.67335  Biso   1.000  C
  C1217    1.0000 0.59915  0.32665  0.95956  Biso   1.000  C
  C1218    1.0000 0.40085  0.32665  0.04044  Biso   1.000  C
  C1219    1.0000 0.40085  0.67335  0.95956  Biso   1.000  C
  C1220    1.0000 0.59915  0.67335  0.04044  Biso   1.000  C
  C1221    1.0000 0.82665  0.95956  0.09915  Biso   1.000  C
  C1222    1.0000 0.82665  0.04044  0.90085  Biso   1.000  C
  C1223    1.0000 0.17335  0.95956  0.90085  Biso   1.000  C
  C1224    1.0000 0.17335  0.04044  0.09915  Biso   1.000  C
  C1225    1.0000 0.59915  0.95956  0.82665  Biso   1.000  C
  C1226    1.0000 0.40085  0.04044  0.82665  Biso   1.000  C
  C1227    1.0000 0.40085  0.95956  0.17335  Biso   1.000  C
  C1228    1.0000 0.59915  0.04044  0.17335  Biso   1.000  C
  C1229    1.0000 0.82665  0.09915  0.45956  Biso   1.000  C
  C1230    1.0000 0.82665  0.90085  0.54044  Biso   1.000  C
  C1231    1.0000 0.17335  0.90085  0.45956  Biso   1.000  C
  C1232    1.0000 0.17335  0.09915  0.54044  Biso   1.000  C
  C1233    1.0000 0.45956  0.32665  0.59915  Biso   1.000  C
  C1234    1.0000 0.54044  0.32665  0.40085  Biso   1.000  C
  C1235    1.0000 0.45956  0.67335  0.40085  Biso   1.000  C
  C1236    1.0000 0.54044  0.67335  0.59915  Biso   1.000  C
  C1237    1.0000 0.95956  0.59915  0.32665  Biso   1.000  C
  C1238    1.0000 0.04044  0.40085  0.32665  Biso   1.000  C
  C1239    1.0000 0.95956  0.40085  0.67335  Biso   1.000  C
  C1240    1.0000 0.04044  0.59915  0.67335  Biso   1.000  C
  C1241    1.0000 0.09915  0.82665  0.95956  Biso   1.000  C
  C1242    1.0000 0.90085  0.82665  0.04044  Biso   1.000  C
  C1243    1.0000 0.90085  0.17335  0.95956  Biso   1.000  C
  C1244    1.0000 0.09915  0.17335  0.04044  Biso   1.000  C
  C1245    1.0000 0.32665  0.45956  0.09915  Biso   1.000  C
  C1246    1.0000 0.32665  0.54044  0.90085  Biso   1.000  C
  C1247    1.0000 0.67335  0.45956  0.90085  Biso   1.000  C
  C1248    1.0000 0.67335  0.54044  0.09915  Biso   1.000  C
  C1249    1.0000 0.59915  0.45956  0.32665  Biso   1.000  C
  C1250    1.0000 0.40085  0.54044  0.32665  Biso   1.000  C
  C1251    1.0000 0.40085  0.45956  0.67335  Biso   1.000  C
  C1252    1.0000 0.59915  0.54044  0.67335  Biso   1.000  C
  C1253    1.0000 0.82665  0.59915  0.95956  Biso   1.000  C
  C1254    1.0000 0.82665  0.40085  0.04044  Biso   1.000  C
  C1255    1.0000 0.17335  0.40085  0.95956  Biso   1.000  C
  C1256    1.0000 0.17335  0.59915  0.04044  Biso   1.000  C
  C1257    1.0000 0.45956  0.82665  0.09915  Biso   1.000  C
  C1258    1.0000 0.54044  0.82665  0.90085  Biso   1.000  C
  C1259    1.0000 0.45956  0.17335  0.90085  Biso   1.000  C
  C1260    1.0000 0.54044  0.17335  0.09915  Biso   1.000  C
  C1261    1.0000 0.95956  0.09915  0.82665  Biso   1.000  C
  C1262    1.0000 0.04044  0.90085  0.82665  Biso   1.000  C
  C1263    1.0000 0.95956  0.90085  0.17335  Biso   1.000  C
  C1264    1.0000 0.04044  0.09915  0.17335  Biso   1.000  C
  C1265    1.0000 0.09915  0.32665  0.45956  Biso   1.000  C
  C1266    1.0000 0.90085  0.32665  0.54044  Biso   1.000  C
  C1267    1.0000 0.90085  0.67335  0.45956  Biso   1.000  C
  C1268    1.0000 0.09915  0.67335  0.54044  Biso   1.000  C
  C1269    1.0000 0.32665  0.95956  0.59915  Biso   1.000  C
  C1270    1.0000 0.32665  0.04044  0.40085  Biso   1.000  C
  C1271    1.0000 0.67335  0.95956  0.40085  Biso   1.000  C
  C1272    1.0000 0.67335  0.04044  0.59915  Biso   1.000  C
  H961     1.0000 0.11130  0.93930  0.30980  Biso   1.000  H
  H962     1.0000 0.88870  0.06070  0.30980  Biso   1.000  H
  H963     1.0000 0.88870  0.93930  0.69020  Biso   1.000  H
  H964     1.0000 0.11130  0.06070  0.69020  Biso   1.000  H
  H965     1.0000 0.30980  0.11130  0.93930  Biso   1.000  H
  H966     1.0000 0.30980  0.88870  0.06070  Biso   1.000  H
  H967     1.0000 0.69020  0.88870  0.93930  Biso   1.000  H
  H968     1.0000 0.69020  0.11130  0.06070  Biso   1.000  H
  H969     1.0000 0.93930  0.30980  0.11130  Biso   1.000  H
  H970     1.0000 0.06070  0.30980  0.88870  Biso   1.000  H
  H971     1.0000 0.93930  0.69020  0.88870  Biso   1.000  H
  H972     1.0000 0.06070  0.69020  0.11130  Biso   1.000  H
  H973     1.0000 0.43930  0.61130  0.80980  Biso   1.000  H
  H974     1.0000 0.56070  0.38870  0.80980  Biso   1.000  H
  H975     1.0000 0.43930  0.38870  0.19020  Biso   1.000  H
  H976     1.0000 0.56070  0.61130  0.19020  Biso   1.000  H
  H977     1.0000 0.61130  0.80980  0.43930  Biso   1.000  H
  H978     1.0000 0.38870  0.80980  0.56070  Biso   1.000  H
  H979     1.0000 0.38870  0.19020  0.43930  Biso   1.000  H
  H980     1.0000 0.61130  0.19020  0.56070  Biso   1.000  H
  H981     1.0000 0.80980  0.43930  0.61130  Biso   1.000  H
  H982     1.0000 0.80980  0.56070  0.38870  Biso   1.000  H
  H983     1.0000 0.19020  0.43930  0.38870  Biso   1.000  H
  H984     1.0000 0.19020  0.56070  0.61130  Biso   1.000  H
  H985     1.0000 0.11130  0.43930  0.80980  Biso   1.000  H
  H986     1.0000 0.88870  0.56070  0.80980  Biso   1.000  H
  H987     1.0000 0.88870  0.43930  0.19020  Biso   1.000  H
  H988     1.0000 0.11130  0.56070  0.19020  Biso   1.000  H
  H989     1.0000 0.30980  0.61130  0.43930  Biso   1.000  H
  H990     1.0000 0.30980  0.38870  0.56070  Biso   1.000  H
  H991     1.0000 0.69020  0.38870  0.43930  Biso   1.000  H
  H992     1.0000 0.69020  0.61130  0.56070  Biso   1.000  H
  H993     1.0000 0.93930  0.80980  0.61130  Biso   1.000  H
  H994     1.0000 0.06070  0.80980  0.38870  Biso   1.000  H
  H995     1.0000 0.93930  0.19020  0.38870  Biso   1.000  H
  H996     1.0000 0.06070  0.19020  0.61130  Biso   1.000  H
  H997     1.0000 0.43930  0.11130  0.30980  Biso   1.000  H
  H998     1.0000 0.56070  0.88870  0.30980  Biso   1.000  H
  H999     1.0000 0.43930  0.88870  0.69020  Biso   1.000  H
  H1000    1.0000 0.56070  0.11130  0.69020  Biso   1.000  H
  H1001    1.0000 0.61130  0.30980  0.93930  Biso   1.000  H
  H1002    1.0000 0.38870  0.30980  0.06070  Biso   1.000  H
  H1003    1.0000 0.38870  0.69020  0.93930  Biso   1.000  H
  H1004    1.0000 0.61130  0.69020  0.06070  Biso   1.000  H
  H1005    1.0000 0.80980  0.93930  0.11130  Biso   1.000  H
  H1006    1.0000 0.80980  0.06070  0.88870  Biso   1.000  H
  H1007    1.0000 0.19020  0.93930  0.88870  Biso   1.000  H
  H1008    1.0000 0.19020  0.06070  0.11130  Biso   1.000  H
  H1009    1.0000 0.61130  0.93930  0.80980  Biso   1.000  H
  H1010    1.0000 0.38870  0.06070  0.80980  Biso   1.000  H
  H1011    1.0000 0.38870  0.93930  0.19020  Biso   1.000  H
  H1012    1.0000 0.61130  0.06070  0.19020  Biso   1.000  H
  H1013    1.0000 0.80980  0.11130  0.43930  Biso   1.000  H
  H1014    1.0000 0.80980  0.88870  0.56070  Biso   1.000  H
  H1015    1.0000 0.19020  0.88870  0.43930  Biso   1.000  H
  H1016    1.0000 0.19020  0.11130  0.56070  Biso   1.000  H
  H1017    1.0000 0.43930  0.30980  0.61130  Biso   1.000  H
  H1018    1.0000 0.56070  0.30980  0.38870  Biso   1.000  H
  H1019    1.0000 0.43930  0.69020  0.38870  Biso   1.000  H
  H1020    1.0000 0.56070  0.69020  0.61130  Biso   1.000  H
  H1021    1.0000 0.93930  0.61130  0.30980  Biso   1.000  H
  H1022    1.0000 0.06070  0.38870  0.30980  Biso   1.000  H
  H1023    1.0000 0.93930  0.38870  0.69020  Biso   1.000  H
  H1024    1.0000 0.06070  0.61130  0.69020  Biso   1.000  H
  H1025    1.0000 0.11130  0.80980  0.93930  Biso   1.000  H
  H1026    1.0000 0.88870  0.80980  0.06070  Biso   1.000  H
  H1027    1.0000 0.88870  0.19020  0.93930  Biso   1.000  H
  H1028    1.0000 0.11130  0.19020  0.06070  Biso   1.000  H
  H1029    1.0000 0.30980  0.43930  0.11130  Biso   1.000  H
  H1030    1.0000 0.30980  0.56070  0.88870  Biso   1.000  H
  H1031    1.0000 0.69020  0.43930  0.88870  Biso   1.000  H
  H1032    1.0000 0.69020  0.56070  0.11130  Biso   1.000  H
  H1033    1.0000 0.61130  0.43930  0.30980  Biso   1.000  H
  H1034    1.0000 0.38870  0.56070  0.30980  Biso   1.000  H
  H1035    1.0000 0.38870  0.43930  0.69020  Biso   1.000  H
  H1036    1.0000 0.61130  0.56070  0.69020  Biso   1.000  H
  H1037    1.0000 0.80980  0.61130  0.93930  Biso   1.000  H
  H1038    1.0000 0.80980  0.38870  0.06070  Biso   1.000  H
  H1039    1.0000 0.19020  0.38870  0.93930  Biso   1.000  H
  H1040    1.0000 0.19020  0.61130  0.06070  Biso   1.000  H
  H1041    1.0000 0.43930  0.80980  0.11130  Biso   1.000  H
  H1042    1.0000 0.56070  0.80980  0.88870  Biso   1.000  H
  H1043    1.0000 0.43930  0.19020  0.88870  Biso   1.000  H
  H1044    1.0000 0.56070  0.19020  0.11130  Biso   1.000  H
  H1045    1.0000 0.93930  0.11130  0.80980  Biso   1.000  H
  H1046    1.0000 0.06070  0.88870  0.80980  Biso   1.000  H
  H1047    1.0000 0.93930  0.88870  0.19020  Biso   1.000  H
  H1048    1.0000 0.06070  0.11130  0.19020  Biso   1.000  H
  H1049    1.0000 0.11130  0.30980  0.43930  Biso   1.000  H
  H1050    1.0000 0.88870  0.30980  0.56070  Biso   1.000  H
  H1051    1.0000 0.88870  0.69020  0.43930  Biso   1.000  H
  H1052    1.0000 0.11130  0.69020  0.56070  Biso   1.000  H
  H1053    1.0000 0.30980  0.93930  0.61130  Biso   1.000  H
  H1054    1.0000 0.30980  0.06070  0.38870  Biso   1.000  H
  H1055    1.0000 0.69020  0.93930  0.38870  Biso   1.000  H
  H1056    1.0000 0.69020  0.06070  0.61130  Biso   1.000  H
  C1273    1.0000 0.08734  0.99699  0.30842  Biso   1.000  C
  C1274    1.0000 0.91266  0.00301  0.30842  Biso   1.000  C
  C1275    1.0000 0.91266  0.99699  0.69158  Biso   1.000  C
  C1276    1.0000 0.08734  0.00301  0.69158  Biso   1.000  C
  C1277    1.0000 0.30842  0.08734  0.99699  Biso   1.000  C
  C1278    1.0000 0.30842  0.91266  0.00301  Biso   1.000  C
  C1279    1.0000 0.69158  0.91266  0.99699  Biso   1.000  C
  C1280    1.0000 0.69158  0.08734  0.00301  Biso   1.000  C
  C1281    1.0000 0.99699  0.30842  0.08734  Biso   1.000  C
  C1282    1.0000 0.00301  0.30842  0.91266  Biso   1.000  C
  C1283    1.0000 0.99699  0.69158  0.91266  Biso   1.000  C
  C1284    1.0000 0.00301  0.69158  0.08734  Biso   1.000  C
  C1285    1.0000 0.49699  0.58734  0.80842  Biso   1.000  C
  C1286    1.0000 0.50301  0.41266  0.80842  Biso   1.000  C
  C1287    1.0000 0.49699  0.41266  0.19158  Biso   1.000  C
  C1288    1.0000 0.50301  0.58734  0.19158  Biso   1.000  C
  C1289    1.0000 0.58734  0.80842  0.49699  Biso   1.000  C
  C1290    1.0000 0.41266  0.80842  0.50301  Biso   1.000  C
  C1291    1.0000 0.41266  0.19158  0.49699  Biso   1.000  C
  C1292    1.0000 0.58734  0.19158  0.50301  Biso   1.000  C
  C1293    1.0000 0.80842  0.49699  0.58734  Biso   1.000  C
  C1294    1.0000 0.80842  0.50301  0.41266  Biso   1.000  C
  C1295    1.0000 0.19158  0.49699  0.41266  Biso   1.000  C
  C1296    1.0000 0.19158  0.50301  0.58734  Biso   1.000  C
  C1297    1.0000 0.08734  0.49699  0.80842  Biso   1.000  C
  C1298    1.0000 0.91266  0.50301  0.80842  Biso   1.000  C
  C1299    1.0000 0.91266  0.49699  0.19158  Biso   1.000  C
  C1300    1.0000 0.08734  0.50301  0.19158  Biso   1.000  C
  C1301    1.0000 0.30842  0.58734  0.49699  Biso   1.000  C
  C1302    1.0000 0.30842  0.41266  0.50301  Biso   1.000  C
  C1303    1.0000 0.69158  0.41266  0.49699  Biso   1.000  C
  C1304    1.0000 0.69158  0.58734  0.50301  Biso   1.000  C
  C1305    1.0000 0.99699  0.80842  0.58734  Biso   1.000  C
  C1306    1.0000 0.00301  0.80842  0.41266  Biso   1.000  C
  C1307    1.0000 0.99699  0.19158  0.41266  Biso   1.000  C
  C1308    1.0000 0.00301  0.19158  0.58734  Biso   1.000  C
  C1309    1.0000 0.49699  0.08734  0.30842  Biso   1.000  C
  C1310    1.0000 0.50301  0.91266  0.30842  Biso   1.000  C
  C1311    1.0000 0.49699  0.91266  0.69158  Biso   1.000  C
  C1312    1.0000 0.50301  0.08734  0.69158  Biso   1.000  C
  C1313    1.0000 0.58734  0.30842  0.99699  Biso   1.000  C
  C1314    1.0000 0.41266  0.30842  0.00301  Biso   1.000  C
  C1315    1.0000 0.41266  0.69158  0.99699  Biso   1.000  C
  C1316    1.0000 0.58734  0.69158  0.00301  Biso   1.000  C
  C1317    1.0000 0.80842  0.99699  0.08734  Biso   1.000  C
  C1318    1.0000 0.80842  0.00301  0.91266  Biso   1.000  C
  C1319    1.0000 0.19158  0.99699  0.91266  Biso   1.000  C
  C1320    1.0000 0.19158  0.00301  0.08734  Biso   1.000  C
  C1321    1.0000 0.58734  0.99699  0.80842  Biso   1.000  C
  C1322    1.0000 0.41266  0.00301  0.80842  Biso   1.000  C
  C1323    1.0000 0.41266  0.99699  0.19158  Biso   1.000  C
  C1324    1.0000 0.58734  0.00301  0.19158  Biso   1.000  C
  C1325    1.0000 0.80842  0.08734  0.49699  Biso   1.000  C
  C1326    1.0000 0.80842  0.91266  0.50301  Biso   1.000  C
  C1327    1.0000 0.19158  0.91266  0.49699  Biso   1.000  C
  C1328    1.0000 0.19158  0.08734  0.50301  Biso   1.000  C
  C1329    1.0000 0.49699  0.30842  0.58734  Biso   1.000  C
  C1330    1.0000 0.50301  0.30842  0.41266  Biso   1.000  C
  C1331    1.0000 0.49699  0.69158  0.41266  Biso   1.000  C
  C1332    1.0000 0.50301  0.69158  0.58734  Biso   1.000  C
  C1333    1.0000 0.99699  0.58734  0.30842  Biso   1.000  C
  C1334    1.0000 0.00301  0.41266  0.30842  Biso   1.000  C
  C1335    1.0000 0.99699  0.41266  0.69158  Biso   1.000  C
  C1336    1.0000 0.00301  0.58734  0.69158  Biso   1.000  C
  C1337    1.0000 0.08734  0.80842  0.99699  Biso   1.000  C
  C1338    1.0000 0.91266  0.80842  0.00301  Biso   1.000  C
  C1339    1.0000 0.91266  0.19158  0.99699  Biso   1.000  C
  C1340    1.0000 0.08734  0.19158  0.00301  Biso   1.000  C
  C1341    1.0000 0.30842  0.49699  0.08734  Biso   1.000  C
  C1342    1.0000 0.30842  0.50301  0.91266  Biso   1.000  C
  C1343    1.0000 0.69158  0.49699  0.91266  Biso   1.000  C
  C1344    1.0000 0.69158  0.50301  0.08734  Biso   1.000  C
  C1345    1.0000 0.58734  0.49699  0.30842  Biso   1.000  C
  C1346    1.0000 0.41266  0.50301  0.30842  Biso   1.000  C
  C1347    1.0000 0.41266  0.49699  0.69158  Biso   1.000  C
  C1348    1.0000 0.58734  0.50301  0.69158  Biso   1.000  C
  C1349    1.0000 0.80842  0.58734  0.99699  Biso   1.000  C
  C1350    1.0000 0.80842  0.41266  0.00301  Biso   1.000  C
  C1351    1.0000 0.19158  0.41266  0.99699  Biso   1.000  C
  C1352    1.0000 0.19158  0.58734  0.00301  Biso   1.000  C
  C1353    1.0000 0.49699  0.80842  0.08734  Biso   1.000  C
  C1354    1.0000 0.50301  0.80842  0.91266  Biso   1.000  C
  C1355    1.0000 0.49699  0.19158  0.91266  Biso   1.000  C
  C1356    1.0000 0.50301  0.19158  0.08734  Biso   1.000  C
  C1357    1.0000 0.99699  0.08734  0.80842  Biso   1.000  C
  C1358    1.0000 0.00301  0.91266  0.80842  Biso   1.000  C
  C1359    1.0000 0.99699  0.91266  0.19158  Biso   1.000  C
  C1360    1.0000 0.00301  0.08734  0.19158  Biso   1.000  C
  C1361    1.0000 0.08734  0.30842  0.49699  Biso   1.000  C
  C1362    1.0000 0.91266  0.30842  0.50301  Biso   1.000  C
  C1363    1.0000 0.91266  0.69158  0.49699  Biso   1.000  C
  C1364    1.0000 0.08734  0.69158  0.50301  Biso   1.000  C
  C1365    1.0000 0.30842  0.99699  0.58734  Biso   1.000  C
  C1366    1.0000 0.30842  0.00301  0.41266  Biso   1.000  C
  C1367    1.0000 0.69158  0.99699  0.41266  Biso   1.000  C
  C1368    1.0000 0.69158  0.00301  0.58734  Biso   1.000  C
  H1057    1.0000 0.09230  0.00160  0.28020  Biso   1.000  H
  H1058    1.0000 0.90770  0.99840  0.28020  Biso   1.000  H
  H1059    1.0000 0.90770  0.00160  0.71980  Biso   1.000  H
  H1060    1.0000 0.09230  0.99840  0.71980  Biso   1.000  H
  H1061    1.0000 0.28020  0.09230  0.00160  Biso   1.000  H
  H1062    1.0000 0.28020  0.90770  0.99840  Biso   1.000  H
  H1063    1.0000 0.71980  0.90770  0.00160  Biso   1.000  H
  H1064    1.0000 0.71980  0.09230  0.99840  Biso   1.000  H
  H1065    1.0000 0.00160  0.28020  0.09230  Biso   1.000  H
  H1066    1.0000 0.99840  0.28020  0.90770  Biso   1.000  H
  H1067    1.0000 0.00160  0.71980  0.90770  Biso   1.000  H
  H1068    1.0000 0.99840  0.71980  0.09230  Biso   1.000  H
  H1069    1.0000 0.50160  0.59230  0.78020  Biso   1.000  H
  H1070    1.0000 0.49840  0.40770  0.78020  Biso   1.000  H
  H1071    1.0000 0.50160  0.40770  0.21980  Biso   1.000  H
  H1072    1.0000 0.49840  0.59230  0.21980  Biso   1.000  H
  H1073    1.0000 0.59230  0.78020  0.50160  Biso   1.000  H
  H1074    1.0000 0.40770  0.78020  0.49840  Biso   1.000  H
  H1075    1.0000 0.40770  0.21980  0.50160  Biso   1.000  H
  H1076    1.0000 0.59230  0.21980  0.49840  Biso   1.000  H
  H1077    1.0000 0.78020  0.50160  0.59230  Biso   1.000  H
  H1078    1.0000 0.78020  0.49840  0.40770  Biso   1.000  H
  H1079    1.0000 0.21980  0.50160  0.40770  Biso   1.000  H
  H1080    1.0000 0.21980  0.49840  0.59230  Biso   1.000  H
  H1081    1.0000 0.09230  0.50160  0.78020  Biso   1.000  H
  H1082    1.0000 0.90770  0.49840  0.78020  Biso   1.000  H
  H1083    1.0000 0.90770  0.50160  0.21980  Biso   1.000  H
  H1084    1.0000 0.09230  0.49840  0.21980  Biso   1.000  H
  H1085    1.0000 0.28020  0.59230  0.50160  Biso   1.000  H
  H1086    1.0000 0.28020  0.40770  0.49840  Biso   1.000  H
  H1087    1.0000 0.71980  0.40770  0.50160  Biso   1.000  H
  H1088    1.0000 0.71980  0.59230  0.49840  Biso   1.000  H
  H1089    1.0000 0.00160  0.78020  0.59230  Biso   1.000  H
  H1090    1.0000 0.99840  0.78020  0.40770  Biso   1.000  H
  H1091    1.0000 0.00160  0.21980  0.40770  Biso   1.000  H
  H1092    1.0000 0.99840  0.21980  0.59230  Biso   1.000  H
  H1093    1.0000 0.50160  0.09230  0.28020  Biso   1.000  H
  H1094    1.0000 0.49840  0.90770  0.28020  Biso   1.000  H
  H1095    1.0000 0.50160  0.90770  0.71980  Biso   1.000  H
  H1096    1.0000 0.49840  0.09230  0.71980  Biso   1.000  H
  H1097    1.0000 0.59230  0.28020  0.00160  Biso   1.000  H
  H1098    1.0000 0.40770  0.28020  0.99840  Biso   1.000  H
  H1099    1.0000 0.40770  0.71980  0.00160  Biso   1.000  H
  H1100    1.0000 0.59230  0.71980  0.99840  Biso   1.000  H
  H1101    1.0000 0.78020  0.00160  0.09230  Biso   1.000  H
  H1102    1.0000 0.78020  0.99840  0.90770  Biso   1.000  H
  H1103    1.0000 0.21980  0.00160  0.90770  Biso   1.000  H
  H1104    1.0000 0.21980  0.99840  0.09230  Biso   1.000  H
  H1105    1.0000 0.59230  0.00160  0.78020  Biso   1.000  H
  H1106    1.0000 0.40770  0.99840  0.78020  Biso   1.000  H
  H1107    1.0000 0.40770  0.00160  0.21980  Biso   1.000  H
  H1108    1.0000 0.59230  0.99840  0.21980  Biso   1.000  H
  H1109    1.0000 0.78020  0.09230  0.50160  Biso   1.000  H
  H1110    1.0000 0.78020  0.90770  0.49840  Biso   1.000  H
  H1111    1.0000 0.21980  0.90770  0.50160  Biso   1.000  H
  H1112    1.0000 0.21980  0.09230  0.49840  Biso   1.000  H
  H1113    1.0000 0.50160  0.28020  0.59230  Biso   1.000  H
  H1114    1.0000 0.49840  0.28020  0.40770  Biso   1.000  H
  H1115    1.0000 0.50160  0.71980  0.40770  Biso   1.000  H
  H1116    1.0000 0.49840  0.71980  0.59230  Biso   1.000  H
  H1117    1.0000 0.00160  0.59230  0.28020  Biso   1.000  H
  H1118    1.0000 0.99840  0.40770  0.28020  Biso   1.000  H
  H1119    1.0000 0.00160  0.40770  0.71980  Biso   1.000  H
  H1120    1.0000 0.99840  0.59230  0.71980  Biso   1.000  H
  H1121    1.0000 0.09230  0.78020  0.00160  Biso   1.000  H
  H1122    1.0000 0.90770  0.78020  0.99840  Biso   1.000  H
  H1123    1.0000 0.90770  0.21980  0.00160  Biso   1.000  H
  H1124    1.0000 0.09230  0.21980  0.99840  Biso   1.000  H
  H1125    1.0000 0.28020  0.50160  0.09230  Biso   1.000  H
  H1126    1.0000 0.28020  0.49840  0.90770  Biso   1.000  H
  H1127    1.0000 0.71980  0.50160  0.90770  Biso   1.000  H
  H1128    1.0000 0.71980  0.49840  0.09230  Biso   1.000  H
  H1129    1.0000 0.59230  0.50160  0.28020  Biso   1.000  H
  H1130    1.0000 0.40770  0.49840  0.28020  Biso   1.000  H
  H1131    1.0000 0.40770  0.50160  0.71980  Biso   1.000  H
  H1132    1.0000 0.59230  0.49840  0.71980  Biso   1.000  H
  H1133    1.0000 0.78020  0.59230  0.00160  Biso   1.000  H
  H1134    1.0000 0.78020  0.40770  0.99840  Biso   1.000  H
  H1135    1.0000 0.21980  0.40770  0.00160  Biso   1.000  H
  H1136    1.0000 0.21980  0.59230  0.99840  Biso   1.000  H
  H1137    1.0000 0.50160  0.78020  0.09230  Biso   1.000  H
  H1138    1.0000 0.49840  0.78020  0.90770  Biso   1.000  H
  H1139    1.0000 0.50160  0.21980  0.90770  Biso   1.000  H
  H1140    1.0000 0.49840  0.21980  0.09230  Biso   1.000  H
  H1141    1.0000 0.00160  0.09230  0.78020  Biso   1.000  H
  H1142    1.0000 0.99840  0.90770  0.78020  Biso   1.000  H
  H1143    1.0000 0.00160  0.90770  0.21980  Biso   1.000  H
  H1144    1.0000 0.99840  0.09230  0.21980  Biso   1.000  H
  H1145    1.0000 0.09230  0.28020  0.50160  Biso   1.000  H
  H1146    1.0000 0.90770  0.28020  0.49840  Biso   1.000  H
  H1147    1.0000 0.90770  0.71980  0.50160  Biso   1.000  H
  H1148    1.0000 0.09230  0.71980  0.49840  Biso   1.000  H
  H1149    1.0000 0.28020  0.00160  0.59230  Biso   1.000  H
  H1150    1.0000 0.28020  0.99840  0.40770  Biso   1.000  H
  H1151    1.0000 0.71980  0.00160  0.40770  Biso   1.000  H
  H1152    1.0000 0.71980  0.99840  0.59230  Biso   1.000  H
  C1369    1.0000 0.12584  0.08959  0.29221  Biso   1.000  C
  C1370    1.0000 0.87416  0.91041  0.29221  Biso   1.000  C
  C1371    1.0000 0.87416  0.08959  0.70779  Biso   1.000  C
  C1372    1.0000 0.12584  0.91041  0.70779  Biso   1.000  C
  C1373    1.0000 0.29221  0.12584  0.08959  Biso   1.000  C
  C1374    1.0000 0.29221  0.87416  0.91041  Biso   1.000  C
  C1375    1.0000 0.70779  0.87416  0.08959  Biso   1.000  C
  C1376    1.0000 0.70779  0.12584  0.91041  Biso   1.000  C
  C1377    1.0000 0.08959  0.29221  0.12584  Biso   1.000  C
  C1378    1.0000 0.91041  0.29221  0.87416  Biso   1.000  C
  C1379    1.0000 0.08959  0.70779  0.87416  Biso   1.000  C
  C1380    1.0000 0.91041  0.70779  0.12584  Biso   1.000  C
  C1381    1.0000 0.58959  0.62584  0.79221  Biso   1.000  C
  C1382    1.0000 0.41041  0.37416  0.79221  Biso   1.000  C
  C1383    1.0000 0.58959  0.37416  0.20779  Biso   1.000  C
  C1384    1.0000 0.41041  0.62584  0.20779  Biso   1.000  C
  C1385    1.0000 0.62584  0.79221  0.58959  Biso   1.000  C
  C1386    1.0000 0.37416  0.79221  0.41041  Biso   1.000  C
  C1387    1.0000 0.37416  0.20779  0.58959  Biso   1.000  C
  C1388    1.0000 0.62584  0.20779  0.41041  Biso   1.000  C
  C1389    1.0000 0.79221  0.58959  0.62584  Biso   1.000  C
  C1390    1.0000 0.79221  0.41041  0.37416  Biso   1.000  C
  C1391    1.0000 0.20779  0.58959  0.37416  Biso   1.000  C
  C1392    1.0000 0.20779  0.41041  0.62584  Biso   1.000  C
  C1393    1.0000 0.12584  0.58959  0.79221  Biso   1.000  C
  C1394    1.0000 0.87416  0.41041  0.79221  Biso   1.000  C
  C1395    1.0000 0.87416  0.58959  0.20779  Biso   1.000  C
  C1396    1.0000 0.12584  0.41041  0.20779  Biso   1.000  C
  C1397    1.0000 0.29221  0.62584  0.58959  Biso   1.000  C
  C1398    1.0000 0.29221  0.37416  0.41041  Biso   1.000  C
  C1399    1.0000 0.70779  0.37416  0.58959  Biso   1.000  C
  C1400    1.0000 0.70779  0.62584  0.41041  Biso   1.000  C
  C1401    1.0000 0.08959  0.79221  0.62584  Biso   1.000  C
  C1402    1.0000 0.91041  0.79221  0.37416  Biso   1.000  C
  C1403    1.0000 0.08959  0.20779  0.37416  Biso   1.000  C
  C1404    1.0000 0.91041  0.20779  0.62584  Biso   1.000  C
  C1405    1.0000 0.58959  0.12584  0.29221  Biso   1.000  C
  C1406    1.0000 0.41041  0.87416  0.29221  Biso   1.000  C
  C1407    1.0000 0.58959  0.87416  0.70779  Biso   1.000  C
  C1408    1.0000 0.41041  0.12584  0.70779  Biso   1.000  C
  C1409    1.0000 0.62584  0.29221  0.08959  Biso   1.000  C
  C1410    1.0000 0.37416  0.29221  0.91041  Biso   1.000  C
  C1411    1.0000 0.37416  0.70779  0.08959  Biso   1.000  C
  C1412    1.0000 0.62584  0.70779  0.91041  Biso   1.000  C
  C1413    1.0000 0.79221  0.08959  0.12584  Biso   1.000  C
  C1414    1.0000 0.79221  0.91041  0.87416  Biso   1.000  C
  C1415    1.0000 0.20779  0.08959  0.87416  Biso   1.000  C
  C1416    1.0000 0.20779  0.91041  0.12584  Biso   1.000  C
  C1417    1.0000 0.62584  0.08959  0.79221  Biso   1.000  C
  C1418    1.0000 0.37416  0.91041  0.79221  Biso   1.000  C
  C1419    1.0000 0.37416  0.08959  0.20779  Biso   1.000  C
  C1420    1.0000 0.62584  0.91041  0.20779  Biso   1.000  C
  C1421    1.0000 0.79221  0.12584  0.58959  Biso   1.000  C
  C1422    1.0000 0.79221  0.87416  0.41041  Biso   1.000  C
  C1423    1.0000 0.20779  0.87416  0.58959  Biso   1.000  C
  C1424    1.0000 0.20779  0.12584  0.41041  Biso   1.000  C
  C1425    1.0000 0.58959  0.29221  0.62584  Biso   1.000  C
  C1426    1.0000 0.41041  0.29221  0.37416  Biso   1.000  C
  C1427    1.0000 0.58959  0.70779  0.37416  Biso   1.000  C
  C1428    1.0000 0.41041  0.70779  0.62584  Biso   1.000  C
  C1429    1.0000 0.08959  0.62584  0.29221  Biso   1.000  C
  C1430    1.0000 0.91041  0.37416  0.29221  Biso   1.000  C
  C1431    1.0000 0.08959  0.37416  0.70779  Biso   1.000  C
  C1432    1.0000 0.91041  0.62584  0.70779  Biso   1.000  C
  C1433    1.0000 0.12584  0.79221  0.08959  Biso   1.000  C
  C1434    1.0000 0.87416  0.79221  0.91041  Biso   1.000  C
  C1435    1.0000 0.87416  0.20779  0.08959  Biso   1.000  C
  C1436    1.0000 0.12584  0.20779  0.91041  Biso   1.000  C
  C1437    1.0000 0.29221  0.58959  0.12584  Biso   1.000  C
  C1438    1.0000 0.29221  0.41041  0.87416  Biso   1.000  C
  C1439    1.0000 0.70779  0.58959  0.87416  Biso   1.000  C
  C1440    1.0000 0.70779  0.41041  0.12584  Biso   1.000  C
  C1441    1.0000 0.62584  0.58959  0.29221  Biso   1.000  C
  C1442    1.0000 0.37416  0.41041  0.29221  Biso   1.000  C
  C1443    1.0000 0.37416  0.58959  0.70779  Biso   1.000  C
  C1444    1.0000 0.62584  0.41041  0.70779  Biso   1.000  C
  C1445    1.0000 0.79221  0.62584  0.08959  Biso   1.000  C
  C1446    1.0000 0.79221  0.37416  0.91041  Biso   1.000  C
  C1447    1.0000 0.20779  0.37416  0.08959  Biso   1.000  C
  C1448    1.0000 0.20779  0.62584  0.91041  Biso   1.000  C
  C1449    1.0000 0.58959  0.79221  0.12584  Biso   1.000  C
  C1450    1.0000 0.41041  0.79221  0.87416  Biso   1.000  C
  C1451    1.0000 0.58959  0.20779  0.87416  Biso   1.000  C
  C1452    1.0000 0.41041  0.20779  0.12584  Biso   1.000  C
  C1453    1.0000 0.08959  0.12584  0.79221  Biso   1.000  C
  C1454    1.0000 0.91041  0.87416  0.79221  Biso   1.000  C
  C1455    1.0000 0.08959  0.87416  0.20779  Biso   1.000  C
  C1456    1.0000 0.91041  0.12584  0.20779  Biso   1.000  C
  C1457    1.0000 0.12584  0.29221  0.58959  Biso   1.000  C
  C1458    1.0000 0.87416  0.29221  0.41041  Biso   1.000  C
  C1459    1.0000 0.87416  0.70779  0.58959  Biso   1.000  C
  C1460    1.0000 0.12584  0.70779  0.41041  Biso   1.000  C
  C1461    1.0000 0.29221  0.08959  0.62584  Biso   1.000  C
  C1462    1.0000 0.29221  0.91041  0.37416  Biso   1.000  C
  C1463    1.0000 0.70779  0.08959  0.37416  Biso   1.000  C
  C1464    1.0000 0.70779  0.91041  0.62584  Biso   1.000  C
  H1153    1.0000 0.13850  0.11330  0.27910  Biso   1.000  H
  H1154    1.0000 0.86150  0.88670  0.27910  Biso   1.000  H
  H1155    1.0000 0.86150  0.11330  0.72090  Biso   1.000  H
  H1156    1.0000 0.13850  0.88670  0.72090  Biso   1.000  H
  H1157    1.0000 0.27910  0.13850  0.11330  Biso   1.000  H
  H1158    1.0000 0.27910  0.86150  0.88670  Biso   1.000  H
  H1159    1.0000 0.72090  0.86150  0.11330  Biso   1.000  H
  H1160    1.0000 0.72090  0.13850  0.88670  Biso   1.000  H
  H1161    1.0000 0.11330  0.27910  0.13850  Biso   1.000  H
  H1162    1.0000 0.88670  0.27910  0.86150  Biso   1.000  H
  H1163    1.0000 0.11330  0.72090  0.86150  Biso   1.000  H
  H1164    1.0000 0.88670  0.72090  0.13850  Biso   1.000  H
  H1165    1.0000 0.61330  0.63850  0.77910  Biso   1.000  H
  H1166    1.0000 0.38670  0.36150  0.77910  Biso   1.000  H
  H1167    1.0000 0.61330  0.36150  0.22090  Biso   1.000  H
  H1168    1.0000 0.38670  0.63850  0.22090  Biso   1.000  H
  H1169    1.0000 0.63850  0.77910  0.61330  Biso   1.000  H
  H1170    1.0000 0.36150  0.77910  0.38670  Biso   1.000  H
  H1171    1.0000 0.36150  0.22090  0.61330  Biso   1.000  H
  H1172    1.0000 0.63850  0.22090  0.38670  Biso   1.000  H
  H1173    1.0000 0.77910  0.61330  0.63850  Biso   1.000  H
  H1174    1.0000 0.77910  0.38670  0.36150  Biso   1.000  H
  H1175    1.0000 0.22090  0.61330  0.36150  Biso   1.000  H
  H1176    1.0000 0.22090  0.38670  0.63850  Biso   1.000  H
  H1177    1.0000 0.13850  0.61330  0.77910  Biso   1.000  H
  H1178    1.0000 0.86150  0.38670  0.77910  Biso   1.000  H
  H1179    1.0000 0.86150  0.61330  0.22090  Biso   1.000  H
  H1180    1.0000 0.13850  0.38670  0.22090  Biso   1.000  H
  H1181    1.0000 0.27910  0.63850  0.61330  Biso   1.000  H
  H1182    1.0000 0.27910  0.36150  0.38670  Biso   1.000  H
  H1183    1.0000 0.72090  0.36150  0.61330  Biso   1.000  H
  H1184    1.0000 0.72090  0.63850  0.38670  Biso   1.000  H
  H1185    1.0000 0.11330  0.77910  0.63850  Biso   1.000  H
  H1186    1.0000 0.88670  0.77910  0.36150  Biso   1.000  H
  H1187    1.0000 0.11330  0.22090  0.36150  Biso   1.000  H
  H1188    1.0000 0.88670  0.22090  0.63850  Biso   1.000  H
  H1189    1.0000 0.61330  0.13850  0.27910  Biso   1.000  H
  H1190    1.0000 0.38670  0.86150  0.27910  Biso   1.000  H
  H1191    1.0000 0.61330  0.86150  0.72090  Biso   1.000  H
  H1192    1.0000 0.38670  0.13850  0.72090  Biso   1.000  H
  H1193    1.0000 0.63850  0.27910  0.11330  Biso   1.000  H
  H1194    1.0000 0.36150  0.27910  0.88670  Biso   1.000  H
  H1195    1.0000 0.36150  0.72090  0.11330  Biso   1.000  H
  H1196    1.0000 0.63850  0.72090  0.88670  Biso   1.000  H
  H1197    1.0000 0.77910  0.11330  0.13850  Biso   1.000  H
  H1198    1.0000 0.77910  0.88670  0.86150  Biso   1.000  H
  H1199    1.0000 0.22090  0.11330  0.86150  Biso   1.000  H
  H1200    1.0000 0.22090  0.88670  0.13850  Biso   1.000  H
  H1201    1.0000 0.63850  0.11330  0.77910  Biso   1.000  H
  H1202    1.0000 0.36150  0.88670  0.77910  Biso   1.000  H
  H1203    1.0000 0.36150  0.11330  0.22090  Biso   1.000  H
  H1204    1.0000 0.63850  0.88670  0.22090  Biso   1.000  H
  H1205    1.0000 0.77910  0.13850  0.61330  Biso   1.000  H
  H1206    1.0000 0.77910  0.86150  0.38670  Biso   1.000  H
  H1207    1.0000 0.22090  0.86150  0.61330  Biso   1.000  H
  H1208    1.0000 0.22090  0.13850  0.38670  Biso   1.000  H
  H1209    1.0000 0.61330  0.27910  0.63850  Biso   1.000  H
  H1210    1.0000 0.38670  0.27910  0.36150  Biso   1.000  H
  H1211    1.0000 0.61330  0.72090  0.36150  Biso   1.000  H
  H1212    1.0000 0.38670  0.72090  0.63850  Biso   1.000  H
  H1213    1.0000 0.11330  0.63850  0.27910  Biso   1.000  H
  H1214    1.0000 0.88670  0.36150  0.27910  Biso   1.000  H
  H1215    1.0000 0.11330  0.36150  0.72090  Biso   1.000  H
  H1216    1.0000 0.88670  0.63850  0.72090  Biso   1.000  H
  H1217    1.0000 0.13850  0.77910  0.11330  Biso   1.000  H
  H1218    1.0000 0.86150  0.77910  0.88670  Biso   1.000  H
  H1219    1.0000 0.86150  0.22090  0.11330  Biso   1.000  H
  H1220    1.0000 0.13850  0.22090  0.88670  Biso   1.000  H
  H1221    1.0000 0.27910  0.61330  0.13850  Biso   1.000  H
  H1222    1.0000 0.27910  0.38670  0.86150  Biso   1.000  H
  H1223    1.0000 0.72090  0.61330  0.86150  Biso   1.000  H
  H1224    1.0000 0.72090  0.38670  0.13850  Biso   1.000  H
  H1225    1.0000 0.63850  0.61330  0.27910  Biso   1.000  H
  H1226    1.0000 0.36150  0.38670  0.27910  Biso   1.000  H
  H1227    1.0000 0.36150  0.61330  0.72090  Biso   1.000  H
  H1228    1.0000 0.63850  0.38670  0.72090  Biso   1.000  H
  H1229    1.0000 0.77910  0.63850  0.11330  Biso   1.000  H
  H1230    1.0000 0.77910  0.36150  0.88670  Biso   1.000  H
  H1231    1.0000 0.22090  0.36150  0.11330  Biso   1.000  H
  H1232    1.0000 0.22090  0.63850  0.88670  Biso   1.000  H
  H1233    1.0000 0.61330  0.77910  0.13850  Biso   1.000  H
  H1234    1.0000 0.38670  0.77910  0.86150  Biso   1.000  H
  H1235    1.0000 0.61330  0.22090  0.86150  Biso   1.000  H
  H1236    1.0000 0.38670  0.22090  0.13850  Biso   1.000  H
  H1237    1.0000 0.11330  0.13850  0.77910  Biso   1.000  H
  H1238    1.0000 0.88670  0.86150  0.77910  Biso   1.000  H
  H1239    1.0000 0.11330  0.86150  0.22090  Biso   1.000  H
  H1240    1.0000 0.88670  0.13850  0.22090  Biso   1.000  H
  H1241    1.0000 0.13850  0.27910  0.61330  Biso   1.000  H
  H1242    1.0000 0.86150  0.27910  0.38670  Biso   1.000  H
  H1243    1.0000 0.86150  0.72090  0.61330  Biso   1.000  H
  H1244    1.0000 0.13850  0.72090  0.38670  Biso   1.000  H
  H1245    1.0000 0.27910  0.11330  0.63850  Biso   1.000  H
  H1246    1.0000 0.27910  0.88670  0.36150  Biso   1.000  H
  H1247    1.0000 0.72090  0.11330  0.36150  Biso   1.000  H
  H1248    1.0000 0.72090  0.88670  0.63850  Biso   1.000  H
  H1249    1.0000 0.13010  0.06530  0.27520  Biso   1.000  H
  H1250    1.0000 0.86990  0.93470  0.27520  Biso   1.000  H
  H1251    1.0000 0.86990  0.06530  0.72480  Biso   1.000  H
  H1252    1.0000 0.13010  0.93470  0.72480  Biso   1.000  H
  H1253    1.0000 0.27520  0.13010  0.06530  Biso   1.000  H
  H1254    1.0000 0.27520  0.86990  0.93470  Biso   1.000  H
  H1255    1.0000 0.72480  0.86990  0.06530  Biso   1.000  H
  H1256    1.0000 0.72480  0.13010  0.93470  Biso   1.000  H
  H1257    1.0000 0.06530  0.27520  0.13010  Biso   1.000  H
  H1258    1.0000 0.93470  0.27520  0.86990  Biso   1.000  H
  H1259    1.0000 0.06530  0.72480  0.86990  Biso   1.000  H
  H1260    1.0000 0.93470  0.72480  0.13010  Biso   1.000  H
  H1261    1.0000 0.56530  0.63010  0.77520  Biso   1.000  H
  H1262    1.0000 0.43470  0.36990  0.77520  Biso   1.000  H
  H1263    1.0000 0.56530  0.36990  0.22480  Biso   1.000  H
  H1264    1.0000 0.43470  0.63010  0.22480  Biso   1.000  H
  H1265    1.0000 0.63010  0.77520  0.56530  Biso   1.000  H
  H1266    1.0000 0.36990  0.77520  0.43470  Biso   1.000  H
  H1267    1.0000 0.36990  0.22480  0.56530  Biso   1.000  H
  H1268    1.0000 0.63010  0.22480  0.43470  Biso   1.000  H
  H1269    1.0000 0.77520  0.56530  0.63010  Biso   1.000  H
  H1270    1.0000 0.77520  0.43470  0.36990  Biso   1.000  H
  H1271    1.0000 0.22480  0.56530  0.36990  Biso   1.000  H
  H1272    1.0000 0.22480  0.43470  0.63010  Biso   1.000  H
  H1273    1.0000 0.13010  0.56530  0.77520  Biso   1.000  H
  H1274    1.0000 0.86990  0.43470  0.77520  Biso   1.000  H
  H1275    1.0000 0.86990  0.56530  0.22480  Biso   1.000  H
  H1276    1.0000 0.13010  0.43470  0.22480  Biso   1.000  H
  H1277    1.0000 0.27520  0.63010  0.56530  Biso   1.000  H
  H1278    1.0000 0.27520  0.36990  0.43470  Biso   1.000  H
  H1279    1.0000 0.72480  0.36990  0.56530  Biso   1.000  H
  H1280    1.0000 0.72480  0.63010  0.43470  Biso   1.000  H
  H1281    1.0000 0.06530  0.77520  0.63010  Biso   1.000  H
  H1282    1.0000 0.93470  0.77520  0.36990  Biso   1.000  H
  H1283    1.0000 0.06530  0.22480  0.36990  Biso   1.000  H
  H1284    1.0000 0.93470  0.22480  0.63010  Biso   1.000  H
  H1285    1.0000 0.56530  0.13010  0.27520  Biso   1.000  H
  H1286    1.0000 0.43470  0.86990  0.27520  Biso   1.000  H
  H1287    1.0000 0.56530  0.86990  0.72480  Biso   1.000  H
  H1288    1.0000 0.43470  0.13010  0.72480  Biso   1.000  H
  H1289    1.0000 0.63010  0.27520  0.06530  Biso   1.000  H
  H1290    1.0000 0.36990  0.27520  0.93470  Biso   1.000  H
  H1291    1.0000 0.36990  0.72480  0.06530  Biso   1.000  H
  H1292    1.0000 0.63010  0.72480  0.93470  Biso   1.000  H
  H1293    1.0000 0.77520  0.06530  0.13010  Biso   1.000  H
  H1294    1.0000 0.77520  0.93470  0.86990  Biso   1.000  H
  H1295    1.0000 0.22480  0.06530  0.86990  Biso   1.000  H
  H1296    1.0000 0.22480  0.93470  0.13010  Biso   1.000  H
  H1297    1.0000 0.63010  0.06530  0.77520  Biso   1.000  H
  H1298    1.0000 0.36990  0.93470  0.77520  Biso   1.000  H
  H1299    1.0000 0.36990  0.06530  0.22480  Biso   1.000  H
  H1300    1.0000 0.63010  0.93470  0.22480  Biso   1.000  H
  H1301    1.0000 0.77520  0.13010  0.56530  Biso   1.000  H
  H1302    1.0000 0.77520  0.86990  0.43470  Biso   1.000  H
  H1303    1.0000 0.22480  0.86990  0.56530  Biso   1.000  H
  H1304    1.0000 0.22480  0.13010  0.43470  Biso   1.000  H
  H1305    1.0000 0.56530  0.27520  0.63010  Biso   1.000  H
  H1306    1.0000 0.43470  0.27520  0.36990  Biso   1.000  H
  H1307    1.0000 0.56530  0.72480  0.36990  Biso   1.000  H
  H1308    1.0000 0.43470  0.72480  0.63010  Biso   1.000  H
  H1309    1.0000 0.06530  0.63010  0.27520  Biso   1.000  H
  H1310    1.0000 0.93470  0.36990  0.27520  Biso   1.000  H
  H1311    1.0000 0.06530  0.36990  0.72480  Biso   1.000  H
  H1312    1.0000 0.93470  0.63010  0.72480  Biso   1.000  H
  H1313    1.0000 0.13010  0.77520  0.06530  Biso   1.000  H
  H1314    1.0000 0.86990  0.77520  0.93470  Biso   1.000  H
  H1315    1.0000 0.86990  0.22480  0.06530  Biso   1.000  H
  H1316    1.0000 0.13010  0.22480  0.93470  Biso   1.000  H
  H1317    1.0000 0.27520  0.56530  0.13010  Biso   1.000  H
  H1318    1.0000 0.27520  0.43470  0.86990  Biso   1.000  H
  H1319    1.0000 0.72480  0.56530  0.86990  Biso   1.000  H
  H1320    1.0000 0.72480  0.43470  0.13010  Biso   1.000  H
  H1321    1.0000 0.63010  0.56530  0.27520  Biso   1.000  H
  H1322    1.0000 0.36990  0.43470  0.27520  Biso   1.000  H
  H1323    1.0000 0.36990  0.56530  0.72480  Biso   1.000  H
  H1324    1.0000 0.63010  0.43470  0.72480  Biso   1.000  H
  H1325    1.0000 0.77520  0.63010  0.06530  Biso   1.000  H
  H1326    1.0000 0.77520  0.36990  0.93470  Biso   1.000  H
  H1327    1.0000 0.22480  0.36990  0.06530  Biso   1.000  H
  H1328    1.0000 0.22480  0.63010  0.93470  Biso   1.000  H
  H1329    1.0000 0.56530  0.77520  0.13010  Biso   1.000  H
  H1330    1.0000 0.43470  0.77520  0.86990  Biso   1.000  H
  H1331    1.0000 0.56530  0.22480  0.86990  Biso   1.000  H
  H1332    1.0000 0.43470  0.22480  0.13010  Biso   1.000  H
  H1333    1.0000 0.06530  0.13010  0.77520  Biso   1.000  H
  H1334    1.0000 0.93470  0.86990  0.77520  Biso   1.000  H
  H1335    1.0000 0.06530  0.86990  0.22480  Biso   1.000  H
  H1336    1.0000 0.93470  0.13010  0.22480  Biso   1.000  H
  H1337    1.0000 0.13010  0.27520  0.56530  Biso   1.000  H
  H1338    1.0000 0.86990  0.27520  0.43470  Biso   1.000  H
  H1339    1.0000 0.86990  0.72480  0.56530  Biso   1.000  H
  H1340    1.0000 0.13010  0.72480  0.43470  Biso   1.000  H
  H1341    1.0000 0.27520  0.06530  0.63010  Biso   1.000  H
  H1342    1.0000 0.27520  0.93470  0.36990  Biso   1.000  H
  H1343    1.0000 0.72480  0.06530  0.36990  Biso   1.000  H
  H1344    1.0000 0.72480  0.93470  0.63010  Biso   1.000  H
  H1345    1.0000 0.13830  0.08520  0.31910  Biso   1.000  H
  H1346    1.0000 0.86170  0.91480  0.31910  Biso   1.000  H
  H1347    1.0000 0.86170  0.08520  0.68090  Biso   1.000  H
  H1348    1.0000 0.13830  0.91480  0.68090  Biso   1.000  H
  H1349    1.0000 0.31910  0.13830  0.08520  Biso   1.000  H
  H1350    1.0000 0.31910  0.86170  0.91480  Biso   1.000  H
  H1351    1.0000 0.68090  0.86170  0.08520  Biso   1.000  H
  H1352    1.0000 0.68090  0.13830  0.91480  Biso   1.000  H
  H1353    1.0000 0.08520  0.31910  0.13830  Biso   1.000  H
  H1354    1.0000 0.91480  0.31910  0.86170  Biso   1.000  H
  H1355    1.0000 0.08520  0.68090  0.86170  Biso   1.000  H
  H1356    1.0000 0.91480  0.68090  0.13830  Biso   1.000  H
  H1357    1.0000 0.58520  0.63830  0.81910  Biso   1.000  H
  H1358    1.0000 0.41480  0.36170  0.81910  Biso   1.000  H
  H1359    1.0000 0.58520  0.36170  0.18090  Biso   1.000  H
  H1360    1.0000 0.41480  0.63830  0.18090  Biso   1.000  H
  H1361    1.0000 0.63830  0.81910  0.58520  Biso   1.000  H
  H1362    1.0000 0.36170  0.81910  0.41480  Biso   1.000  H
  H1363    1.0000 0.36170  0.18090  0.58520  Biso   1.000  H
  H1364    1.0000 0.63830  0.18090  0.41480  Biso   1.000  H
  H1365    1.0000 0.81910  0.58520  0.63830  Biso   1.000  H
  H1366    1.0000 0.81910  0.41480  0.36170  Biso   1.000  H
  H1367    1.0000 0.18090  0.58520  0.36170  Biso   1.000  H
  H1368    1.0000 0.18090  0.41480  0.63830  Biso   1.000  H
  H1369    1.0000 0.13830  0.58520  0.81910  Biso   1.000  H
  H1370    1.0000 0.86170  0.41480  0.81910  Biso   1.000  H
  H1371    1.0000 0.86170  0.58520  0.18090  Biso   1.000  H
  H1372    1.0000 0.13830  0.41480  0.18090  Biso   1.000  H
  H1373    1.0000 0.31910  0.63830  0.58520  Biso   1.000  H
  H1374    1.0000 0.31910  0.36170  0.41480  Biso   1.000  H
  H1375    1.0000 0.68090  0.36170  0.58520  Biso   1.000  H
  H1376    1.0000 0.68090  0.63830  0.41480  Biso   1.000  H
  H1377    1.0000 0.08520  0.81910  0.63830  Biso   1.000  H
  H1378    1.0000 0.91480  0.81910  0.36170  Biso   1.000  H
  H1379    1.0000 0.08520  0.18090  0.36170  Biso   1.000  H
  H1380    1.0000 0.91480  0.18090  0.63830  Biso   1.000  H
  H1381    1.0000 0.58520  0.13830  0.31910  Biso   1.000  H
  H1382    1.0000 0.41480  0.86170  0.31910  Biso   1.000  H
  H1383    1.0000 0.58520  0.86170  0.68090  Biso   1.000  H
  H1384    1.0000 0.41480  0.13830  0.68090  Biso   1.000  H
  H1385    1.0000 0.63830  0.31910  0.08520  Biso   1.000  H
  H1386    1.0000 0.36170  0.31910  0.91480  Biso   1.000  H
  H1387    1.0000 0.36170  0.68090  0.08520  Biso   1.000  H
  H1388    1.0000 0.63830  0.68090  0.91480  Biso   1.000  H
  H1389    1.0000 0.81910  0.08520  0.13830  Biso   1.000  H
  H1390    1.0000 0.81910  0.91480  0.86170  Biso   1.000  H
  H1391    1.0000 0.18090  0.08520  0.86170  Biso   1.000  H
  H1392    1.0000 0.18090  0.91480  0.13830  Biso   1.000  H
  H1393    1.0000 0.63830  0.08520  0.81910  Biso   1.000  H
  H1394    1.0000 0.36170  0.91480  0.81910  Biso   1.000  H
  H1395    1.0000 0.36170  0.08520  0.18090  Biso   1.000  H
  H1396    1.0000 0.63830  0.91480  0.18090  Biso   1.000  H
  H1397    1.0000 0.81910  0.13830  0.58520  Biso   1.000  H
  H1398    1.0000 0.81910  0.86170  0.41480  Biso   1.000  H
  H1399    1.0000 0.18090  0.86170  0.58520  Biso   1.000  H
  H1400    1.0000 0.18090  0.13830  0.41480  Biso   1.000  H
  H1401    1.0000 0.58520  0.31910  0.63830  Biso   1.000  H
  H1402    1.0000 0.41480  0.31910  0.36170  Biso   1.000  H
  H1403    1.0000 0.58520  0.68090  0.36170  Biso   1.000  H
  H1404    1.0000 0.41480  0.68090  0.63830  Biso   1.000  H
  H1405    1.0000 0.08520  0.63830  0.31910  Biso   1.000  H
  H1406    1.0000 0.91480  0.36170  0.31910  Biso   1.000  H
  H1407    1.0000 0.08520  0.36170  0.68090  Biso   1.000  H
  H1408    1.0000 0.91480  0.63830  0.68090  Biso   1.000  H
  H1409    1.0000 0.13830  0.81910  0.08520  Biso   1.000  H
  H1410    1.0000 0.86170  0.81910  0.91480  Biso   1.000  H
  H1411    1.0000 0.86170  0.18090  0.08520  Biso   1.000  H
  H1412    1.0000 0.13830  0.18090  0.91480  Biso   1.000  H
  H1413    1.0000 0.31910  0.58520  0.13830  Biso   1.000  H
  H1414    1.0000 0.31910  0.41480  0.86170  Biso   1.000  H
  H1415    1.0000 0.68090  0.58520  0.86170  Biso   1.000  H
  H1416    1.0000 0.68090  0.41480  0.13830  Biso   1.000  H
  H1417    1.0000 0.63830  0.58520  0.31910  Biso   1.000  H
  H1418    1.0000 0.36170  0.41480  0.31910  Biso   1.000  H
  H1419    1.0000 0.36170  0.58520  0.68090  Biso   1.000  H
  H1420    1.0000 0.63830  0.41480  0.68090  Biso   1.000  H
  H1421    1.0000 0.81910  0.63830  0.08520  Biso   1.000  H
  H1422    1.0000 0.81910  0.36170  0.91480  Biso   1.000  H
  H1423    1.0000 0.18090  0.36170  0.08520  Biso   1.000  H
  H1424    1.0000 0.18090  0.63830  0.91480  Biso   1.000  H
  H1425    1.0000 0.58520  0.81910  0.13830  Biso   1.000  H
  H1426    1.0000 0.41480  0.81910  0.86170  Biso   1.000  H
  H1427    1.0000 0.58520  0.18090  0.86170  Biso   1.000  H
  H1428    1.0000 0.41480  0.18090  0.13830  Biso   1.000  H
  H1429    1.0000 0.08520  0.13830  0.81910  Biso   1.000  H
  H1430    1.0000 0.91480  0.86170  0.81910  Biso   1.000  H
  H1431    1.0000 0.08520  0.86170  0.18090  Biso   1.000  H
  H1432    1.0000 0.91480  0.13830  0.18090  Biso   1.000  H
  H1433    1.0000 0.13830  0.31910  0.58520  Biso   1.000  H
  H1434    1.0000 0.86170  0.31910  0.41480  Biso   1.000  H
  H1435    1.0000 0.86170  0.68090  0.58520  Biso   1.000  H
  H1436    1.0000 0.13830  0.68090  0.41480  Biso   1.000  H
  H1437    1.0000 0.31910  0.08520  0.63830  Biso   1.000  H
  H1438    1.0000 0.31910  0.91480  0.36170  Biso   1.000  H
  H1439    1.0000 0.68090  0.08520  0.36170  Biso   1.000  H
  H1440    1.0000 0.68090  0.91480  0.63830  Biso   1.000  H
  B1       1.0000 0.00000  0.00000  0.50000  Biso   1.000  B
  B2       1.0000 0.50000  0.00000  0.00000  Biso   1.000  B
  B3       1.0000 0.00000  0.50000  0.00000  Biso   1.000  B
  B4       1.0000 0.50000  0.50000  0.00000  Biso   1.000  B
  B5       1.0000 0.50000  0.00000  0.50000  Biso   1.000  B
  B6       1.0000 0.00000  0.50000  0.50000  Biso   1.000  B
  B7       1.0000 0.50000  0.50000  0.50000  Biso   1.000  B
  B8       1.0000 0.00000  0.00000  0.00000  Biso   1.000  B
  F1       1.0000 0.02335  0.97665  0.52335  Biso   1.000  F
  F2       1.0000 0.97665  0.02335  0.52335  Biso   1.000  F
  F3       1.0000 0.97665  0.97665  0.47665  Biso   1.000  F
  F4       1.0000 0.02335  0.02335  0.47665  Biso   1.000  F
  F5       1.0000 0.52335  0.02335  0.97665  Biso   1.000  F
  F6       1.0000 0.52335  0.97665  0.02335  Biso   1.000  F
  F7       1.0000 0.47665  0.97665  0.97665  Biso   1.000  F
  F8       1.0000 0.47665  0.02335  0.02335  Biso   1.000  F
  F9       1.0000 0.97665  0.52335  0.02335  Biso   1.000  F
  F10      1.0000 0.02335  0.52335  0.97665  Biso   1.000  F
  F11      1.0000 0.97665  0.47665  0.97665  Biso   1.000  F
  F12      1.0000 0.02335  0.47665  0.02335  Biso   1.000  F
  F13      1.0000 0.47665  0.52335  0.02335  Biso   1.000  F
  F14      1.0000 0.52335  0.47665  0.02335  Biso   1.000  F
  F15      1.0000 0.47665  0.47665  0.97665  Biso   1.000  F
  F16      1.0000 0.52335  0.52335  0.97665  Biso   1.000  F
  F17      1.0000 0.52335  0.02335  0.47665  Biso   1.000  F
  F18      1.0000 0.47665  0.02335  0.52335  Biso   1.000  F
  F19      1.0000 0.47665  0.97665  0.47665  Biso   1.000  F
  F20      1.0000 0.52335  0.97665  0.52335  Biso   1.000  F
  F21      1.0000 0.02335  0.47665  0.52335  Biso   1.000  F
  F22      1.0000 0.02335  0.52335  0.47665  Biso   1.000  F
  F23      1.0000 0.97665  0.47665  0.47665  Biso   1.000  F
  F24      1.0000 0.97665  0.52335  0.52335  Biso   1.000  F
  F25      1.0000 0.52335  0.52335  0.47665  Biso   1.000  F
  F26      1.0000 0.52335  0.47665  0.52335  Biso   1.000  F
  F27      1.0000 0.47665  0.47665  0.47665  Biso   1.000  F
  F28      1.0000 0.47665  0.52335  0.52335  Biso   1.000  F
  F29      1.0000 0.02335  0.97665  0.02335  Biso   1.000  F
  F30      1.0000 0.02335  0.02335  0.97665  Biso   1.000  F
  F31      1.0000 0.97665  0.97665  0.97665  Biso   1.000  F
  F32      1.0000 0.97665  0.02335  0.02335  Biso   1.000  F
  B9       1.0000 0.25000  0.83990  0.75000  Biso   1.000  B
  B10      1.0000 0.75000  0.16010  0.75000  Biso   1.000  B
  B11      1.0000 0.75000  0.83990  0.25000  Biso   1.000  B
  B12      1.0000 0.25000  0.16010  0.25000  Biso   1.000  B
  B13      1.0000 0.75000  0.25000  0.83990  Biso   1.000  B
  B14      1.0000 0.75000  0.75000  0.16010  Biso   1.000  B
  B15      1.0000 0.25000  0.75000  0.83990  Biso   1.000  B
  B16      1.0000 0.25000  0.25000  0.16010  Biso   1.000  B
  B17      1.0000 0.83990  0.75000  0.25000  Biso   1.000  B
  B18      1.0000 0.16010  0.75000  0.75000  Biso   1.000  B
  B19      1.0000 0.83990  0.25000  0.75000  Biso   1.000  B
  B20      1.0000 0.16010  0.25000  0.25000  Biso   1.000  B
  B21      1.0000 0.33990  0.75000  0.25000  Biso   1.000  B
  B22      1.0000 0.66010  0.25000  0.25000  Biso   1.000  B
  B23      1.0000 0.33990  0.25000  0.75000  Biso   1.000  B
  B24      1.0000 0.66010  0.75000  0.75000  Biso   1.000  B
  B25      1.0000 0.75000  0.25000  0.33990  Biso   1.000  B
  B26      1.0000 0.25000  0.25000  0.66010  Biso   1.000  B
  B27      1.0000 0.25000  0.75000  0.33990  Biso   1.000  B
  B28      1.0000 0.75000  0.75000  0.66010  Biso   1.000  B
  B29      1.0000 0.25000  0.33990  0.75000  Biso   1.000  B
  B30      1.0000 0.25000  0.66010  0.25000  Biso   1.000  B
  B31      1.0000 0.75000  0.33990  0.25000  Biso   1.000  B
  B32      1.0000 0.75000  0.66010  0.75000  Biso   1.000  B
  B33      1.0000 0.25000  0.33990  0.25000  Biso   1.000  B
  B34      1.0000 0.75000  0.66010  0.25000  Biso   1.000  B
  B35      1.0000 0.75000  0.33990  0.75000  Biso   1.000  B
  B36      1.0000 0.25000  0.66010  0.75000  Biso   1.000  B
  B37      1.0000 0.75000  0.75000  0.33990  Biso   1.000  B
  B38      1.0000 0.75000  0.25000  0.66010  Biso   1.000  B
  B39      1.0000 0.25000  0.25000  0.33990  Biso   1.000  B
  B40      1.0000 0.25000  0.75000  0.66010  Biso   1.000  B
  B41      1.0000 0.75000  0.75000  0.83990  Biso   1.000  B
  B42      1.0000 0.25000  0.75000  0.16010  Biso   1.000  B
  B43      1.0000 0.25000  0.25000  0.83990  Biso   1.000  B
  B44      1.0000 0.75000  0.25000  0.16010  Biso   1.000  B
  B45      1.0000 0.25000  0.83990  0.25000  Biso   1.000  B
  B46      1.0000 0.25000  0.16010  0.75000  Biso   1.000  B
  B47      1.0000 0.75000  0.83990  0.75000  Biso   1.000  B
  B48      1.0000 0.75000  0.16010  0.25000  Biso   1.000  B
  B49      1.0000 0.33990  0.75000  0.75000  Biso   1.000  B
  B50      1.0000 0.66010  0.75000  0.25000  Biso   1.000  B
  B51      1.0000 0.33990  0.25000  0.25000  Biso   1.000  B
  B52      1.0000 0.66010  0.25000  0.75000  Biso   1.000  B
  B53      1.0000 0.83990  0.75000  0.75000  Biso   1.000  B
  B54      1.0000 0.16010  0.25000  0.75000  Biso   1.000  B
  B55      1.0000 0.83990  0.25000  0.25000  Biso   1.000  B
  B56      1.0000 0.16010  0.75000  0.25000  Biso   1.000  B
  F33      1.0000 0.27570  0.82960  0.77820  Biso   1.000  F
  F34      1.0000 0.72430  0.17040  0.77820  Biso   1.000  F
  F35      1.0000 0.72430  0.82960  0.22180  Biso   1.000  F
  F36      1.0000 0.27570  0.17040  0.22180  Biso   1.000  F
  F37      1.0000 0.77820  0.27570  0.82960  Biso   1.000  F
  F38      1.0000 0.77820  0.72430  0.17040  Biso   1.000  F
  F39      1.0000 0.22180  0.72430  0.82960  Biso   1.000  F
  F40      1.0000 0.22180  0.27570  0.17040  Biso   1.000  F
  F41      1.0000 0.82960  0.77820  0.27570  Biso   1.000  F
  F42      1.0000 0.17040  0.77820  0.72430  Biso   1.000  F
  F43      1.0000 0.82960  0.22180  0.72430  Biso   1.000  F
  F44      1.0000 0.17040  0.22180  0.27570  Biso   1.000  F
  F45      1.0000 0.32960  0.77570  0.27820  Biso   1.000  F
  F46      1.0000 0.67040  0.22430  0.27820  Biso   1.000  F
  F47      1.0000 0.32960  0.22430  0.72180  Biso   1.000  F
  F48      1.0000 0.67040  0.77570  0.72180  Biso   1.000  F
  F49      1.0000 0.77570  0.27820  0.32960  Biso   1.000  F
  F50      1.0000 0.22430  0.27820  0.67040  Biso   1.000  F
  F51      1.0000 0.22430  0.72180  0.32960  Biso   1.000  F
  F52      1.0000 0.77570  0.72180  0.67040  Biso   1.000  F
  F53      1.0000 0.27820  0.32960  0.77570  Biso   1.000  F
  F54      1.0000 0.27820  0.67040  0.22430  Biso   1.000  F
  F55      1.0000 0.72180  0.32960  0.22430  Biso   1.000  F
  F56      1.0000 0.72180  0.67040  0.77570  Biso   1.000  F
  F57      1.0000 0.27570  0.32960  0.27820  Biso   1.000  F
  F58      1.0000 0.72430  0.67040  0.27820  Biso   1.000  F
  F59      1.0000 0.72430  0.32960  0.72180  Biso   1.000  F
  F60      1.0000 0.27570  0.67040  0.72180  Biso   1.000  F
  F61      1.0000 0.77820  0.77570  0.32960  Biso   1.000  F
  F62      1.0000 0.77820  0.22430  0.67040  Biso   1.000  F
  F63      1.0000 0.22180  0.22430  0.32960  Biso   1.000  F
  F64      1.0000 0.22180  0.77570  0.67040  Biso   1.000  F
  F65      1.0000 0.82960  0.27820  0.77570  Biso   1.000  F
  F66      1.0000 0.17040  0.27820  0.22430  Biso   1.000  F
  F67      1.0000 0.82960  0.72180  0.22430  Biso   1.000  F
  F68      1.0000 0.17040  0.72180  0.77570  Biso   1.000  F
  F69      1.0000 0.32960  0.27570  0.77820  Biso   1.000  F
  F70      1.0000 0.67040  0.72430  0.77820  Biso   1.000  F
  F71      1.0000 0.32960  0.72430  0.22180  Biso   1.000  F
  F72      1.0000 0.67040  0.27570  0.22180  Biso   1.000  F
  F73      1.0000 0.77570  0.77820  0.82960  Biso   1.000  F
  F74      1.0000 0.22430  0.77820  0.17040  Biso   1.000  F
  F75      1.0000 0.22430  0.22180  0.82960  Biso   1.000  F
  F76      1.0000 0.77570  0.22180  0.17040  Biso   1.000  F
  F77      1.0000 0.27820  0.82960  0.27570  Biso   1.000  F
  F78      1.0000 0.27820  0.17040  0.72430  Biso   1.000  F
  F79      1.0000 0.72180  0.82960  0.72430  Biso   1.000  F
  F80      1.0000 0.72180  0.17040  0.27570  Biso   1.000  F
  F81      1.0000 0.77570  0.82960  0.27820  Biso   1.000  F
  F82      1.0000 0.22430  0.17040  0.27820  Biso   1.000  F
  F83      1.0000 0.22430  0.82960  0.72180  Biso   1.000  F
  F84      1.0000 0.77570  0.17040  0.72180  Biso   1.000  F
  F85      1.0000 0.27820  0.27570  0.32960  Biso   1.000  F
  F86      1.0000 0.27820  0.72430  0.67040  Biso   1.000  F
  F87      1.0000 0.72180  0.72430  0.32960  Biso   1.000  F
  F88      1.0000 0.72180  0.27570  0.67040  Biso   1.000  F
  F89      1.0000 0.32960  0.77820  0.77570  Biso   1.000  F
  F90      1.0000 0.67040  0.77820  0.22430  Biso   1.000  F
  F91      1.0000 0.32960  0.22180  0.22430  Biso   1.000  F
  F92      1.0000 0.67040  0.22180  0.77570  Biso   1.000  F
  F93      1.0000 0.82960  0.77570  0.77820  Biso   1.000  F
  F94      1.0000 0.17040  0.22430  0.77820  Biso   1.000  F
  F95      1.0000 0.82960  0.22430  0.22180  Biso   1.000  F
  F96      1.0000 0.17040  0.77570  0.22180  Biso   1.000  F
  F97      1.0000 0.27570  0.27820  0.82960  Biso   1.000  F
  F98      1.0000 0.72430  0.27820  0.17040  Biso   1.000  F
  F99      1.0000 0.72430  0.72180  0.82960  Biso   1.000  F
  F100     1.0000 0.27570  0.72180  0.17040  Biso   1.000  F
  F101     1.0000 0.77820  0.32960  0.27570  Biso   1.000  F
  F102     1.0000 0.77820  0.67040  0.72430  Biso   1.000  F
  F103     1.0000 0.22180  0.32960  0.72430  Biso   1.000  F
  F104     1.0000 0.22180  0.67040  0.27570  Biso   1.000  F
  F105     1.0000 0.77570  0.32960  0.77820  Biso   1.000  F
  F106     1.0000 0.22430  0.67040  0.77820  Biso   1.000  F
  F107     1.0000 0.22430  0.32960  0.22180  Biso   1.000  F
  F108     1.0000 0.77570  0.67040  0.22180  Biso   1.000  F
  F109     1.0000 0.27820  0.77570  0.82960  Biso   1.000  F
  F110     1.0000 0.27820  0.22430  0.17040  Biso   1.000  F
  F111     1.0000 0.72180  0.22430  0.82960  Biso   1.000  F
  F112     1.0000 0.72180  0.77570  0.17040  Biso   1.000  F
  F113     1.0000 0.32960  0.27820  0.27570  Biso   1.000  F
  F114     1.0000 0.67040  0.27820  0.72430  Biso   1.000  F
  F115     1.0000 0.32960  0.72180  0.72430  Biso   1.000  F
  F116     1.0000 0.67040  0.72180  0.27570  Biso   1.000  F
  F117     1.0000 0.82960  0.27570  0.27820  Biso   1.000  F
  F118     1.0000 0.17040  0.72430  0.27820  Biso   1.000  F
  F119     1.0000 0.82960  0.72430  0.72180  Biso   1.000  F
  F120     1.0000 0.17040  0.27570  0.72180  Biso   1.000  F
  F121     1.0000 0.27570  0.77820  0.32960  Biso   1.000  F
  F122     1.0000 0.72430  0.77820  0.67040  Biso   1.000  F
  F123     1.0000 0.72430  0.22180  0.32960  Biso   1.000  F
  F124     1.0000 0.27570  0.22180  0.67040  Biso   1.000  F
  F125     1.0000 0.77820  0.82960  0.77570  Biso   1.000  F
  F126     1.0000 0.77820  0.17040  0.22430  Biso   1.000  F
  F127     1.0000 0.22180  0.82960  0.22430  Biso   1.000  F
  F128     1.0000 0.22180  0.17040  0.77570  Biso   1.000  F
  F129     1.0000 0.25980  0.87030  0.77310  Biso   1.000  F
  F130     1.0000 0.74020  0.12970  0.77310  Biso   1.000  F
  F131     1.0000 0.74020  0.87030  0.22690  Biso   1.000  F
  F132     1.0000 0.25980  0.12970  0.22690  Biso   1.000  F
  F133     1.0000 0.77310  0.25980  0.87030  Biso   1.000  F
  F134     1.0000 0.77310  0.74020  0.12970  Biso   1.000  F
  F135     1.0000 0.22690  0.74020  0.87030  Biso   1.000  F
  F136     1.0000 0.22690  0.25980  0.12970  Biso   1.000  F
  F137     1.0000 0.87030  0.77310  0.25980  Biso   1.000  F
  F138     1.0000 0.12970  0.77310  0.74020  Biso   1.000  F
  F139     1.0000 0.87030  0.22690  0.74020  Biso   1.000  F
  F140     1.0000 0.12970  0.22690  0.25980  Biso   1.000  F
  F141     1.0000 0.37030  0.75980  0.27310  Biso   1.000  F
  F142     1.0000 0.62970  0.24020  0.27310  Biso   1.000  F
  F143     1.0000 0.37030  0.24020  0.72690  Biso   1.000  F
  F144     1.0000 0.62970  0.75980  0.72690  Biso   1.000  F
  F145     1.0000 0.75980  0.27310  0.37030  Biso   1.000  F
  F146     1.0000 0.24020  0.27310  0.62970  Biso   1.000  F
  F147     1.0000 0.24020  0.72690  0.37030  Biso   1.000  F
  F148     1.0000 0.75980  0.72690  0.62970  Biso   1.000  F
  F149     1.0000 0.27310  0.37030  0.75980  Biso   1.000  F
  F150     1.0000 0.27310  0.62970  0.24020  Biso   1.000  F
  F151     1.0000 0.72690  0.37030  0.24020  Biso   1.000  F
  F152     1.0000 0.72690  0.62970  0.75980  Biso   1.000  F
  F153     1.0000 0.25980  0.37030  0.27310  Biso   1.000  F
  F154     1.0000 0.74020  0.62970  0.27310  Biso   1.000  F
  F155     1.0000 0.74020  0.37030  0.72690  Biso   1.000  F
  F156     1.0000 0.25980  0.62970  0.72690  Biso   1.000  F
  F157     1.0000 0.77310  0.75980  0.37030  Biso   1.000  F
  F158     1.0000 0.77310  0.24020  0.62970  Biso   1.000  F
  F159     1.0000 0.22690  0.24020  0.37030  Biso   1.000  F
  F160     1.0000 0.22690  0.75980  0.62970  Biso   1.000  F
  F161     1.0000 0.87030  0.27310  0.75980  Biso   1.000  F
  F162     1.0000 0.12970  0.27310  0.24020  Biso   1.000  F
  F163     1.0000 0.87030  0.72690  0.24020  Biso   1.000  F
  F164     1.0000 0.12970  0.72690  0.75980  Biso   1.000  F
  F165     1.0000 0.37030  0.25980  0.77310  Biso   1.000  F
  F166     1.0000 0.62970  0.74020  0.77310  Biso   1.000  F
  F167     1.0000 0.37030  0.74020  0.22690  Biso   1.000  F
  F168     1.0000 0.62970  0.25980  0.22690  Biso   1.000  F
  F169     1.0000 0.75980  0.77310  0.87030  Biso   1.000  F
  F170     1.0000 0.24020  0.77310  0.12970  Biso   1.000  F
  F171     1.0000 0.24020  0.22690  0.87030  Biso   1.000  F
  F172     1.0000 0.75980  0.22690  0.12970  Biso   1.000  F
  F173     1.0000 0.27310  0.87030  0.25980  Biso   1.000  F
  F174     1.0000 0.27310  0.12970  0.74020  Biso   1.000  F
  F175     1.0000 0.72690  0.87030  0.74020  Biso   1.000  F
  F176     1.0000 0.72690  0.12970  0.25980  Biso   1.000  F
  F177     1.0000 0.75980  0.87030  0.27310  Biso   1.000  F
  F178     1.0000 0.24020  0.12970  0.27310  Biso   1.000  F
  F179     1.0000 0.24020  0.87030  0.72690  Biso   1.000  F
  F180     1.0000 0.75980  0.12970  0.72690  Biso   1.000  F
  F181     1.0000 0.27310  0.25980  0.37030  Biso   1.000  F
  F182     1.0000 0.27310  0.74020  0.62970  Biso   1.000  F
  F183     1.0000 0.72690  0.74020  0.37030  Biso   1.000  F
  F184     1.0000 0.72690  0.25980  0.62970  Biso   1.000  F
  F185     1.0000 0.37030  0.77310  0.75980  Biso   1.000  F
  F186     1.0000 0.62970  0.77310  0.24020  Biso   1.000  F
  F187     1.0000 0.37030  0.22690  0.24020  Biso   1.000  F
  F188     1.0000 0.62970  0.22690  0.75980  Biso   1.000  F
  F189     1.0000 0.87030  0.75980  0.77310  Biso   1.000  F
  F190     1.0000 0.12970  0.24020  0.77310  Biso   1.000  F
  F191     1.0000 0.87030  0.24020  0.22690  Biso   1.000  F
  F192     1.0000 0.12970  0.75980  0.22690  Biso   1.000  F
  F193     1.0000 0.25980  0.27310  0.87030  Biso   1.000  F
  F194     1.0000 0.74020  0.27310  0.12970  Biso   1.000  F
  F195     1.0000 0.74020  0.72690  0.87030  Biso   1.000  F
  F196     1.0000 0.25980  0.72690  0.12970  Biso   1.000  F
  F197     1.0000 0.77310  0.37030  0.25980  Biso   1.000  F
  F198     1.0000 0.77310  0.62970  0.74020  Biso   1.000  F
  F199     1.0000 0.22690  0.37030  0.74020  Biso   1.000  F
  F200     1.0000 0.22690  0.62970  0.25980  Biso   1.000  F
  F201     1.0000 0.75980  0.37030  0.77310  Biso   1.000  F
  F202     1.0000 0.24020  0.62970  0.77310  Biso   1.000  F
  F203     1.0000 0.24020  0.37030  0.22690  Biso   1.000  F
  F204     1.0000 0.75980  0.62970  0.22690  Biso   1.000  F
  F205     1.0000 0.27310  0.75980  0.87030  Biso   1.000  F
  F206     1.0000 0.27310  0.24020  0.12970  Biso   1.000  F
  F207     1.0000 0.72690  0.24020  0.87030  Biso   1.000  F
  F208     1.0000 0.72690  0.75980  0.12970  Biso   1.000  F
  F209     1.0000 0.37030  0.27310  0.25980  Biso   1.000  F
  F210     1.0000 0.62970  0.27310  0.74020  Biso   1.000  F
  F211     1.0000 0.37030  0.72690  0.74020  Biso   1.000  F
  F212     1.0000 0.62970  0.72690  0.25980  Biso   1.000  F
  F213     1.0000 0.87030  0.25980  0.27310  Biso   1.000  F
  F214     1.0000 0.12970  0.74020  0.27310  Biso   1.000  F
  F215     1.0000 0.87030  0.74020  0.72690  Biso   1.000  F
  F216     1.0000 0.12970  0.25980  0.72690  Biso   1.000  F
  F217     1.0000 0.25980  0.77310  0.37030  Biso   1.000  F
  F218     1.0000 0.74020  0.77310  0.62970  Biso   1.000  F
  F219     1.0000 0.74020  0.22690  0.37030  Biso   1.000  F
  F220     1.0000 0.25980  0.22690  0.62970  Biso   1.000  F
  F221     1.0000 0.77310  0.87030  0.75980  Biso   1.000  F
  F222     1.0000 0.77310  0.12970  0.24020  Biso   1.000  F
  F223     1.0000 0.22690  0.87030  0.24020  Biso   1.000  F
  F224     1.0000 0.22690  0.12970  0.75980  Biso   1.000  F
