data_image0
_cell_length_a       28.501
_cell_length_b       18.409
_cell_length_c       19.317
_cell_angle_alpha    90
_cell_angle_beta     115
_cell_angle_gamma    90

_symmetry_space_group_name_H-M    "P 1"
_symmetry_int_tables_number       1

loop_
  _symmetry_equiv_pos_as_xyz
  'x, y, z'

loop_
  _atom_site_label
  _atom_site_occupancy
  _atom_site_fract_x
  _atom_site_fract_y
  _atom_site_fract_z
  _atom_site_thermal_displace_type
  _atom_site_B_iso_or_equiv
  _atom_site_type_symbol
  C1       1.0000 0.11410  0.55640  0.94000  Biso   1.000  C
  C2       1.0000 0.88590  0.55640  0.56000  Biso   1.000  C
  C3       1.0000 0.61410  0.05640  0.94000  Biso   1.000  C
  C4       1.0000 0.38590  0.05640  0.56000  Biso   1.000  C
  C5       1.0000 0.88590  0.44360  0.06000  Biso   1.000  C
  C6       1.0000 0.11410  0.44360  0.44000  Biso   1.000  C
  C7       1.0000 0.38590  0.94360  0.06000  Biso   1.000  C
  C8       1.0000 0.61410  0.94360  0.44000  Biso   1.000  C
  C9       1.0000 0.07580  0.59180  0.95230  Biso   1.000  C
  C10      1.0000 0.92420  0.59180  0.54770  Biso   1.000  C
  C11      1.0000 0.57580  0.09180  0.95230  Biso   1.000  C
  C12      1.0000 0.42420  0.09180  0.54770  Biso   1.000  C
  C13      1.0000 0.92420  0.40820  0.04770  Biso   1.000  C
  C14      1.0000 0.07580  0.40820  0.45230  Biso   1.000  C
  C15      1.0000 0.42420  0.90820  0.04770  Biso   1.000  C
  C16      1.0000 0.57580  0.90820  0.45230  Biso   1.000  C
  H1       1.0000 0.08020  0.63900  0.97120  Biso   1.000  H
  H2       1.0000 0.91980  0.63900  0.52880  Biso   1.000  H
  H3       1.0000 0.58020  0.13900  0.97120  Biso   1.000  H
  H4       1.0000 0.41980  0.13900  0.52880  Biso   1.000  H
  H5       1.0000 0.91980  0.36100  0.02880  Biso   1.000  H
  H6       1.0000 0.08020  0.36100  0.47120  Biso   1.000  H
  H7       1.0000 0.41980  0.86100  0.02880  Biso   1.000  H
  H8       1.0000 0.58020  0.86100  0.47120  Biso   1.000  H
  C17      1.0000 0.03220  0.55530  0.93590  Biso   1.000  C
  C18      1.0000 0.96780  0.55530  0.56410  Biso   1.000  C
  C19      1.0000 0.53220  0.05530  0.93590  Biso   1.000  C
  C20      1.0000 0.46780  0.05530  0.56410  Biso   1.000  C
  C21      1.0000 0.96780  0.44470  0.06410  Biso   1.000  C
  C22      1.0000 0.03220  0.44470  0.43590  Biso   1.000  C
  C23      1.0000 0.46780  0.94470  0.06410  Biso   1.000  C
  C24      1.0000 0.53220  0.94470  0.43590  Biso   1.000  C
  H9       1.0000 0.00580  0.57650  0.94520  Biso   1.000  H
  H10      1.0000 0.99420  0.57650  0.55480  Biso   1.000  H
  H11      1.0000 0.50580  0.07650  0.94520  Biso   1.000  H
  H12      1.0000 0.49420  0.07650  0.55480  Biso   1.000  H
  H13      1.0000 0.99420  0.42350  0.05480  Biso   1.000  H
  H14      1.0000 0.00580  0.42350  0.44520  Biso   1.000  H
  H15      1.0000 0.49420  0.92350  0.05480  Biso   1.000  H
  H16      1.0000 0.50580  0.92350  0.44520  Biso   1.000  H
  C25      1.0000 0.02540  0.48450  0.90450  Biso   1.000  C
  C26      1.0000 0.97460  0.48450  0.59550  Biso   1.000  C
  C27      1.0000 0.52540  0.98450  0.90450  Biso   1.000  C
  C28      1.0000 0.47460  0.98450  0.59550  Biso   1.000  C
  C29      1.0000 0.97460  0.51550  0.09550  Biso   1.000  C
  C30      1.0000 0.02540  0.51550  0.40450  Biso   1.000  C
  C31      1.0000 0.47460  0.01550  0.09550  Biso   1.000  C
  C32      1.0000 0.52540  0.01550  0.40450  Biso   1.000  C
  H17      1.0000 0.99380  0.46130  0.89140  Biso   1.000  H
  H18      1.0000 0.00620  0.46130  0.60860  Biso   1.000  H
  H19      1.0000 0.49380  0.96130  0.89140  Biso   1.000  H
  H20      1.0000 0.50620  0.96130  0.60860  Biso   1.000  H
  H21      1.0000 0.00620  0.53870  0.10860  Biso   1.000  H
  H22      1.0000 0.99380  0.53870  0.39140  Biso   1.000  H
  H23      1.0000 0.50620  0.03870  0.10860  Biso   1.000  H
  H24      1.0000 0.49380  0.03870  0.39140  Biso   1.000  H
  C33      1.0000 0.06240  0.44990  0.89280  Biso   1.000  C
  C34      1.0000 0.93760  0.44990  0.60720  Biso   1.000  C
  C35      1.0000 0.56240  0.94990  0.89280  Biso   1.000  C
  C36      1.0000 0.43760  0.94990  0.60720  Biso   1.000  C
  C37      1.0000 0.93760  0.55010  0.10720  Biso   1.000  C
  C38      1.0000 0.06240  0.55010  0.39280  Biso   1.000  C
  C39      1.0000 0.43760  0.05010  0.10720  Biso   1.000  C
  C40      1.0000 0.56240  0.05010  0.39280  Biso   1.000  C
  H25      1.0000 0.05740  0.40290  0.87320  Biso   1.000  H
  H26      1.0000 0.94260  0.40290  0.62680  Biso   1.000  H
  H27      1.0000 0.55740  0.90290  0.87320  Biso   1.000  H
  H28      1.0000 0.44260  0.90290  0.62680  Biso   1.000  H
  H29      1.0000 0.94260  0.59710  0.12680  Biso   1.000  H
  H30      1.0000 0.05740  0.59710  0.37320  Biso   1.000  H
  H31      1.0000 0.44260  0.09710  0.12680  Biso   1.000  H
  H32      1.0000 0.55740  0.09710  0.37320  Biso   1.000  H
  C41      1.0000 0.10840  0.48650  0.91100  Biso   1.000  C
  C42      1.0000 0.89160  0.48650  0.58900  Biso   1.000  C
  C43      1.0000 0.60840  0.98650  0.91100  Biso   1.000  C
  C44      1.0000 0.39160  0.98650  0.58900  Biso   1.000  C
  C45      1.0000 0.89160  0.51350  0.08900  Biso   1.000  C
  C46      1.0000 0.10840  0.51350  0.41100  Biso   1.000  C
  C47      1.0000 0.39160  0.01350  0.08900  Biso   1.000  C
  C48      1.0000 0.60840  0.01350  0.41100  Biso   1.000  C
  C49      1.0000 0.10270  0.32160  0.70440  Biso   1.000  C
  C50      1.0000 0.89730  0.32160  0.79560  Biso   1.000  C
  C51      1.0000 0.60270  0.82160  0.70440  Biso   1.000  C
  C52      1.0000 0.39730  0.82160  0.79560  Biso   1.000  C
  C53      1.0000 0.89730  0.67840  0.29560  Biso   1.000  C
  C54      1.0000 0.10270  0.67840  0.20440  Biso   1.000  C
  C55      1.0000 0.39730  0.17840  0.29560  Biso   1.000  C
  C56      1.0000 0.60270  0.17840  0.20440  Biso   1.000  C
  C57      1.0000 0.05610  0.31770  0.70950  Biso   1.000  C
  C58      1.0000 0.94390  0.31770  0.79050  Biso   1.000  C
  C59      1.0000 0.55610  0.81770  0.70950  Biso   1.000  C
  C60      1.0000 0.44390  0.81770  0.79050  Biso   1.000  C
  C61      1.0000 0.94390  0.68230  0.29050  Biso   1.000  C
  C62      1.0000 0.05610  0.68230  0.20950  Biso   1.000  C
  C63      1.0000 0.44390  0.18230  0.29050  Biso   1.000  C
  C64      1.0000 0.55610  0.18230  0.20950  Biso   1.000  C
  H33      1.0000 0.05200  0.33720  0.75100  Biso   1.000  H
  H34      1.0000 0.94800  0.33720  0.74900  Biso   1.000  H
  H35      1.0000 0.55200  0.83720  0.75100  Biso   1.000  H
  H36      1.0000 0.44800  0.83720  0.74900  Biso   1.000  H
  H37      1.0000 0.94800  0.66280  0.24900  Biso   1.000  H
  H38      1.0000 0.05200  0.66280  0.25100  Biso   1.000  H
  H39      1.0000 0.44800  0.16280  0.24900  Biso   1.000  H
  H40      1.0000 0.55200  0.16280  0.25100  Biso   1.000  H
  C65      1.0000 0.01660  0.28440  0.65150  Biso   1.000  C
  C66      1.0000 0.98340  0.28440  0.84850  Biso   1.000  C
  C67      1.0000 0.51660  0.78440  0.65150  Biso   1.000  C
  C68      1.0000 0.48340  0.78440  0.84850  Biso   1.000  C
  C69      1.0000 0.98340  0.71560  0.34850  Biso   1.000  C
  C70      1.0000 0.01660  0.71560  0.15150  Biso   1.000  C
  C71      1.0000 0.48340  0.21560  0.34850  Biso   1.000  C
  C72      1.0000 0.51660  0.21560  0.15150  Biso   1.000  C
  H41      1.0000 0.98480  0.28000  0.65410  Biso   1.000  H
  H42      1.0000 0.01520  0.28000  0.84590  Biso   1.000  H
  H43      1.0000 0.48480  0.78000  0.65410  Biso   1.000  H
  H44      1.0000 0.51520  0.78000  0.84590  Biso   1.000  H
  H45      1.0000 0.01520  0.72000  0.34590  Biso   1.000  H
  H46      1.0000 0.98480  0.72000  0.15410  Biso   1.000  H
  H47      1.0000 0.51520  0.22000  0.34590  Biso   1.000  H
  H48      1.0000 0.48480  0.22000  0.15410  Biso   1.000  H
  C73      1.0000 0.02190  0.25690  0.58910  Biso   1.000  C
  C74      1.0000 0.97810  0.25690  0.91090  Biso   1.000  C
  C75      1.0000 0.52190  0.75690  0.58910  Biso   1.000  C
  C76      1.0000 0.47810  0.75690  0.91090  Biso   1.000  C
  C77      1.0000 0.97810  0.74310  0.41090  Biso   1.000  C
  C78      1.0000 0.02190  0.74310  0.08910  Biso   1.000  C
  C79      1.0000 0.47810  0.24310  0.41090  Biso   1.000  C
  C80      1.0000 0.52190  0.24310  0.08910  Biso   1.000  C
  H49      1.0000 0.99350  0.23500  0.55040  Biso   1.000  H
  H50      1.0000 0.00650  0.23500  0.94960  Biso   1.000  H
  H51      1.0000 0.49350  0.73500  0.55040  Biso   1.000  H
  H52      1.0000 0.50650  0.73500  0.94960  Biso   1.000  H
  H53      1.0000 0.00650  0.76500  0.44960  Biso   1.000  H
  H54      1.0000 0.99350  0.76500  0.05040  Biso   1.000  H
  H55      1.0000 0.50650  0.26500  0.44960  Biso   1.000  H
  H56      1.0000 0.49350  0.26500  0.05040  Biso   1.000  H
  C81      1.0000 0.06690  0.26060  0.58200  Biso   1.000  C
  C82      1.0000 0.93310  0.26060  0.91800  Biso   1.000  C
  C83      1.0000 0.56690  0.76060  0.58200  Biso   1.000  C
  C84      1.0000 0.43310  0.76060  0.91800  Biso   1.000  C
  C85      1.0000 0.93310  0.73940  0.41800  Biso   1.000  C
  C86      1.0000 0.06690  0.73940  0.08200  Biso   1.000  C
  C87      1.0000 0.43310  0.23940  0.41800  Biso   1.000  C
  C88      1.0000 0.56690  0.23940  0.08200  Biso   1.000  C
  H57      1.0000 0.07040  0.24260  0.53940  Biso   1.000  H
  H58      1.0000 0.92960  0.24260  0.96060  Biso   1.000  H
  H59      1.0000 0.57040  0.74260  0.53940  Biso   1.000  H
  H60      1.0000 0.42960  0.74260  0.96060  Biso   1.000  H
  H61      1.0000 0.92960  0.75740  0.46060  Biso   1.000  H
  H62      1.0000 0.07040  0.75740  0.03940  Biso   1.000  H
  H63      1.0000 0.42960  0.25740  0.46060  Biso   1.000  H
  H64      1.0000 0.57040  0.25740  0.03940  Biso   1.000  H
  C89      1.0000 0.10720  0.29270  0.64150  Biso   1.000  C
  C90      1.0000 0.89280  0.29270  0.85850  Biso   1.000  C
  C91      1.0000 0.60720  0.79270  0.64150  Biso   1.000  C
  C92      1.0000 0.39280  0.79270  0.85850  Biso   1.000  C
  C93      1.0000 0.89280  0.70730  0.35850  Biso   1.000  C
  C94      1.0000 0.10720  0.70730  0.14150  Biso   1.000  C
  C95      1.0000 0.39280  0.20730  0.35850  Biso   1.000  C
  C96      1.0000 0.60720  0.20730  0.14150  Biso   1.000  C
  C97      1.0000 0.35050  0.16980  0.84780  Biso   1.000  C
  C98      1.0000 0.64950  0.16980  0.65220  Biso   1.000  C
  C99      1.0000 0.85050  0.66980  0.84780  Biso   1.000  C
  C100     1.0000 0.14950  0.66980  0.65220  Biso   1.000  C
  C101     1.0000 0.64950  0.83020  0.15220  Biso   1.000  C
  C102     1.0000 0.35050  0.83020  0.34780  Biso   1.000  C
  C103     1.0000 0.14950  0.33020  0.15220  Biso   1.000  C
  C104     1.0000 0.85050  0.33020  0.34780  Biso   1.000  C
  C105     1.0000 0.37810  0.11590  0.89930  Biso   1.000  C
  C106     1.0000 0.62190  0.11590  0.60070  Biso   1.000  C
  C107     1.0000 0.87810  0.61590  0.89930  Biso   1.000  C
  C108     1.0000 0.12190  0.61590  0.60070  Biso   1.000  C
  C109     1.0000 0.62190  0.88410  0.10070  Biso   1.000  C
  C110     1.0000 0.37810  0.88410  0.39930  Biso   1.000  C
  C111     1.0000 0.12190  0.38410  0.10070  Biso   1.000  C
  C112     1.0000 0.87810  0.38410  0.39930  Biso   1.000  C
  H65      1.0000 0.39240  0.12340  0.95180  Biso   1.000  H
  H66      1.0000 0.60760  0.12340  0.54820  Biso   1.000  H
  H67      1.0000 0.89240  0.62340  0.95180  Biso   1.000  H
  H68      1.0000 0.10760  0.62340  0.54820  Biso   1.000  H
  H69      1.0000 0.60760  0.87660  0.04820  Biso   1.000  H
  H70      1.0000 0.39240  0.87660  0.45180  Biso   1.000  H
  H71      1.0000 0.10760  0.37660  0.04820  Biso   1.000  H
  H72      1.0000 0.89240  0.37660  0.45180  Biso   1.000  H
  C113     1.0000 0.38300  0.05240  0.86880  Biso   1.000  C
  C114     1.0000 0.61700  0.05240  0.63120  Biso   1.000  C
  C115     1.0000 0.88300  0.55240  0.86880  Biso   1.000  C
  C116     1.0000 0.11700  0.55240  0.63120  Biso   1.000  C
  C117     1.0000 0.61700  0.94760  0.13120  Biso   1.000  C
  C118     1.0000 0.38300  0.94760  0.36880  Biso   1.000  C
  C119     1.0000 0.11700  0.44760  0.13120  Biso   1.000  C
  C120     1.0000 0.88300  0.44760  0.36880  Biso   1.000  C
  H73      1.0000 0.40090  0.01490  0.90150  Biso   1.000  H
  H74      1.0000 0.59910  0.01490  0.59850  Biso   1.000  H
  H75      1.0000 0.90090  0.51490  0.90150  Biso   1.000  H
  H76      1.0000 0.09910  0.51490  0.59850  Biso   1.000  H
  H77      1.0000 0.59910  0.98510  0.09850  Biso   1.000  H
  H78      1.0000 0.40090  0.98510  0.40150  Biso   1.000  H
  H79      1.0000 0.09910  0.48510  0.09850  Biso   1.000  H
  H80      1.0000 0.90090  0.48510  0.40150  Biso   1.000  H
  C121     1.0000 0.36260  0.04050  0.79160  Biso   1.000  C
  C122     1.0000 0.63740  0.04050  0.70840  Biso   1.000  C
  C123     1.0000 0.86260  0.54050  0.79160  Biso   1.000  C
  C124     1.0000 0.13740  0.54050  0.70840  Biso   1.000  C
  C125     1.0000 0.63740  0.95950  0.20840  Biso   1.000  C
  C126     1.0000 0.36260  0.95950  0.29160  Biso   1.000  C
  C127     1.0000 0.13740  0.45950  0.20840  Biso   1.000  C
  C128     1.0000 0.86260  0.45950  0.29160  Biso   1.000  C
  H81      1.0000 0.36670  0.99510  0.77390  Biso   1.000  H
  H82      1.0000 0.63330  0.99510  0.72610  Biso   1.000  H
  H83      1.0000 0.86670  0.49510  0.77390  Biso   1.000  H
  H84      1.0000 0.13330  0.49510  0.72610  Biso   1.000  H
  H85      1.0000 0.63330  0.00490  0.22610  Biso   1.000  H
  H86      1.0000 0.36670  0.00490  0.27390  Biso   1.000  H
  H87      1.0000 0.13330  0.50490  0.22610  Biso   1.000  H
  H88      1.0000 0.86670  0.50490  0.27390  Biso   1.000  H
  C129     1.0000 0.33710  0.09230  0.74100  Biso   1.000  C
  C130     1.0000 0.66290  0.09230  0.75900  Biso   1.000  C
  C131     1.0000 0.83710  0.59230  0.74100  Biso   1.000  C
  C132     1.0000 0.16290  0.59230  0.75900  Biso   1.000  C
  C133     1.0000 0.66290  0.90770  0.25900  Biso   1.000  C
  C134     1.0000 0.33710  0.90770  0.24100  Biso   1.000  C
  C135     1.0000 0.16290  0.40770  0.25900  Biso   1.000  C
  C136     1.0000 0.83710  0.40770  0.24100  Biso   1.000  C
  H89      1.0000 0.32410  0.08480  0.68850  Biso   1.000  H
  H90      1.0000 0.67590  0.08480  0.81150  Biso   1.000  H
  H91      1.0000 0.82410  0.58480  0.68850  Biso   1.000  H
  H92      1.0000 0.17590  0.58480  0.81150  Biso   1.000  H
  H93      1.0000 0.67590  0.91520  0.31150  Biso   1.000  H
  H94      1.0000 0.32410  0.91520  0.18850  Biso   1.000  H
  H95      1.0000 0.17590  0.41520  0.31150  Biso   1.000  H
  H96      1.0000 0.82410  0.41520  0.18850  Biso   1.000  H
  C137     1.0000 0.33120  0.15710  0.77160  Biso   1.000  C
  C138     1.0000 0.66880  0.15710  0.72840  Biso   1.000  C
  C139     1.0000 0.83120  0.65710  0.77160  Biso   1.000  C
  C140     1.0000 0.16880  0.65710  0.72840  Biso   1.000  C
  C141     1.0000 0.66880  0.84290  0.22840  Biso   1.000  C
  C142     1.0000 0.33120  0.84290  0.27160  Biso   1.000  C
  C143     1.0000 0.16880  0.34290  0.22840  Biso   1.000  C
  C144     1.0000 0.83120  0.34290  0.27160  Biso   1.000  C
  C145     1.0000 0.38520  0.46460  0.17420  Biso   1.000  C
  C146     1.0000 0.61480  0.46460  0.32580  Biso   1.000  C
  C147     1.0000 0.88520  0.96460  0.17420  Biso   1.000  C
  C148     1.0000 0.11480  0.96460  0.32580  Biso   1.000  C
  C149     1.0000 0.61480  0.53540  0.82580  Biso   1.000  C
  C150     1.0000 0.38520  0.53540  0.67420  Biso   1.000  C
  C151     1.0000 0.11480  0.03540  0.82580  Biso   1.000  C
  C152     1.0000 0.88520  0.03540  0.67420  Biso   1.000  C
  C153     1.0000 0.42270  0.41800  0.22470  Biso   1.000  C
  C154     1.0000 0.57730  0.41800  0.27530  Biso   1.000  C
  C155     1.0000 0.92270  0.91800  0.22470  Biso   1.000  C
  C156     1.0000 0.07730  0.91800  0.27530  Biso   1.000  C
  C157     1.0000 0.57730  0.58200  0.77530  Biso   1.000  C
  C158     1.0000 0.42270  0.58200  0.72470  Biso   1.000  C
  C159     1.0000 0.07730  0.08200  0.77530  Biso   1.000  C
  C160     1.0000 0.92270  0.08200  0.72470  Biso   1.000  C
  H97      1.0000 0.42740  0.37140  0.21010  Biso   1.000  H
  H98      1.0000 0.57260  0.37140  0.28990  Biso   1.000  H
  H99      1.0000 0.92740  0.87140  0.21010  Biso   1.000  H
  H100     1.0000 0.07260  0.87140  0.28990  Biso   1.000  H
  H101     1.0000 0.57260  0.62860  0.78990  Biso   1.000  H
  H102     1.0000 0.42740  0.62860  0.71010  Biso   1.000  H
  H103     1.0000 0.07260  0.12860  0.78990  Biso   1.000  H
  H104     1.0000 0.92740  0.12860  0.71010  Biso   1.000  H
  C161     1.0000 0.45150  0.44300  0.29410  Biso   1.000  C
  C162     1.0000 0.54850  0.44300  0.20590  Biso   1.000  C
  C163     1.0000 0.95150  0.94300  0.29410  Biso   1.000  C
  C164     1.0000 0.04850  0.94300  0.20590  Biso   1.000  C
  C165     1.0000 0.54850  0.55700  0.70590  Biso   1.000  C
  C166     1.0000 0.45150  0.55700  0.79410  Biso   1.000  C
  C167     1.0000 0.04850  0.05700  0.70590  Biso   1.000  C
  C168     1.0000 0.95150  0.05700  0.79410  Biso   1.000  C
  H105     1.0000 0.47750  0.41360  0.32840  Biso   1.000  H
  H106     1.0000 0.52250  0.41360  0.17160  Biso   1.000  H
  H107     1.0000 0.97750  0.91360  0.32840  Biso   1.000  H
  H108     1.0000 0.02250  0.91360  0.17160  Biso   1.000  H
  H109     1.0000 0.52250  0.58640  0.67160  Biso   1.000  H
  H110     1.0000 0.47750  0.58640  0.82840  Biso   1.000  H
  H111     1.0000 0.02250  0.08640  0.67160  Biso   1.000  H
  H112     1.0000 0.97750  0.08640  0.82840  Biso   1.000  H
  C169     1.0000 0.44390  0.51200  0.31740  Biso   1.000  C
  C170     1.0000 0.55610  0.51200  0.18260  Biso   1.000  C
  C171     1.0000 0.94390  0.01200  0.31740  Biso   1.000  C
  C172     1.0000 0.05610  0.01200  0.18260  Biso   1.000  C
  C173     1.0000 0.55610  0.48800  0.68260  Biso   1.000  C
  C174     1.0000 0.44390  0.48800  0.81740  Biso   1.000  C
  C175     1.0000 0.05610  0.98800  0.68260  Biso   1.000  C
  C176     1.0000 0.94390  0.98800  0.81740  Biso   1.000  C
  H113     1.0000 0.46440  0.52680  0.36720  Biso   1.000  H
  H114     1.0000 0.53560  0.52680  0.13280  Biso   1.000  H
  H115     1.0000 0.96440  0.02680  0.36720  Biso   1.000  H
  H116     1.0000 0.03560  0.02680  0.13280  Biso   1.000  H
  H117     1.0000 0.53560  0.47320  0.63280  Biso   1.000  H
  H118     1.0000 0.46440  0.47320  0.86720  Biso   1.000  H
  H119     1.0000 0.03560  0.97320  0.63280  Biso   1.000  H
  H120     1.0000 0.96440  0.97320  0.86720  Biso   1.000  H
  C177     1.0000 0.40740  0.55800  0.26960  Biso   1.000  C
  C178     1.0000 0.59260  0.55800  0.23040  Biso   1.000  C
  C179     1.0000 0.90740  0.05800  0.26960  Biso   1.000  C
  C180     1.0000 0.09260  0.05800  0.23040  Biso   1.000  C
  C181     1.0000 0.59260  0.44200  0.73040  Biso   1.000  C
  C182     1.0000 0.40740  0.44200  0.76960  Biso   1.000  C
  C183     1.0000 0.09260  0.94200  0.73040  Biso   1.000  C
  C184     1.0000 0.90740  0.94200  0.76960  Biso   1.000  C
  H121     1.0000 0.40250  0.60420  0.28460  Biso   1.000  H
  H122     1.0000 0.59750  0.60420  0.21540  Biso   1.000  H
  H123     1.0000 0.90250  0.10420  0.28460  Biso   1.000  H
  H124     1.0000 0.09750  0.10420  0.21540  Biso   1.000  H
  H125     1.0000 0.59750  0.39580  0.71540  Biso   1.000  H
  H126     1.0000 0.40250  0.39580  0.78460  Biso   1.000  H
  H127     1.0000 0.09750  0.89580  0.71540  Biso   1.000  H
  H128     1.0000 0.90250  0.89580  0.78460  Biso   1.000  H
  C185     1.0000 0.37840  0.53180  0.19750  Biso   1.000  C
  C186     1.0000 0.62160  0.53180  0.30250  Biso   1.000  C
  C187     1.0000 0.87840  0.03180  0.19750  Biso   1.000  C
  C188     1.0000 0.12160  0.03180  0.30250  Biso   1.000  C
  C189     1.0000 0.62160  0.46820  0.80250  Biso   1.000  C
  C190     1.0000 0.37840  0.46820  0.69750  Biso   1.000  C
  C191     1.0000 0.12160  0.96820  0.80250  Biso   1.000  C
  C192     1.0000 0.87840  0.96820  0.69750  Biso   1.000  C
  C193     1.0000 0.38930  0.61630  0.00480  Biso   1.000  C
  C194     1.0000 0.61070  0.61630  0.49520  Biso   1.000  C
  C195     1.0000 0.88930  0.11630  0.00480  Biso   1.000  C
  C196     1.0000 0.11070  0.11630  0.49520  Biso   1.000  C
  C197     1.0000 0.61070  0.38370  0.99520  Biso   1.000  C
  C198     1.0000 0.38930  0.38370  0.50480  Biso   1.000  C
  C199     1.0000 0.11070  0.88370  0.99520  Biso   1.000  C
  C200     1.0000 0.88930  0.88370  0.50480  Biso   1.000  C
  C201     1.0000 0.44210  0.60810  0.03310  Biso   1.000  C
  C202     1.0000 0.55790  0.60810  0.46690  Biso   1.000  C
  C203     1.0000 0.94210  0.10810  0.03310  Biso   1.000  C
  C204     1.0000 0.05790  0.10810  0.46690  Biso   1.000  C
  C205     1.0000 0.55790  0.39190  0.96690  Biso   1.000  C
  C206     1.0000 0.44210  0.39190  0.53310  Biso   1.000  C
  C207     1.0000 0.05790  0.89190  0.96690  Biso   1.000  C
  C208     1.0000 0.94210  0.89190  0.53310  Biso   1.000  C
  H129     1.0000 0.45680  0.57130  0.01590  Biso   1.000  H
  H130     1.0000 0.54320  0.57130  0.48410  Biso   1.000  H
  H131     1.0000 0.95680  0.07130  0.01590  Biso   1.000  H
  H132     1.0000 0.04320  0.07130  0.48410  Biso   1.000  H
  H133     1.0000 0.54320  0.42870  0.98410  Biso   1.000  H
  H134     1.0000 0.45680  0.42870  0.51590  Biso   1.000  H
  H135     1.0000 0.04320  0.92870  0.98410  Biso   1.000  H
  H136     1.0000 0.95680  0.92870  0.51590  Biso   1.000  H
  C209     1.0000 0.47160  0.65590  0.08680  Biso   1.000  C
  C210     1.0000 0.52840  0.65590  0.41320  Biso   1.000  C
  C211     1.0000 0.97160  0.15590  0.08680  Biso   1.000  C
  C212     1.0000 0.02840  0.15590  0.41320  Biso   1.000  C
  C213     1.0000 0.52840  0.34410  0.91320  Biso   1.000  C
  C214     1.0000 0.47160  0.34410  0.58680  Biso   1.000  C
  C215     1.0000 0.02840  0.84410  0.91320  Biso   1.000  C
  C216     1.0000 0.97160  0.84410  0.58680  Biso   1.000  C
  H137     1.0000 0.50740  0.65190  0.10650  Biso   1.000  H
  H138     1.0000 0.49260  0.65190  0.39350  Biso   1.000  H
  H139     1.0000 0.00740  0.15190  0.10650  Biso   1.000  H
  H140     1.0000 0.99260  0.15190  0.39350  Biso   1.000  H
  H141     1.0000 0.49260  0.34810  0.89350  Biso   1.000  H
  H142     1.0000 0.50740  0.34810  0.60650  Biso   1.000  H
  H143     1.0000 0.99260  0.84810  0.89350  Biso   1.000  H
  H144     1.0000 0.00740  0.84810  0.60650  Biso   1.000  H
  C217     1.0000 0.45010  0.71100  0.11390  Biso   1.000  C
  C218     1.0000 0.54990  0.71100  0.38610  Biso   1.000  C
  C219     1.0000 0.95010  0.21100  0.11390  Biso   1.000  C
  C220     1.0000 0.04990  0.21100  0.38610  Biso   1.000  C
  C221     1.0000 0.54990  0.28900  0.88610  Biso   1.000  C
  C222     1.0000 0.45010  0.28900  0.61390  Biso   1.000  C
  C223     1.0000 0.04990  0.78900  0.88610  Biso   1.000  C
  C224     1.0000 0.95010  0.78900  0.61390  Biso   1.000  C
  H145     1.0000 0.47220  0.74140  0.15230  Biso   1.000  H
  H146     1.0000 0.52780  0.74140  0.34770  Biso   1.000  H
  H147     1.0000 0.97220  0.24140  0.15230  Biso   1.000  H
  H148     1.0000 0.02780  0.24140  0.34770  Biso   1.000  H
  H149     1.0000 0.52780  0.25860  0.84770  Biso   1.000  H
  H150     1.0000 0.47220  0.25860  0.65230  Biso   1.000  H
  H151     1.0000 0.02780  0.75860  0.84770  Biso   1.000  H
  H152     1.0000 0.97220  0.75860  0.65230  Biso   1.000  H
  C225     1.0000 0.39890  0.72190  0.08650  Biso   1.000  C
  C226     1.0000 0.60110  0.72190  0.41350  Biso   1.000  C
  C227     1.0000 0.89890  0.22190  0.08650  Biso   1.000  C
  C228     1.0000 0.10110  0.22190  0.41350  Biso   1.000  C
  C229     1.0000 0.60110  0.27810  0.91350  Biso   1.000  C
  C230     1.0000 0.39890  0.27810  0.58650  Biso   1.000  C
  C231     1.0000 0.10110  0.77810  0.91350  Biso   1.000  C
  C232     1.0000 0.89890  0.77810  0.58650  Biso   1.000  C
  H153     1.0000 0.38450  0.75940  0.10330  Biso   1.000  H
  H154     1.0000 0.61550  0.75940  0.39670  Biso   1.000  H
  H155     1.0000 0.88450  0.25940  0.10330  Biso   1.000  H
  H156     1.0000 0.11550  0.25940  0.39670  Biso   1.000  H
  H157     1.0000 0.61550  0.24060  0.89670  Biso   1.000  H
  H158     1.0000 0.38450  0.24060  0.60330  Biso   1.000  H
  H159     1.0000 0.11550  0.74060  0.89670  Biso   1.000  H
  H160     1.0000 0.88450  0.74060  0.60330  Biso   1.000  H
  C233     1.0000 0.36930  0.67300  0.03140  Biso   1.000  C
  C234     1.0000 0.63070  0.67300  0.46860  Biso   1.000  C
  C235     1.0000 0.86930  0.17300  0.03140  Biso   1.000  C
  C236     1.0000 0.13070  0.17300  0.46860  Biso   1.000  C
  C237     1.0000 0.63070  0.32700  0.96860  Biso   1.000  C
  C238     1.0000 0.36930  0.32700  0.53140  Biso   1.000  C
  C239     1.0000 0.13070  0.82700  0.96860  Biso   1.000  C
  C240     1.0000 0.86930  0.82700  0.53140  Biso   1.000  C
  C241     1.0000 0.28970  0.55830  0.73730  Biso   1.000  C
  C242     1.0000 0.71030  0.55830  0.76270  Biso   1.000  C
  C243     1.0000 0.78970  0.05830  0.73730  Biso   1.000  C
  C244     1.0000 0.21030  0.05830  0.76270  Biso   1.000  C
  C245     1.0000 0.71030  0.44170  0.26270  Biso   1.000  C
  C246     1.0000 0.28970  0.44170  0.23730  Biso   1.000  C
  C247     1.0000 0.21030  0.94170  0.26270  Biso   1.000  C
  C248     1.0000 0.78970  0.94170  0.23730  Biso   1.000  C
  C249     1.0000 0.30920  0.62880  0.75300  Biso   1.000  C
  C250     1.0000 0.69080  0.62880  0.74700  Biso   1.000  C
  C251     1.0000 0.80920  0.12880  0.75300  Biso   1.000  C
  C252     1.0000 0.19080  0.12880  0.74700  Biso   1.000  C
  C253     1.0000 0.69080  0.37120  0.24700  Biso   1.000  C
  C254     1.0000 0.30920  0.37120  0.25300  Biso   1.000  C
  C255     1.0000 0.19080  0.87120  0.24700  Biso   1.000  C
  C256     1.0000 0.80920  0.87120  0.25300  Biso   1.000  C
  H161     1.0000 0.33220  0.64320  0.80180  Biso   1.000  H
  H162     1.0000 0.66780  0.64320  0.69820  Biso   1.000  H
  H163     1.0000 0.83220  0.14320  0.80180  Biso   1.000  H
  H164     1.0000 0.16780  0.14320  0.69820  Biso   1.000  H
  H165     1.0000 0.66780  0.35680  0.19820  Biso   1.000  H
  H166     1.0000 0.33220  0.35680  0.30180  Biso   1.000  H
  H167     1.0000 0.16780  0.85680  0.19820  Biso   1.000  H
  H168     1.0000 0.83220  0.85680  0.30180  Biso   1.000  H
  C257     1.0000 0.29250  0.67490  0.69250  Biso   1.000  C
  C258     1.0000 0.70750  0.67490  0.80750  Biso   1.000  C
  C259     1.0000 0.79250  0.17490  0.69250  Biso   1.000  C
  C260     1.0000 0.20750  0.17490  0.80750  Biso   1.000  C
  C261     1.0000 0.70750  0.32510  0.30750  Biso   1.000  C
  C262     1.0000 0.29250  0.32510  0.19250  Biso   1.000  C
  C263     1.0000 0.20750  0.82510  0.30750  Biso   1.000  C
  C264     1.0000 0.79250  0.82510  0.19250  Biso   1.000  C
  H169     1.0000 0.30500  0.72230  0.70050  Biso   1.000  H
  H170     1.0000 0.69500  0.72230  0.79950  Biso   1.000  H
  H171     1.0000 0.80500  0.22230  0.70050  Biso   1.000  H
  H172     1.0000 0.19500  0.22230  0.79950  Biso   1.000  H
  H173     1.0000 0.69500  0.27770  0.29950  Biso   1.000  H
  H174     1.0000 0.30500  0.27770  0.20050  Biso   1.000  H
  H175     1.0000 0.19500  0.77770  0.29950  Biso   1.000  H
  H176     1.0000 0.80500  0.77770  0.20050  Biso   1.000  H
  C265     1.0000 0.25780  0.65510  0.61940  Biso   1.000  C
  C266     1.0000 0.74220  0.65510  0.88060  Biso   1.000  C
  C267     1.0000 0.75780  0.15510  0.61940  Biso   1.000  C
  C268     1.0000 0.24220  0.15510  0.88060  Biso   1.000  C
  C269     1.0000 0.74220  0.34490  0.38060  Biso   1.000  C
  C270     1.0000 0.25780  0.34490  0.11940  Biso   1.000  C
  C271     1.0000 0.24220  0.84490  0.38060  Biso   1.000  C
  C272     1.0000 0.75780  0.84490  0.11940  Biso   1.000  C
  H177     1.0000 0.24810  0.68910  0.58020  Biso   1.000  H
  H178     1.0000 0.75190  0.68910  0.91980  Biso   1.000  H
  H179     1.0000 0.74810  0.18910  0.58020  Biso   1.000  H
  H180     1.0000 0.25190  0.18910  0.91980  Biso   1.000  H
  H181     1.0000 0.75190  0.31090  0.41980  Biso   1.000  H
  H182     1.0000 0.24810  0.31090  0.08020  Biso   1.000  H
  H183     1.0000 0.25190  0.81090  0.41980  Biso   1.000  H
  H184     1.0000 0.74810  0.81090  0.08020  Biso   1.000  H
  C273     1.0000 0.23810  0.58770  0.60430  Biso   1.000  C
  C274     1.0000 0.76190  0.58770  0.89570  Biso   1.000  C
  C275     1.0000 0.73810  0.08770  0.60430  Biso   1.000  C
  C276     1.0000 0.26190  0.08770  0.89570  Biso   1.000  C
  C277     1.0000 0.76190  0.41230  0.39570  Biso   1.000  C
  C278     1.0000 0.23810  0.41230  0.10430  Biso   1.000  C
  C279     1.0000 0.26190  0.91230  0.39570  Biso   1.000  C
  C280     1.0000 0.73810  0.91230  0.10430  Biso   1.000  C
  H185     1.0000 0.21380  0.57420  0.55600  Biso   1.000  H
  H186     1.0000 0.78620  0.57420  0.94400  Biso   1.000  H
  H187     1.0000 0.71380  0.07420  0.55600  Biso   1.000  H
  H188     1.0000 0.28620  0.07420  0.94400  Biso   1.000  H
  H189     1.0000 0.78620  0.42580  0.44400  Biso   1.000  H
  H190     1.0000 0.21380  0.42580  0.05600  Biso   1.000  H
  H191     1.0000 0.28620  0.92580  0.44400  Biso   1.000  H
  H192     1.0000 0.71380  0.92580  0.05600  Biso   1.000  H
  C281     1.0000 0.25590  0.53990  0.66440  Biso   1.000  C
  C282     1.0000 0.74410  0.53990  0.83560  Biso   1.000  C
  C283     1.0000 0.75590  0.03990  0.66440  Biso   1.000  C
  C284     1.0000 0.24410  0.03990  0.83560  Biso   1.000  C
  C285     1.0000 0.74410  0.46010  0.33560  Biso   1.000  C
  C286     1.0000 0.25590  0.46010  0.16440  Biso   1.000  C
  C287     1.0000 0.24410  0.96010  0.33560  Biso   1.000  C
  C288     1.0000 0.75590  0.96010  0.16440  Biso   1.000  C
  Cu1      1.0000 0.26201  0.52248  0.97339  Biso   1.000  Cu
  Cu2      1.0000 0.73799  0.52248  0.52661  Biso   1.000  Cu
  Cu3      1.0000 0.76201  0.02248  0.97339  Biso   1.000  Cu
  Cu4      1.0000 0.23799  0.02248  0.52661  Biso   1.000  Cu
  Cu5      1.0000 0.73799  0.47752  0.02661  Biso   1.000  Cu
  Cu6      1.0000 0.26201  0.47752  0.47339  Biso   1.000  Cu
  Cu7      1.0000 0.23799  0.97752  0.02661  Biso   1.000  Cu
  Cu8      1.0000 0.76201  0.97752  0.47339  Biso   1.000  Cu
  Cu9      1.0000 0.34724  0.36976  0.04331  Biso   1.000  Cu
  Cu10     1.0000 0.65276  0.36976  0.45669  Biso   1.000  Cu
  Cu11     1.0000 0.84724  0.86976  0.04331  Biso   1.000  Cu
  Cu12     1.0000 0.15276  0.86976  0.45669  Biso   1.000  Cu
  Cu13     1.0000 0.65276  0.63024  0.95669  Biso   1.000  Cu
  Cu14     1.0000 0.34724  0.63024  0.54331  Biso   1.000  Cu
  Cu15     1.0000 0.15276  0.13024  0.95669  Biso   1.000  Cu
  Cu16     1.0000 0.84724  0.13024  0.54331  Biso   1.000  Cu
  Cu17     1.0000 0.16635  0.38713  0.85354  Biso   1.000  Cu
  Cu18     1.0000 0.83365  0.38713  0.64646  Biso   1.000  Cu
  Cu19     1.0000 0.66635  0.88713  0.85354  Biso   1.000  Cu
  Cu20     1.0000 0.33365  0.88713  0.64646  Biso   1.000  Cu
  Cu21     1.0000 0.83365  0.61287  0.14646  Biso   1.000  Cu
  Cu22     1.0000 0.16635  0.61287  0.35354  Biso   1.000  Cu
  Cu23     1.0000 0.33365  0.11287  0.14646  Biso   1.000  Cu
  Cu24     1.0000 0.66635  0.11287  0.35354  Biso   1.000  Cu
  Cu25     1.0000 0.34431  0.49001  0.89261  Biso   1.000  Cu
  Cu26     1.0000 0.65569  0.49001  0.60739  Biso   1.000  Cu
  Cu27     1.0000 0.84431  0.99001  0.89261  Biso   1.000  Cu
  Cu28     1.0000 0.15569  0.99001  0.60739  Biso   1.000  Cu
  Cu29     1.0000 0.65569  0.50999  0.10739  Biso   1.000  Cu
  Cu30     1.0000 0.34431  0.50999  0.39261  Biso   1.000  Cu
  Cu31     1.0000 0.15569  0.00999  0.10739  Biso   1.000  Cu
  Cu32     1.0000 0.84431  0.00999  0.39261  Biso   1.000  Cu
  Cu33     1.0000 0.26161  0.34905  0.77208  Biso   1.000  Cu
  Cu34     1.0000 0.73839  0.34905  0.72792  Biso   1.000  Cu
  Cu35     1.0000 0.76161  0.84905  0.77208  Biso   1.000  Cu
  Cu36     1.0000 0.23839  0.84905  0.72792  Biso   1.000  Cu
  Cu37     1.0000 0.73839  0.65095  0.22792  Biso   1.000  Cu
  Cu38     1.0000 0.26161  0.65095  0.27208  Biso   1.000  Cu
  Cu39     1.0000 0.23839  0.15095  0.22792  Biso   1.000  Cu
  Cu40     1.0000 0.76161  0.15095  0.27208  Biso   1.000  Cu
  Cu41     1.0000 0.35732  0.29163  0.95122  Biso   1.000  Cu
  Cu42     1.0000 0.64268  0.29163  0.54878  Biso   1.000  Cu
  Cu43     1.0000 0.85732  0.79163  0.95122  Biso   1.000  Cu
  Cu44     1.0000 0.14268  0.79163  0.54878  Biso   1.000  Cu
  Cu45     1.0000 0.64268  0.70837  0.04878  Biso   1.000  Cu
  Cu46     1.0000 0.35732  0.70837  0.45122  Biso   1.000  Cu
  Cu47     1.0000 0.14268  0.20837  0.04878  Biso   1.000  Cu
  Cu48     1.0000 0.85732  0.20837  0.45122  Biso   1.000  Cu
  Dy1      1.0000 0.24321  0.68332  0.08096  Biso   1.000  Dy
  Dy2      1.0000 0.75679  0.68332  0.41904  Biso   1.000  Dy
  Dy3      1.0000 0.74321  0.18332  0.08096  Biso   1.000  Dy
  Dy4      1.0000 0.25679  0.18332  0.41904  Biso   1.000  Dy
  Dy5      1.0000 0.75679  0.31668  0.91904  Biso   1.000  Dy
  Dy6      1.0000 0.24321  0.31668  0.58096  Biso   1.000  Dy
  Dy7      1.0000 0.25679  0.81668  0.91904  Biso   1.000  Dy
  Dy8      1.0000 0.74321  0.81668  0.58096  Biso   1.000  Dy
  I1       1.0000 0.26763  0.39045  0.91113  Biso   1.000  I
  I2       1.0000 0.73237  0.39045  0.58887  Biso   1.000  I
  I3       1.0000 0.76763  0.89045  0.91113  Biso   1.000  I
  I4       1.0000 0.23237  0.89045  0.58887  Biso   1.000  I
  I5       1.0000 0.73237  0.60955  0.08887  Biso   1.000  I
  I6       1.0000 0.26763  0.60955  0.41113  Biso   1.000  I
  I7       1.0000 0.23237  0.10955  0.08887  Biso   1.000  I
  I8       1.0000 0.76763  0.10955  0.41113  Biso   1.000  I
  I9       1.0000 0.13667  0.26459  0.92286  Biso   1.000  I
  I10      1.0000 0.86333  0.26459  0.57714  Biso   1.000  I
  I11      1.0000 0.63667  0.76459  0.92286  Biso   1.000  I
  I12      1.0000 0.36333  0.76459  0.57714  Biso   1.000  I
  I13      1.0000 0.86333  0.73541  0.07714  Biso   1.000  I
  I14      1.0000 0.13667  0.73541  0.42286  Biso   1.000  I
  I15      1.0000 0.36333  0.23541  0.07714  Biso   1.000  I
  I16      1.0000 0.63667  0.23541  0.42286  Biso   1.000  I
  I17      1.0000 0.41854  0.40276  0.97591  Biso   1.000  I
  I18      1.0000 0.58146  0.40276  0.52409  Biso   1.000  I
  I19      1.0000 0.91854  0.90276  0.97591  Biso   1.000  I
  I20      1.0000 0.08146  0.90276  0.52409  Biso   1.000  I
  I21      1.0000 0.58146  0.59724  0.02409  Biso   1.000  I
  I22      1.0000 0.41854  0.59724  0.47591  Biso   1.000  I
  I23      1.0000 0.08146  0.09724  0.02409  Biso   1.000  I
  I24      1.0000 0.91854  0.09724  0.47591  Biso   1.000  I
  N1       1.0000 0.16160  0.57560  0.95100  Biso   1.000  N
  N2       1.0000 0.83840  0.57560  0.54900  Biso   1.000  N
  N3       1.0000 0.66160  0.07560  0.95100  Biso   1.000  N
  N4       1.0000 0.33840  0.07560  0.54900  Biso   1.000  N
  N5       1.0000 0.83840  0.42440  0.04900  Biso   1.000  N
  N6       1.0000 0.16160  0.42440  0.45100  Biso   1.000  N
  N7       1.0000 0.33840  0.92440  0.04900  Biso   1.000  N
  N8       1.0000 0.66160  0.92440  0.45100  Biso   1.000  N
  N9       1.0000 0.18562  0.52210  0.93360  Biso   1.000  N
  N10      1.0000 0.81438  0.52210  0.56640  Biso   1.000  N
  N11      1.0000 0.68562  0.02210  0.93360  Biso   1.000  N
  N12      1.0000 0.31438  0.02210  0.56640  Biso   1.000  N
  N13      1.0000 0.81438  0.47790  0.06640  Biso   1.000  N
  N14      1.0000 0.18562  0.47790  0.43360  Biso   1.000  N
  N15      1.0000 0.31438  0.97790  0.06640  Biso   1.000  N
  N16      1.0000 0.68562  0.97790  0.43360  Biso   1.000  N
  N17      1.0000 0.15240  0.46710  0.90700  Biso   1.000  N
  N18      1.0000 0.84760  0.46710  0.59300  Biso   1.000  N
  N19      1.0000 0.65240  0.96710  0.90700  Biso   1.000  N
  N20      1.0000 0.34760  0.96710  0.59300  Biso   1.000  N
  N21      1.0000 0.84760  0.53290  0.09300  Biso   1.000  N
  N22      1.0000 0.15240  0.53290  0.40700  Biso   1.000  N
  N23      1.0000 0.34760  0.03290  0.09300  Biso   1.000  N
  N24      1.0000 0.65240  0.03290  0.40700  Biso   1.000  N
  N25      1.0000 0.14943  0.34700  0.75310  Biso   1.000  N
  N26      1.0000 0.85057  0.34700  0.74690  Biso   1.000  N
  N27      1.0000 0.64943  0.84700  0.75310  Biso   1.000  N
  N28      1.0000 0.35057  0.84700  0.74690  Biso   1.000  N
  N29      1.0000 0.85057  0.65300  0.24690  Biso   1.000  N
  N30      1.0000 0.14943  0.65300  0.25310  Biso   1.000  N
  N31      1.0000 0.35057  0.15300  0.24690  Biso   1.000  N
  N32      1.0000 0.64943  0.15300  0.25310  Biso   1.000  N
  N33      1.0000 0.18228  0.33520  0.72260  Biso   1.000  N
  N34      1.0000 0.81772  0.33520  0.77740  Biso   1.000  N
  N35      1.0000 0.68228  0.83520  0.72260  Biso   1.000  N
  N36      1.0000 0.31772  0.83520  0.77740  Biso   1.000  N
  N37      1.0000 0.81772  0.66480  0.27740  Biso   1.000  N
  N38      1.0000 0.18228  0.66480  0.22260  Biso   1.000  N
  N39      1.0000 0.31772  0.16480  0.27740  Biso   1.000  N
  N40      1.0000 0.68228  0.16480  0.22260  Biso   1.000  N
  N41      1.0000 0.15650  0.30300  0.65590  Biso   1.000  N
  N42      1.0000 0.84350  0.30300  0.84410  Biso   1.000  N
  N43      1.0000 0.65650  0.80300  0.65590  Biso   1.000  N
  N44      1.0000 0.34350  0.80300  0.84410  Biso   1.000  N
  N45      1.0000 0.84350  0.69700  0.34410  Biso   1.000  N
  N46      1.0000 0.15650  0.69700  0.15590  Biso   1.000  N
  N47      1.0000 0.34350  0.19700  0.34410  Biso   1.000  N
  N48      1.0000 0.65650  0.19700  0.15590  Biso   1.000  N
  N49      1.0000 0.33640  0.23680  0.85900  Biso   1.000  N
  N50      1.0000 0.66360  0.23680  0.64100  Biso   1.000  N
  N51      1.0000 0.83640  0.73680  0.85900  Biso   1.000  N
  N52      1.0000 0.16360  0.73680  0.64100  Biso   1.000  N
  N53      1.0000 0.66360  0.76320  0.14100  Biso   1.000  N
  N54      1.0000 0.33640  0.76320  0.35900  Biso   1.000  N
  N55      1.0000 0.16360  0.26320  0.14100  Biso   1.000  N
  N56      1.0000 0.83640  0.26320  0.35900  Biso   1.000  N
  N57      1.0000 0.30870  0.26620  0.79140  Biso   1.000  N
  N58      1.0000 0.69130  0.26620  0.70860  Biso   1.000  N
  N59      1.0000 0.80870  0.76620  0.79140  Biso   1.000  N
  N60      1.0000 0.19130  0.76620  0.70860  Biso   1.000  N
  N61      1.0000 0.69130  0.73380  0.20860  Biso   1.000  N
  N62      1.0000 0.30870  0.73380  0.29140  Biso   1.000  N
  N63      1.0000 0.19130  0.23380  0.20860  Biso   1.000  N
  N64      1.0000 0.80870  0.23380  0.29140  Biso   1.000  N
  N65      1.0000 0.30680  0.21850  0.73880  Biso   1.000  N
  N66      1.0000 0.69320  0.21850  0.76120  Biso   1.000  N
  N67      1.0000 0.80680  0.71850  0.73880  Biso   1.000  N
  N68      1.0000 0.19320  0.71850  0.76120  Biso   1.000  N
  N69      1.0000 0.69320  0.78150  0.26120  Biso   1.000  N
  N70      1.0000 0.30680  0.78150  0.23880  Biso   1.000  N
  N71      1.0000 0.19320  0.28150  0.26120  Biso   1.000  N
  N72      1.0000 0.80680  0.28150  0.23880  Biso   1.000  N
  N73      1.0000 0.35020  0.45340  0.10270  Biso   1.000  N
  N74      1.0000 0.64980  0.45340  0.39730  Biso   1.000  N
  N75      1.0000 0.85020  0.95340  0.10270  Biso   1.000  N
  N76      1.0000 0.14980  0.95340  0.39730  Biso   1.000  N
  N77      1.0000 0.64980  0.54660  0.89730  Biso   1.000  N
  N78      1.0000 0.35020  0.54660  0.60270  Biso   1.000  N
  N79      1.0000 0.14980  0.04660  0.89730  Biso   1.000  N
  N80      1.0000 0.85020  0.04660  0.60270  Biso   1.000  N
  N81      1.0000 0.32112  0.51260  0.07890  Biso   1.000  N
  N82      1.0000 0.67888  0.51260  0.42110  Biso   1.000  N
  N83      1.0000 0.82112  0.01260  0.07890  Biso   1.000  N
  N84      1.0000 0.17888  0.01260  0.42110  Biso   1.000  N
  N85      1.0000 0.67888  0.48740  0.92110  Biso   1.000  N
  N86      1.0000 0.32112  0.48740  0.57890  Biso   1.000  N
  N87      1.0000 0.17888  0.98740  0.92110  Biso   1.000  N
  N88      1.0000 0.82112  0.98740  0.57890  Biso   1.000  N
  N89      1.0000 0.33842  0.55950  0.13650  Biso   1.000  N
  N90      1.0000 0.66158  0.55950  0.36350  Biso   1.000  N
  N91      1.0000 0.83842  0.05950  0.13650  Biso   1.000  N
  N92      1.0000 0.16158  0.05950  0.36350  Biso   1.000  N
  N93      1.0000 0.66158  0.44050  0.86350  Biso   1.000  N
  N94      1.0000 0.33842  0.44050  0.63650  Biso   1.000  N
  N95      1.0000 0.16158  0.94050  0.86350  Biso   1.000  N
  N96      1.0000 0.83842  0.94050  0.63650  Biso   1.000  N
  N97      1.0000 0.34894  0.57860  0.95310  Biso   1.000  N
  N98      1.0000 0.65106  0.57860  0.54690  Biso   1.000  N
  N99      1.0000 0.84894  0.07860  0.95310  Biso   1.000  N
  N100     1.0000 0.15106  0.07860  0.54690  Biso   1.000  N
  N101     1.0000 0.65106  0.42140  0.04690  Biso   1.000  N
  N102     1.0000 0.34894  0.42140  0.45310  Biso   1.000  N
  N103     1.0000 0.15106  0.92140  0.04690  Biso   1.000  N
  N104     1.0000 0.84894  0.92140  0.45310  Biso   1.000  N
  N105     1.0000 0.30545  0.60920  0.94620  Biso   1.000  N
  N106     1.0000 0.69455  0.60920  0.55380  Biso   1.000  N
  N107     1.0000 0.80545  0.10920  0.94620  Biso   1.000  N
  N108     1.0000 0.19455  0.10920  0.55380  Biso   1.000  N
  N109     1.0000 0.69455  0.39080  0.05380  Biso   1.000  N
  N110     1.0000 0.30545  0.39080  0.44620  Biso   1.000  N
  N111     1.0000 0.19455  0.89080  0.05380  Biso   1.000  N
  N112     1.0000 0.80545  0.89080  0.44620  Biso   1.000  N
  N113     1.0000 0.31828  0.66610  0.99200  Biso   1.000  N
  N114     1.0000 0.68172  0.66610  0.50800  Biso   1.000  N
  N115     1.0000 0.81828  0.16610  0.99200  Biso   1.000  N
  N116     1.0000 0.18172  0.16610  0.50800  Biso   1.000  N
  N117     1.0000 0.68172  0.33390  0.00800  Biso   1.000  N
  N118     1.0000 0.31828  0.33390  0.49200  Biso   1.000  N
  N119     1.0000 0.18172  0.83390  0.00800  Biso   1.000  N
  N120     1.0000 0.81828  0.83390  0.49200  Biso   1.000  N
  N121     1.0000 0.30040  0.49970  0.78250  Biso   1.000  N
  N122     1.0000 0.69960  0.49970  0.71750  Biso   1.000  N
  N123     1.0000 0.80040  0.99970  0.78250  Biso   1.000  N
  N124     1.0000 0.19960  0.99970  0.71750  Biso   1.000  N
  N125     1.0000 0.69960  0.50030  0.21750  Biso   1.000  N
  N126     1.0000 0.30040  0.50030  0.28250  Biso   1.000  N
  N127     1.0000 0.19960  0.00030  0.21750  Biso   1.000  N
  N128     1.0000 0.80040  0.00030  0.28250  Biso   1.000  N
  N129     1.0000 0.27340  0.44500  0.73980  Biso   1.000  N
  N130     1.0000 0.72660  0.44500  0.76020  Biso   1.000  N
  N131     1.0000 0.77340  0.94500  0.73980  Biso   1.000  N
  N132     1.0000 0.22660  0.94500  0.76020  Biso   1.000  N
  N133     1.0000 0.72660  0.55500  0.26020  Biso   1.000  N
  N134     1.0000 0.27340  0.55500  0.23980  Biso   1.000  N
  N135     1.0000 0.22660  0.05500  0.26020  Biso   1.000  N
  N136     1.0000 0.77340  0.05500  0.23980  Biso   1.000  N
  N137     1.0000 0.24728  0.46890  0.66990  Biso   1.000  N
  N138     1.0000 0.75272  0.46890  0.83010  Biso   1.000  N
  N139     1.0000 0.74728  0.96890  0.66990  Biso   1.000  N
  N140     1.0000 0.25272  0.96890  0.83010  Biso   1.000  N
  N141     1.0000 0.75272  0.53110  0.33010  Biso   1.000  N
  N142     1.0000 0.24728  0.53110  0.16990  Biso   1.000  N
  N143     1.0000 0.25272  0.03110  0.33010  Biso   1.000  N
  N144     1.0000 0.74728  0.03110  0.16990  Biso   1.000  N
  O1       1.0000 0.18361  0.63825  0.97170  Biso   1.000  O
  O2       1.0000 0.81639  0.63825  0.52830  Biso   1.000  O
  O3       1.0000 0.68361  0.13825  0.97170  Biso   1.000  O
  O4       1.0000 0.31639  0.13825  0.52830  Biso   1.000  O
  O5       1.0000 0.81639  0.36175  0.02830  Biso   1.000  O
  O6       1.0000 0.18361  0.36175  0.47170  Biso   1.000  O
  O7       1.0000 0.31639  0.86175  0.02830  Biso   1.000  O
  O8       1.0000 0.68361  0.86175  0.47170  Biso   1.000  O
  O9       1.0000 0.17919  0.28150  0.61350  Biso   1.000  O
  O10      1.0000 0.82081  0.28150  0.88650  Biso   1.000  O
  O11      1.0000 0.67919  0.78150  0.61350  Biso   1.000  O
  O12      1.0000 0.32081  0.78150  0.88650  Biso   1.000  O
  O13      1.0000 0.82081  0.71850  0.38650  Biso   1.000  O
  O14      1.0000 0.17919  0.71850  0.11350  Biso   1.000  O
  O15      1.0000 0.32081  0.21850  0.38650  Biso   1.000  O
  O16      1.0000 0.67919  0.21850  0.11350  Biso   1.000  O
  O17      1.0000 0.28470  0.23330  0.66740  Biso   1.000  O
  O18      1.0000 0.71530  0.23330  0.83260  Biso   1.000  O
  O19      1.0000 0.78470  0.73330  0.66740  Biso   1.000  O
  O20      1.0000 0.21530  0.73330  0.83260  Biso   1.000  O
  O21      1.0000 0.71530  0.76670  0.33260  Biso   1.000  O
  O22      1.0000 0.28470  0.76670  0.16740  Biso   1.000  O
  O23      1.0000 0.21530  0.26670  0.33260  Biso   1.000  O
  O24      1.0000 0.78470  0.26670  0.16740  Biso   1.000  O
  O25      1.0000 0.31761  0.62350  0.13070  Biso   1.000  O
  O26      1.0000 0.68239  0.62350  0.36930  Biso   1.000  O
  O27      1.0000 0.81761  0.12350  0.13070  Biso   1.000  O
  O28      1.0000 0.18239  0.12350  0.36930  Biso   1.000  O
  O29      1.0000 0.68239  0.37650  0.86930  Biso   1.000  O
  O30      1.0000 0.31761  0.37650  0.63070  Biso   1.000  O
  O31      1.0000 0.18239  0.87650  0.86930  Biso   1.000  O
  O32      1.0000 0.81761  0.87650  0.63070  Biso   1.000  O
  O33      1.0000 0.28228  0.70936  0.99620  Biso   1.000  O
  O34      1.0000 0.71772  0.70936  0.50380  Biso   1.000  O
  O35      1.0000 0.78228  0.20936  0.99620  Biso   1.000  O
  O36      1.0000 0.21772  0.20936  0.50380  Biso   1.000  O
  O37      1.0000 0.71772  0.29064  0.00380  Biso   1.000  O
  O38      1.0000 0.28228  0.29064  0.49620  Biso   1.000  O
  O39      1.0000 0.21772  0.79064  0.00380  Biso   1.000  O
  O40      1.0000 0.78228  0.79064  0.49620  Biso   1.000  O
  O41      1.0000 0.21852  0.42470  0.61480  Biso   1.000  O
  O42      1.0000 0.78148  0.42470  0.88520  Biso   1.000  O
  O43      1.0000 0.71852  0.92470  0.61480  Biso   1.000  O
  O44      1.0000 0.28148  0.92470  0.88520  Biso   1.000  O
  O45      1.0000 0.78148  0.57530  0.38520  Biso   1.000  O
  O46      1.0000 0.21852  0.57530  0.11480  Biso   1.000  O
  O47      1.0000 0.28148  0.07530  0.38520  Biso   1.000  O
  O48      1.0000 0.71852  0.07530  0.11480  Biso   1.000  O
