data_image0
_cell_length_a       14.1357
_cell_length_b       14.1357
_cell_length_c       61.316
_cell_angle_alpha    90
_cell_angle_beta     90
_cell_angle_gamma    120

_symmetry_space_group_name_H-M    "P 1"
_symmetry_int_tables_number       1

loop_
  _symmetry_equiv_pos_as_xyz
  'x, y, z'

loop_
  _atom_site_label
  _atom_site_occupancy
  _atom_site_fract_x
  _atom_site_fract_y
  _atom_site_fract_z
  _atom_site_thermal_displace_type
  _atom_site_B_iso_or_equiv
  _atom_site_type_symbol
  Ru1      1.0000 0.33330  0.66670  0.22996  Biso   1.000  Ru
  Ru2      1.0000 0.66670  0.33330  0.27004  Biso   1.000  Ru
  Ru3      1.0000 0.99997  0.00003  0.56330  Biso   1.000  Ru
  Ru4      1.0000 0.33337  0.66663  0.60337  Biso   1.000  Ru
  Ru5      1.0000 0.66663  0.33337  0.89663  Biso   1.000  Ru
  Ru6      1.0000 0.00003  0.99997  0.93670  Biso   1.000  Ru
  Ru7      1.0000 0.66670  0.33330  0.77004  Biso   1.000  Ru
  Ru8      1.0000 0.33330  0.66670  0.72996  Biso   1.000  Ru
  Ru9      1.0000 0.33337  0.66663  0.10337  Biso   1.000  Ru
  Ru10     1.0000 0.99997  0.00003  0.06330  Biso   1.000  Ru
  Ru11     1.0000 0.00003  0.99997  0.43670  Biso   1.000  Ru
  Ru12     1.0000 0.66663  0.33337  0.39663  Biso   1.000  Ru
  N1       1.0000 0.26970  0.74860  0.24638  Biso   1.000  N
  N2       1.0000 0.25140  0.52110  0.24638  Biso   1.000  N
  N3       1.0000 0.47890  0.73030  0.24638  Biso   1.000  N
  N4       1.0000 0.74860  0.26970  0.25362  Biso   1.000  N
  N5       1.0000 0.52110  0.25140  0.25362  Biso   1.000  N
  N6       1.0000 0.73030  0.47890  0.25362  Biso   1.000  N
  N7       1.0000 0.93637  0.08193  0.57971  Biso   1.000  N
  N8       1.0000 0.91807  0.85443  0.57971  Biso   1.000  N
  N9       1.0000 0.14557  0.06363  0.57971  Biso   1.000  N
  N10      1.0000 0.41527  0.60303  0.58695  Biso   1.000  N
  N11      1.0000 0.18777  0.58473  0.58695  Biso   1.000  N
  N12      1.0000 0.39697  0.81223  0.58695  Biso   1.000  N
  N13      1.0000 0.60303  0.41527  0.91305  Biso   1.000  N
  N14      1.0000 0.58473  0.18777  0.91305  Biso   1.000  N
  N15      1.0000 0.81223  0.39697  0.91305  Biso   1.000  N
  N16      1.0000 0.08193  0.93637  0.92029  Biso   1.000  N
  N17      1.0000 0.85443  0.91807  0.92029  Biso   1.000  N
  N18      1.0000 0.06363  0.14557  0.92029  Biso   1.000  N
  N19      1.0000 0.73030  0.25140  0.75362  Biso   1.000  N
  N20      1.0000 0.74860  0.47890  0.75362  Biso   1.000  N
  N21      1.0000 0.52110  0.26970  0.75362  Biso   1.000  N
  N22      1.0000 0.25140  0.73030  0.74638  Biso   1.000  N
  N23      1.0000 0.47890  0.74860  0.74638  Biso   1.000  N
  N24      1.0000 0.26970  0.52110  0.74638  Biso   1.000  N
  N25      1.0000 0.39697  0.58473  0.08695  Biso   1.000  N
  N26      1.0000 0.41527  0.81223  0.08695  Biso   1.000  N
  N27      1.0000 0.18777  0.60303  0.08695  Biso   1.000  N
  N28      1.0000 0.91807  0.06363  0.07971  Biso   1.000  N
  N29      1.0000 0.14557  0.08193  0.07971  Biso   1.000  N
  N30      1.0000 0.93637  0.85443  0.07971  Biso   1.000  N
  N31      1.0000 0.06363  0.91807  0.42029  Biso   1.000  N
  N32      1.0000 0.08193  0.14557  0.42029  Biso   1.000  N
  N33      1.0000 0.85443  0.93637  0.42029  Biso   1.000  N
  N34      1.0000 0.58473  0.39697  0.41305  Biso   1.000  N
  N35      1.0000 0.81223  0.41527  0.41305  Biso   1.000  N
  N36      1.0000 0.60303  0.18777  0.41305  Biso   1.000  N
  N37      1.0000 0.19060  0.61600  0.21305  Biso   1.000  N
  N38      1.0000 0.38400  0.57460  0.21305  Biso   1.000  N
  N39      1.0000 0.42540  0.80940  0.21305  Biso   1.000  N
  N40      1.0000 0.61600  0.19060  0.28695  Biso   1.000  N
  N41      1.0000 0.57460  0.38400  0.28695  Biso   1.000  N
  N42      1.0000 0.80940  0.42540  0.28695  Biso   1.000  N
  N43      1.0000 0.85727  0.94933  0.54638  Biso   1.000  N
  N44      1.0000 0.05067  0.90793  0.54638  Biso   1.000  N
  N45      1.0000 0.09207  0.14273  0.54638  Biso   1.000  N
  N46      1.0000 0.28267  0.52393  0.62028  Biso   1.000  N
  N47      1.0000 0.24127  0.71733  0.62028  Biso   1.000  N
  N48      1.0000 0.47607  0.75873  0.62028  Biso   1.000  N
  N49      1.0000 0.52393  0.28267  0.87972  Biso   1.000  N
  N50      1.0000 0.71733  0.24127  0.87972  Biso   1.000  N
  N51      1.0000 0.75873  0.47607  0.87972  Biso   1.000  N
  N52      1.0000 0.94933  0.85727  0.95362  Biso   1.000  N
  N53      1.0000 0.90793  0.05067  0.95362  Biso   1.000  N
  N54      1.0000 0.14273  0.09207  0.95362  Biso   1.000  N
  N55      1.0000 0.80940  0.38400  0.78695  Biso   1.000  N
  N56      1.0000 0.61600  0.42540  0.78695  Biso   1.000  N
  N57      1.0000 0.57460  0.19060  0.78695  Biso   1.000  N
  N58      1.0000 0.38400  0.80940  0.71305  Biso   1.000  N
  N59      1.0000 0.42540  0.61600  0.71305  Biso   1.000  N
  N60      1.0000 0.19060  0.57460  0.71305  Biso   1.000  N
  N61      1.0000 0.47607  0.71733  0.12028  Biso   1.000  N
  N62      1.0000 0.28267  0.75873  0.12028  Biso   1.000  N
  N63      1.0000 0.24127  0.52393  0.12028  Biso   1.000  N
  N64      1.0000 0.05067  0.14273  0.04638  Biso   1.000  N
  N65      1.0000 0.09207  0.94933  0.04638  Biso   1.000  N
  N66      1.0000 0.85727  0.90793  0.04638  Biso   1.000  N
  N67      1.0000 0.14273  0.05067  0.45362  Biso   1.000  N
  N68      1.0000 0.94933  0.09207  0.45362  Biso   1.000  N
  N69      1.0000 0.90793  0.85727  0.45362  Biso   1.000  N
  N70      1.0000 0.71733  0.47607  0.37972  Biso   1.000  N
  N71      1.0000 0.75873  0.28267  0.37972  Biso   1.000  N
  N72      1.0000 0.52393  0.24127  0.37972  Biso   1.000  N
  C1       1.0000 0.31530  0.81520  0.26362  Biso   1.000  C
  C2       1.0000 0.18480  0.50010  0.26362  Biso   1.000  C
  C3       1.0000 0.49990  0.68470  0.26362  Biso   1.000  C
  C4       1.0000 0.81520  0.31530  0.23638  Biso   1.000  C
  C5       1.0000 0.50010  0.18480  0.23638  Biso   1.000  C
  C6       1.0000 0.68470  0.49990  0.23638  Biso   1.000  C
  C7       1.0000 0.98197  0.14853  0.59695  Biso   1.000  C
  C8       1.0000 0.85147  0.83343  0.59695  Biso   1.000  C
  C9       1.0000 0.16657  0.01803  0.59695  Biso   1.000  C
  C10      1.0000 0.48187  0.64863  0.56971  Biso   1.000  C
  C11      1.0000 0.16677  0.51813  0.56971  Biso   1.000  C
  C12      1.0000 0.35137  0.83323  0.56971  Biso   1.000  C
  C13      1.0000 0.64863  0.48187  0.93029  Biso   1.000  C
  C14      1.0000 0.51813  0.16677  0.93029  Biso   1.000  C
  C15      1.0000 0.83323  0.35137  0.93029  Biso   1.000  C
  C16      1.0000 0.14853  0.98197  0.90305  Biso   1.000  C
  C17      1.0000 0.83343  0.85147  0.90305  Biso   1.000  C
  C18      1.0000 0.01803  0.16657  0.90305  Biso   1.000  C
  C19      1.0000 0.68470  0.18480  0.73638  Biso   1.000  C
  C20      1.0000 0.81520  0.49990  0.73638  Biso   1.000  C
  C21      1.0000 0.50010  0.31530  0.73638  Biso   1.000  C
  C22      1.0000 0.18480  0.68470  0.76362  Biso   1.000  C
  C23      1.0000 0.49990  0.81520  0.76362  Biso   1.000  C
  C24      1.0000 0.31530  0.50010  0.76362  Biso   1.000  C
  C25      1.0000 0.35137  0.51813  0.06971  Biso   1.000  C
  C26      1.0000 0.48187  0.83323  0.06971  Biso   1.000  C
  C27      1.0000 0.16677  0.64863  0.06971  Biso   1.000  C
  C28      1.0000 0.85147  0.01803  0.09695  Biso   1.000  C
  C29      1.0000 0.16657  0.14853  0.09695  Biso   1.000  C
  C30      1.0000 0.98197  0.83343  0.09695  Biso   1.000  C
  C31      1.0000 0.01803  0.85147  0.40305  Biso   1.000  C
  C32      1.0000 0.14853  0.16657  0.40305  Biso   1.000  C
  C33      1.0000 0.83343  0.98197  0.40305  Biso   1.000  C
  C34      1.0000 0.51813  0.35137  0.43029  Biso   1.000  C
  C35      1.0000 0.83323  0.48187  0.43029  Biso   1.000  C
  C36      1.0000 0.64863  0.16677  0.43029  Biso   1.000  C
  H1       1.0000 0.37720  0.81980  0.27000  Biso   1.000  H
  H2       1.0000 0.18020  0.55740  0.27000  Biso   1.000  H
  H3       1.0000 0.44260  0.62280  0.27000  Biso   1.000  H
  H4       1.0000 0.81980  0.37720  0.23000  Biso   1.000  H
  H5       1.0000 0.55740  0.18020  0.23000  Biso   1.000  H
  H6       1.0000 0.62280  0.44260  0.23000  Biso   1.000  H
  H7       1.0000 0.04387  0.15313  0.60333  Biso   1.000  H
  H8       1.0000 0.84687  0.89073  0.60333  Biso   1.000  H
  H9       1.0000 0.10927  0.95613  0.60333  Biso   1.000  H
  H10      1.0000 0.48647  0.71053  0.56333  Biso   1.000  H
  H11      1.0000 0.22407  0.51353  0.56333  Biso   1.000  H
  H12      1.0000 0.28947  0.77593  0.56333  Biso   1.000  H
  H13      1.0000 0.71053  0.48647  0.93667  Biso   1.000  H
  H14      1.0000 0.51353  0.22407  0.93667  Biso   1.000  H
  H15      1.0000 0.77593  0.28947  0.93667  Biso   1.000  H
  H16      1.0000 0.15313  0.04387  0.89667  Biso   1.000  H
  H17      1.0000 0.89073  0.84687  0.89667  Biso   1.000  H
  H18      1.0000 0.95613  0.10927  0.89667  Biso   1.000  H
  H19      1.0000 0.62280  0.18020  0.73000  Biso   1.000  H
  H20      1.0000 0.81980  0.44260  0.73000  Biso   1.000  H
  H21      1.0000 0.55740  0.37720  0.73000  Biso   1.000  H
  H22      1.0000 0.18020  0.62280  0.77000  Biso   1.000  H
  H23      1.0000 0.44260  0.81980  0.77000  Biso   1.000  H
  H24      1.0000 0.37720  0.55740  0.77000  Biso   1.000  H
  H25      1.0000 0.28947  0.51353  0.06333  Biso   1.000  H
  H26      1.0000 0.48647  0.77593  0.06333  Biso   1.000  H
  H27      1.0000 0.22407  0.71053  0.06333  Biso   1.000  H
  H28      1.0000 0.84687  0.95613  0.10333  Biso   1.000  H
  H29      1.0000 0.10927  0.15313  0.10333  Biso   1.000  H
  H30      1.0000 0.04387  0.89073  0.10333  Biso   1.000  H
  H31      1.0000 0.95613  0.84687  0.39667  Biso   1.000  H
  H32      1.0000 0.15313  0.10927  0.39667  Biso   1.000  H
  H33      1.0000 0.89073  0.04387  0.39667  Biso   1.000  H
  H34      1.0000 0.51353  0.28947  0.43667  Biso   1.000  H
  H35      1.0000 0.77593  0.48647  0.43667  Biso   1.000  H
  H36      1.0000 0.71053  0.22407  0.43667  Biso   1.000  H
  C37      1.0000 0.05110  0.50750  0.18739  Biso   1.000  C
  C38      1.0000 0.49250  0.54360  0.18739  Biso   1.000  C
  C39      1.0000 0.45640  0.94890  0.18739  Biso   1.000  C
  C40      1.0000 0.50750  0.05110  0.31261  Biso   1.000  C
  C41      1.0000 0.54360  0.49250  0.31261  Biso   1.000  C
  C42      1.0000 0.94890  0.45640  0.31261  Biso   1.000  C
  C43      1.0000 0.71777  0.84083  0.52072  Biso   1.000  C
  C44      1.0000 0.15917  0.87693  0.52072  Biso   1.000  C
  C45      1.0000 0.12307  0.28223  0.52072  Biso   1.000  C
  C46      1.0000 0.17417  0.38443  0.64594  Biso   1.000  C
  C47      1.0000 0.21027  0.82583  0.64594  Biso   1.000  C
  C48      1.0000 0.61557  0.78973  0.64594  Biso   1.000  C
  C49      1.0000 0.38443  0.17417  0.85406  Biso   1.000  C
  C50      1.0000 0.82583  0.21027  0.85406  Biso   1.000  C
  C51      1.0000 0.78973  0.61557  0.85406  Biso   1.000  C
  C52      1.0000 0.84083  0.71777  0.97928  Biso   1.000  C
  C53      1.0000 0.87693  0.15917  0.97928  Biso   1.000  C
  C54      1.0000 0.28223  0.12307  0.97928  Biso   1.000  C
  C55      1.0000 0.94890  0.49250  0.81261  Biso   1.000  C
  C56      1.0000 0.50750  0.45640  0.81261  Biso   1.000  C
  C57      1.0000 0.54360  0.05110  0.81261  Biso   1.000  C
  C58      1.0000 0.49250  0.94890  0.68739  Biso   1.000  C
  C59      1.0000 0.45640  0.50750  0.68739  Biso   1.000  C
  C60      1.0000 0.05110  0.54360  0.68739  Biso   1.000  C
  C61      1.0000 0.61557  0.82583  0.14594  Biso   1.000  C
  C62      1.0000 0.17417  0.78973  0.14594  Biso   1.000  C
  C63      1.0000 0.21027  0.38443  0.14594  Biso   1.000  C
  C64      1.0000 0.15917  0.28223  0.02072  Biso   1.000  C
  C65      1.0000 0.12307  0.84083  0.02072  Biso   1.000  C
  C66      1.0000 0.71777  0.87693  0.02072  Biso   1.000  C
  C67      1.0000 0.28223  0.15917  0.47928  Biso   1.000  C
  C68      1.0000 0.84083  0.12307  0.47928  Biso   1.000  C
  C69      1.0000 0.87693  0.71777  0.47928  Biso   1.000  C
  C70      1.0000 0.82583  0.61557  0.35406  Biso   1.000  C
  C71      1.0000 0.78973  0.17417  0.35406  Biso   1.000  C
  C72      1.0000 0.38443  0.21027  0.35406  Biso   1.000  C
  H37      1.0000 0.02520  0.45390  0.17660  Biso   1.000  H
  H38      1.0000 0.54610  0.57130  0.17660  Biso   1.000  H
  H39      1.0000 0.42870  0.97480  0.17660  Biso   1.000  H
  H40      1.0000 0.45390  0.02520  0.32340  Biso   1.000  H
  H41      1.0000 0.57130  0.54610  0.32340  Biso   1.000  H
  H42      1.0000 0.97480  0.42870  0.32340  Biso   1.000  H
  H43      1.0000 0.69187  0.78723  0.50993  Biso   1.000  H
  H44      1.0000 0.21277  0.90463  0.50993  Biso   1.000  H
  H45      1.0000 0.09537  0.30813  0.50993  Biso   1.000  H
  H46      1.0000 0.12057  0.35853  0.65673  Biso   1.000  H
  H47      1.0000 0.23797  0.87943  0.65673  Biso   1.000  H
  H48      1.0000 0.64147  0.76203  0.65673  Biso   1.000  H
  H49      1.0000 0.35853  0.12057  0.84327  Biso   1.000  H
  H50      1.0000 0.87943  0.23797  0.84327  Biso   1.000  H
  H51      1.0000 0.76203  0.64147  0.84327  Biso   1.000  H
  H52      1.0000 0.78723  0.69187  0.99007  Biso   1.000  H
  H53      1.0000 0.90463  0.21277  0.99007  Biso   1.000  H
  H54      1.0000 0.30813  0.09537  0.99007  Biso   1.000  H
  H55      1.0000 0.97480  0.54610  0.82340  Biso   1.000  H
  H56      1.0000 0.45390  0.42870  0.82340  Biso   1.000  H
  H57      1.0000 0.57130  0.02520  0.82340  Biso   1.000  H
  H58      1.0000 0.54610  0.97480  0.67660  Biso   1.000  H
  H59      1.0000 0.42870  0.45390  0.67660  Biso   1.000  H
  H60      1.0000 0.02520  0.57130  0.67660  Biso   1.000  H
  H61      1.0000 0.64147  0.87943  0.15673  Biso   1.000  H
  H62      1.0000 0.12057  0.76203  0.15673  Biso   1.000  H
  H63      1.0000 0.23797  0.35853  0.15673  Biso   1.000  H
  H64      1.0000 0.21277  0.30813  0.00993  Biso   1.000  H
  H65      1.0000 0.09537  0.78723  0.00993  Biso   1.000  H
  H66      1.0000 0.69187  0.90463  0.00993  Biso   1.000  H
  H67      1.0000 0.30813  0.21277  0.49007  Biso   1.000  H
  H68      1.0000 0.78723  0.09537  0.49007  Biso   1.000  H
  H69      1.0000 0.90463  0.69187  0.49007  Biso   1.000  H
  H70      1.0000 0.87943  0.64147  0.34327  Biso   1.000  H
  H71      1.0000 0.76203  0.12057  0.34327  Biso   1.000  H
  H72      1.0000 0.35853  0.23797  0.34327  Biso   1.000  H
  C73      1.0000 0.17760  0.74120  0.23749  Biso   1.000  C
  C74      1.0000 0.25880  0.43640  0.23749  Biso   1.000  C
  C75      1.0000 0.56360  0.82240  0.23749  Biso   1.000  C
  C76      1.0000 0.74120  0.17760  0.26251  Biso   1.000  C
  C77      1.0000 0.43640  0.25880  0.26251  Biso   1.000  C
  C78      1.0000 0.82240  0.56360  0.26251  Biso   1.000  C
  C79      1.0000 0.84427  0.07453  0.57082  Biso   1.000  C
  C80      1.0000 0.92547  0.76973  0.57082  Biso   1.000  C
  C81      1.0000 0.23027  0.15573  0.57082  Biso   1.000  C
  C82      1.0000 0.40787  0.51093  0.59584  Biso   1.000  C
  C83      1.0000 0.10307  0.59213  0.59584  Biso   1.000  C
  C84      1.0000 0.48907  0.89693  0.59584  Biso   1.000  C
  C85      1.0000 0.51093  0.40787  0.90416  Biso   1.000  C
  C86      1.0000 0.59213  0.10307  0.90416  Biso   1.000  C
  C87      1.0000 0.89693  0.48907  0.90416  Biso   1.000  C
  C88      1.0000 0.07453  0.84427  0.92918  Biso   1.000  C
  C89      1.0000 0.76973  0.92547  0.92918  Biso   1.000  C
  C90      1.0000 0.15573  0.23027  0.92918  Biso   1.000  C
  C91      1.0000 0.82240  0.25880  0.76251  Biso   1.000  C
  C92      1.0000 0.74120  0.56360  0.76251  Biso   1.000  C
  C93      1.0000 0.43640  0.17760  0.76251  Biso   1.000  C
  C94      1.0000 0.25880  0.82240  0.73749  Biso   1.000  C
  C95      1.0000 0.56360  0.74120  0.73749  Biso   1.000  C
  C96      1.0000 0.17760  0.43640  0.73749  Biso   1.000  C
  C97      1.0000 0.48907  0.59213  0.09584  Biso   1.000  C
  C98      1.0000 0.40787  0.89693  0.09584  Biso   1.000  C
  C99      1.0000 0.10307  0.51093  0.09584  Biso   1.000  C
  C100     1.0000 0.92547  0.15573  0.07082  Biso   1.000  C
  C101     1.0000 0.23027  0.07453  0.07082  Biso   1.000  C
  C102     1.0000 0.84427  0.76973  0.07082  Biso   1.000  C
  C103     1.0000 0.15573  0.92547  0.42918  Biso   1.000  C
  C104     1.0000 0.07453  0.23027  0.42918  Biso   1.000  C
  C105     1.0000 0.76973  0.84427  0.42918  Biso   1.000  C
  C106     1.0000 0.59213  0.48907  0.40416  Biso   1.000  C
  C107     1.0000 0.89693  0.40787  0.40416  Biso   1.000  C
  C108     1.0000 0.51093  0.10307  0.40416  Biso   1.000  C
  C109     1.0000 0.03090  0.63320  0.20964  Biso   1.000  C
  C110     1.0000 0.36680  0.39770  0.20964  Biso   1.000  C
  C111     1.0000 0.60230  0.96910  0.20964  Biso   1.000  C
  C112     1.0000 0.63320  0.03090  0.29036  Biso   1.000  C
  C113     1.0000 0.39770  0.36680  0.29036  Biso   1.000  C
  C114     1.0000 0.96910  0.60230  0.29036  Biso   1.000  C
  C115     1.0000 0.69757  0.96653  0.54297  Biso   1.000  C
  C116     1.0000 0.03347  0.73103  0.54297  Biso   1.000  C
  C117     1.0000 0.26897  0.30243  0.54297  Biso   1.000  C
  C118     1.0000 0.29987  0.36423  0.62369  Biso   1.000  C
  C119     1.0000 0.06437  0.70013  0.62369  Biso   1.000  C
  C120     1.0000 0.63577  0.93563  0.62369  Biso   1.000  C
  C121     1.0000 0.36423  0.29987  0.87631  Biso   1.000  C
  C122     1.0000 0.70013  0.06437  0.87631  Biso   1.000  C
  C123     1.0000 0.93563  0.63577  0.87631  Biso   1.000  C
  C124     1.0000 0.96653  0.69757  0.95703  Biso   1.000  C
  C125     1.0000 0.73103  0.03347  0.95703  Biso   1.000  C
  C126     1.0000 0.30243  0.26897  0.95703  Biso   1.000  C
  C127     1.0000 0.96910  0.36680  0.79036  Biso   1.000  C
  C128     1.0000 0.63320  0.60230  0.79036  Biso   1.000  C
  C129     1.0000 0.39770  0.03090  0.79036  Biso   1.000  C
  C130     1.0000 0.36680  0.96910  0.70964  Biso   1.000  C
  C131     1.0000 0.60230  0.63320  0.70964  Biso   1.000  C
  C132     1.0000 0.03090  0.39770  0.70964  Biso   1.000  C
  C133     1.0000 0.63577  0.70013  0.12369  Biso   1.000  C
  C134     1.0000 0.29987  0.93563  0.12369  Biso   1.000  C
  C135     1.0000 0.06437  0.36423  0.12369  Biso   1.000  C
  C136     1.0000 0.03347  0.30243  0.04297  Biso   1.000  C
  C137     1.0000 0.26897  0.96653  0.04297  Biso   1.000  C
  C138     1.0000 0.69757  0.73103  0.04297  Biso   1.000  C
  C139     1.0000 0.30243  0.03347  0.45703  Biso   1.000  C
  C140     1.0000 0.96653  0.26897  0.45703  Biso   1.000  C
  C141     1.0000 0.73103  0.69757  0.45703  Biso   1.000  C
  C142     1.0000 0.70013  0.63577  0.37631  Biso   1.000  C
  C143     1.0000 0.93563  0.29987  0.37631  Biso   1.000  C
  C144     1.0000 0.36423  0.06437  0.37631  Biso   1.000  C
  H73      1.0000 0.99110  0.66630  0.21390  Biso   1.000  H
  H74      1.0000 0.33370  0.32480  0.21390  Biso   1.000  H
  H75      1.0000 0.67520  0.00890  0.21390  Biso   1.000  H
  H76      1.0000 0.66630  0.99110  0.28610  Biso   1.000  H
  H77      1.0000 0.32480  0.33370  0.28610  Biso   1.000  H
  H78      1.0000 0.00890  0.67520  0.28610  Biso   1.000  H
  H79      1.0000 0.65777  0.99963  0.54723  Biso   1.000  H
  H80      1.0000 0.00037  0.65813  0.54723  Biso   1.000  H
  H81      1.0000 0.34187  0.34223  0.54723  Biso   1.000  H
  H82      1.0000 0.33297  0.32443  0.61943  Biso   1.000  H
  H83      1.0000 0.99147  0.66703  0.61943  Biso   1.000  H
  H84      1.0000 0.67557  0.00853  0.61943  Biso   1.000  H
  H85      1.0000 0.32443  0.33297  0.88057  Biso   1.000  H
  H86      1.0000 0.66703  0.99147  0.88057  Biso   1.000  H
  H87      1.0000 0.00853  0.67557  0.88057  Biso   1.000  H
  H88      1.0000 0.99963  0.65777  0.95277  Biso   1.000  H
  H89      1.0000 0.65813  0.00037  0.95277  Biso   1.000  H
  H90      1.0000 0.34223  0.34187  0.95277  Biso   1.000  H
  H91      1.0000 0.00890  0.33370  0.78610  Biso   1.000  H
  H92      1.0000 0.66630  0.67520  0.78610  Biso   1.000  H
  H93      1.0000 0.32480  0.99110  0.78610  Biso   1.000  H
  H94      1.0000 0.33370  0.00890  0.71390  Biso   1.000  H
  H95      1.0000 0.67520  0.66630  0.71390  Biso   1.000  H
  H96      1.0000 0.99110  0.32480  0.71390  Biso   1.000  H
  H97      1.0000 0.67557  0.66703  0.11943  Biso   1.000  H
  H98      1.0000 0.33297  0.00853  0.11943  Biso   1.000  H
  H99      1.0000 0.99147  0.32443  0.11943  Biso   1.000  H
  H100     1.0000 0.00037  0.34223  0.04723  Biso   1.000  H
  H101     1.0000 0.34187  0.99963  0.04723  Biso   1.000  H
  H102     1.0000 0.65777  0.65813  0.04723  Biso   1.000  H
  H103     1.0000 0.34223  0.00037  0.45277  Biso   1.000  H
  H104     1.0000 0.99963  0.34187  0.45277  Biso   1.000  H
  H105     1.0000 0.65813  0.65777  0.45277  Biso   1.000  H
  H106     1.0000 0.66703  0.67557  0.38057  Biso   1.000  H
  H107     1.0000 0.00853  0.33297  0.38057  Biso   1.000  H
  H108     1.0000 0.32443  0.99147  0.38057  Biso   1.000  H
  C145     1.0000 0.15040  0.54060  0.19735  Biso   1.000  C
  C146     1.0000 0.45940  0.60980  0.19735  Biso   1.000  C
  C147     1.0000 0.39020  0.84960  0.19735  Biso   1.000  C
  C148     1.0000 0.54060  0.15040  0.30265  Biso   1.000  C
  C149     1.0000 0.60980  0.45940  0.30265  Biso   1.000  C
  C150     1.0000 0.84960  0.39020  0.30265  Biso   1.000  C
  C151     1.0000 0.81707  0.87393  0.53068  Biso   1.000  C
  C152     1.0000 0.12607  0.94313  0.53068  Biso   1.000  C
  C153     1.0000 0.05687  0.18293  0.53068  Biso   1.000  C
  C154     1.0000 0.20727  0.48373  0.63598  Biso   1.000  C
  C155     1.0000 0.27647  0.79273  0.63598  Biso   1.000  C
  C156     1.0000 0.51627  0.72353  0.63598  Biso   1.000  C
  C157     1.0000 0.48373  0.20727  0.86402  Biso   1.000  C
  C158     1.0000 0.79273  0.27647  0.86402  Biso   1.000  C
  C159     1.0000 0.72353  0.51627  0.86402  Biso   1.000  C
  C160     1.0000 0.87393  0.81707  0.96932  Biso   1.000  C
  C161     1.0000 0.94313  0.12607  0.96932  Biso   1.000  C
  C162     1.0000 0.18293  0.05687  0.96932  Biso   1.000  C
  C163     1.0000 0.84960  0.45940  0.80265  Biso   1.000  C
  C164     1.0000 0.54060  0.39020  0.80265  Biso   1.000  C
  C165     1.0000 0.60980  0.15040  0.80265  Biso   1.000  C
  C166     1.0000 0.45940  0.84960  0.69735  Biso   1.000  C
  C167     1.0000 0.39020  0.54060  0.69735  Biso   1.000  C
  C168     1.0000 0.15040  0.60980  0.69735  Biso   1.000  C
  C169     1.0000 0.51627  0.79273  0.13598  Biso   1.000  C
  C170     1.0000 0.20727  0.72353  0.13598  Biso   1.000  C
  C171     1.0000 0.27647  0.48373  0.13598  Biso   1.000  C
  C172     1.0000 0.12607  0.18293  0.03068  Biso   1.000  C
  C173     1.0000 0.05687  0.87393  0.03068  Biso   1.000  C
  C174     1.0000 0.81707  0.94313  0.03068  Biso   1.000  C
  C175     1.0000 0.18293  0.12607  0.46932  Biso   1.000  C
  C176     1.0000 0.87393  0.05687  0.46932  Biso   1.000  C
  C177     1.0000 0.94313  0.81707  0.46932  Biso   1.000  C
  C178     1.0000 0.79273  0.51627  0.36402  Biso   1.000  C
  C179     1.0000 0.72353  0.20727  0.36402  Biso   1.000  C
  C180     1.0000 0.48373  0.27647  0.36402  Biso   1.000  C
  H109     1.0000 0.19110  0.50890  0.19290  Biso   1.000  H
  H110     1.0000 0.49110  0.68220  0.19290  Biso   1.000  H
  H111     1.0000 0.31780  0.80890  0.19290  Biso   1.000  H
  H112     1.0000 0.50890  0.19110  0.30710  Biso   1.000  H
  H113     1.0000 0.68220  0.49110  0.30710  Biso   1.000  H
  H114     1.0000 0.80890  0.31780  0.30710  Biso   1.000  H
  H115     1.0000 0.85777  0.84223  0.52623  Biso   1.000  H
  H116     1.0000 0.15777  0.01553  0.52623  Biso   1.000  H
  H117     1.0000 0.98447  0.14223  0.52623  Biso   1.000  H
  H118     1.0000 0.17557  0.52443  0.64043  Biso   1.000  H
  H119     1.0000 0.34887  0.82443  0.64043  Biso   1.000  H
  H120     1.0000 0.47557  0.65113  0.64043  Biso   1.000  H
  H121     1.0000 0.52443  0.17557  0.85957  Biso   1.000  H
  H122     1.0000 0.82443  0.34887  0.85957  Biso   1.000  H
  H123     1.0000 0.65113  0.47557  0.85957  Biso   1.000  H
  H124     1.0000 0.84223  0.85777  0.97377  Biso   1.000  H
  H125     1.0000 0.01553  0.15777  0.97377  Biso   1.000  H
  H126     1.0000 0.14223  0.98447  0.97377  Biso   1.000  H
  H127     1.0000 0.80890  0.49110  0.80710  Biso   1.000  H
  H128     1.0000 0.50890  0.31780  0.80710  Biso   1.000  H
  H129     1.0000 0.68220  0.19110  0.80710  Biso   1.000  H
  H130     1.0000 0.49110  0.80890  0.69290  Biso   1.000  H
  H131     1.0000 0.31780  0.50890  0.69290  Biso   1.000  H
  H132     1.0000 0.19110  0.68220  0.69290  Biso   1.000  H
  H133     1.0000 0.47557  0.82443  0.14043  Biso   1.000  H
  H134     1.0000 0.17557  0.65113  0.14043  Biso   1.000  H
  H135     1.0000 0.34887  0.52443  0.14043  Biso   1.000  H
  H136     1.0000 0.15777  0.14223  0.02623  Biso   1.000  H
  H137     1.0000 0.98447  0.84223  0.02623  Biso   1.000  H
  H138     1.0000 0.85777  0.01553  0.02623  Biso   1.000  H
  H139     1.0000 0.14223  0.15777  0.47377  Biso   1.000  H
  H140     1.0000 0.84223  0.98447  0.47377  Biso   1.000  H
  H141     1.0000 0.01553  0.85777  0.47377  Biso   1.000  H
  H142     1.0000 0.82443  0.47557  0.35957  Biso   1.000  H
  H143     1.0000 0.65113  0.17557  0.35957  Biso   1.000  H
  H144     1.0000 0.52443  0.34887  0.35957  Biso   1.000  H
  C181     1.0000 0.13040  0.66240  0.21944  Biso   1.000  C
  C182     1.0000 0.33760  0.46800  0.21944  Biso   1.000  C
  C183     1.0000 0.53200  0.86960  0.21944  Biso   1.000  C
  C184     1.0000 0.66240  0.13040  0.28056  Biso   1.000  C
  C185     1.0000 0.46800  0.33760  0.28056  Biso   1.000  C
  C186     1.0000 0.86960  0.53200  0.28056  Biso   1.000  C
  C187     1.0000 0.79707  0.99573  0.55277  Biso   1.000  C
  C188     1.0000 0.00427  0.80133  0.55277  Biso   1.000  C
  C189     1.0000 0.19867  0.20293  0.55277  Biso   1.000  C
  C190     1.0000 0.32907  0.46373  0.61389  Biso   1.000  C
  C191     1.0000 0.13467  0.67093  0.61389  Biso   1.000  C
  C192     1.0000 0.53627  0.86533  0.61389  Biso   1.000  C
  C193     1.0000 0.46373  0.32907  0.88611  Biso   1.000  C
  C194     1.0000 0.67093  0.13467  0.88611  Biso   1.000  C
  C195     1.0000 0.86533  0.53627  0.88611  Biso   1.000  C
  C196     1.0000 0.99573  0.79707  0.94723  Biso   1.000  C
  C197     1.0000 0.80133  0.00427  0.94723  Biso   1.000  C
  C198     1.0000 0.20293  0.19867  0.94723  Biso   1.000  C
  C199     1.0000 0.86960  0.33760  0.78056  Biso   1.000  C
  C200     1.0000 0.66240  0.53200  0.78056  Biso   1.000  C
  C201     1.0000 0.46800  0.13040  0.78056  Biso   1.000  C
  C202     1.0000 0.33760  0.86960  0.71944  Biso   1.000  C
  C203     1.0000 0.53200  0.66240  0.71944  Biso   1.000  C
  C204     1.0000 0.13040  0.46800  0.71944  Biso   1.000  C
  C205     1.0000 0.53627  0.67093  0.11389  Biso   1.000  C
  C206     1.0000 0.32907  0.86533  0.11389  Biso   1.000  C
  C207     1.0000 0.13467  0.46373  0.11389  Biso   1.000  C
  C208     1.0000 0.00427  0.20293  0.05277  Biso   1.000  C
  C209     1.0000 0.19867  0.99573  0.05277  Biso   1.000  C
  C210     1.0000 0.79707  0.80133  0.05277  Biso   1.000  C
  C211     1.0000 0.20293  0.00427  0.44723  Biso   1.000  C
  C212     1.0000 0.99573  0.19867  0.44723  Biso   1.000  C
  C213     1.0000 0.80133  0.79707  0.44723  Biso   1.000  C
  C214     1.0000 0.67093  0.53627  0.38611  Biso   1.000  C
  C215     1.0000 0.86533  0.32907  0.38611  Biso   1.000  C
  C216     1.0000 0.46373  0.13467  0.38611  Biso   1.000  C
  C217     1.0000 0.13670  0.80490  0.24518  Biso   1.000  C
  C218     1.0000 0.19510  0.33180  0.24518  Biso   1.000  C
  C219     1.0000 0.66820  0.86330  0.24518  Biso   1.000  C
  C220     1.0000 0.80490  0.13670  0.25482  Biso   1.000  C
  C221     1.0000 0.33180  0.19510  0.25482  Biso   1.000  C
  C222     1.0000 0.86330  0.66820  0.25482  Biso   1.000  C
  C223     1.0000 0.80337  0.13823  0.57851  Biso   1.000  C
  C224     1.0000 0.86177  0.66513  0.57851  Biso   1.000  C
  C225     1.0000 0.33487  0.19663  0.57851  Biso   1.000  C
  C226     1.0000 0.47157  0.47003  0.58815  Biso   1.000  C
  C227     1.0000 0.99847  0.52843  0.58815  Biso   1.000  C
  C228     1.0000 0.52997  0.00153  0.58815  Biso   1.000  C
  C229     1.0000 0.47003  0.47157  0.91185  Biso   1.000  C
  C230     1.0000 0.52843  0.99847  0.91185  Biso   1.000  C
  C231     1.0000 0.00153  0.52997  0.91185  Biso   1.000  C
  C232     1.0000 0.13823  0.80337  0.92149  Biso   1.000  C
  C233     1.0000 0.66513  0.86177  0.92149  Biso   1.000  C
  C234     1.0000 0.19663  0.33487  0.92149  Biso   1.000  C
  C235     1.0000 0.86330  0.19510  0.75482  Biso   1.000  C
  C236     1.0000 0.80490  0.66820  0.75482  Biso   1.000  C
  C237     1.0000 0.33180  0.13670  0.75482  Biso   1.000  C
  C238     1.0000 0.19510  0.86330  0.74518  Biso   1.000  C
  C239     1.0000 0.66820  0.80490  0.74518  Biso   1.000  C
  C240     1.0000 0.13670  0.33180  0.74518  Biso   1.000  C
  C241     1.0000 0.52997  0.52843  0.08815  Biso   1.000  C
  C242     1.0000 0.47157  0.00153  0.08815  Biso   1.000  C
  C243     1.0000 0.99847  0.47003  0.08815  Biso   1.000  C
  C244     1.0000 0.86177  0.19663  0.07851  Biso   1.000  C
  C245     1.0000 0.33487  0.13823  0.07851  Biso   1.000  C
  C246     1.0000 0.80337  0.66513  0.07851  Biso   1.000  C
  C247     1.0000 0.19663  0.86177  0.42149  Biso   1.000  C
  C248     1.0000 0.13823  0.33487  0.42149  Biso   1.000  C
  C249     1.0000 0.66513  0.80337  0.42149  Biso   1.000  C
  C250     1.0000 0.52843  0.52997  0.41185  Biso   1.000  C
  C251     1.0000 0.00153  0.47157  0.41185  Biso   1.000  C
  C252     1.0000 0.47003  0.99847  0.41185  Biso   1.000  C
  H145     1.0000 0.07640  0.80200  0.23850  Biso   1.000  H
  H146     1.0000 0.19800  0.27440  0.23850  Biso   1.000  H
  H147     1.0000 0.72560  0.92360  0.23850  Biso   1.000  H
  H148     1.0000 0.80200  0.07640  0.26150  Biso   1.000  H
  H149     1.0000 0.27440  0.19800  0.26150  Biso   1.000  H
  H150     1.0000 0.92360  0.72560  0.26150  Biso   1.000  H
  H151     1.0000 0.74307  0.13533  0.57183  Biso   1.000  H
  H152     1.0000 0.86467  0.60773  0.57183  Biso   1.000  H
  H153     1.0000 0.39227  0.25693  0.57183  Biso   1.000  H
  H154     1.0000 0.46867  0.40973  0.59483  Biso   1.000  H
  H155     1.0000 0.94107  0.53133  0.59483  Biso   1.000  H
  H156     1.0000 0.59027  0.05893  0.59483  Biso   1.000  H
  H157     1.0000 0.40973  0.46867  0.90517  Biso   1.000  H
  H158     1.0000 0.53133  0.94107  0.90517  Biso   1.000  H
  H159     1.0000 0.05893  0.59027  0.90517  Biso   1.000  H
  H160     1.0000 0.13533  0.74307  0.92817  Biso   1.000  H
  H161     1.0000 0.60773  0.86467  0.92817  Biso   1.000  H
  H162     1.0000 0.25693  0.39227  0.92817  Biso   1.000  H
  H163     1.0000 0.92360  0.19800  0.76150  Biso   1.000  H
  H164     1.0000 0.80200  0.72560  0.76150  Biso   1.000  H
  H165     1.0000 0.27440  0.07640  0.76150  Biso   1.000  H
  H166     1.0000 0.19800  0.92360  0.73850  Biso   1.000  H
  H167     1.0000 0.72560  0.80200  0.73850  Biso   1.000  H
  H168     1.0000 0.07640  0.27440  0.73850  Biso   1.000  H
  H169     1.0000 0.59027  0.53133  0.09483  Biso   1.000  H
  H170     1.0000 0.46867  0.05893  0.09483  Biso   1.000  H
  H171     1.0000 0.94107  0.40973  0.09483  Biso   1.000  H
  H172     1.0000 0.86467  0.25693  0.07183  Biso   1.000  H
  H173     1.0000 0.39227  0.13533  0.07183  Biso   1.000  H
  H174     1.0000 0.74307  0.60773  0.07183  Biso   1.000  H
  H175     1.0000 0.25693  0.86467  0.42817  Biso   1.000  H
  H176     1.0000 0.13533  0.39227  0.42817  Biso   1.000  H
  H177     1.0000 0.60773  0.74307  0.42817  Biso   1.000  H
  H178     1.0000 0.53133  0.59027  0.40517  Biso   1.000  H
  H179     1.0000 0.05893  0.46867  0.40517  Biso   1.000  H
  H180     1.0000 0.40973  0.94107  0.40517  Biso   1.000  H
  C253     1.0000 0.27300  0.87650  0.27215  Biso   1.000  C
  C254     1.0000 0.12350  0.39650  0.27215  Biso   1.000  C
  C255     1.0000 0.60350  0.72700  0.27215  Biso   1.000  C
  C256     1.0000 0.87650  0.27300  0.22785  Biso   1.000  C
  C257     1.0000 0.39650  0.12350  0.22785  Biso   1.000  C
  C258     1.0000 0.72700  0.60350  0.22785  Biso   1.000  C
  C259     1.0000 0.93967  0.20983  0.60548  Biso   1.000  C
  C260     1.0000 0.79017  0.72983  0.60548  Biso   1.000  C
  C261     1.0000 0.27017  0.06033  0.60548  Biso   1.000  C
  C262     1.0000 0.54317  0.60633  0.56118  Biso   1.000  C
  C263     1.0000 0.06317  0.45683  0.56118  Biso   1.000  C
  C264     1.0000 0.39367  0.93683  0.56118  Biso   1.000  C
  C265     1.0000 0.60633  0.54317  0.93882  Biso   1.000  C
  C266     1.0000 0.45683  0.06317  0.93882  Biso   1.000  C
  C267     1.0000 0.93683  0.39367  0.93882  Biso   1.000  C
  C268     1.0000 0.20983  0.93967  0.89452  Biso   1.000  C
  C269     1.0000 0.72983  0.79017  0.89452  Biso   1.000  C
  C270     1.0000 0.06033  0.27017  0.89452  Biso   1.000  C
  C271     1.0000 0.72700  0.12350  0.72785  Biso   1.000  C
  C272     1.0000 0.87650  0.60350  0.72785  Biso   1.000  C
  C273     1.0000 0.39650  0.27300  0.72785  Biso   1.000  C
  C274     1.0000 0.12350  0.72700  0.77215  Biso   1.000  C
  C275     1.0000 0.60350  0.87650  0.77215  Biso   1.000  C
  C276     1.0000 0.27300  0.39650  0.77215  Biso   1.000  C
  C277     1.0000 0.39367  0.45683  0.06118  Biso   1.000  C
  C278     1.0000 0.54317  0.93683  0.06118  Biso   1.000  C
  C279     1.0000 0.06317  0.60633  0.06118  Biso   1.000  C
  C280     1.0000 0.79017  0.06033  0.10548  Biso   1.000  C
  C281     1.0000 0.27017  0.20983  0.10548  Biso   1.000  C
  C282     1.0000 0.93967  0.72983  0.10548  Biso   1.000  C
  C283     1.0000 0.06033  0.79017  0.39452  Biso   1.000  C
  C284     1.0000 0.20983  0.27017  0.39452  Biso   1.000  C
  C285     1.0000 0.72983  0.93967  0.39452  Biso   1.000  C
  C286     1.0000 0.45683  0.39367  0.43882  Biso   1.000  C
  C287     1.0000 0.93683  0.54317  0.43882  Biso   1.000  C
  C288     1.0000 0.60633  0.06317  0.43882  Biso   1.000  C
  H181     1.0000 0.30510  0.92030  0.28430  Biso   1.000  H
  H182     1.0000 0.07970  0.38480  0.28430  Biso   1.000  H
  H183     1.0000 0.61520  0.69490  0.28430  Biso   1.000  H
  H184     1.0000 0.92030  0.30510  0.21570  Biso   1.000  H
  H185     1.0000 0.38480  0.07970  0.21570  Biso   1.000  H
  H186     1.0000 0.69490  0.61520  0.21570  Biso   1.000  H
  H187     1.0000 0.97177  0.25363  0.61763  Biso   1.000  H
  H188     1.0000 0.74637  0.71813  0.61763  Biso   1.000  H
  H189     1.0000 0.28187  0.02823  0.61763  Biso   1.000  H
  H190     1.0000 0.58697  0.63843  0.54903  Biso   1.000  H
  H191     1.0000 0.05147  0.41303  0.54903  Biso   1.000  H
  H192     1.0000 0.36157  0.94853  0.54903  Biso   1.000  H
  H193     1.0000 0.63843  0.58697  0.95097  Biso   1.000  H
  H194     1.0000 0.41303  0.05147  0.95097  Biso   1.000  H
  H195     1.0000 0.94853  0.36157  0.95097  Biso   1.000  H
  H196     1.0000 0.25363  0.97177  0.88237  Biso   1.000  H
  H197     1.0000 0.71813  0.74637  0.88237  Biso   1.000  H
  H198     1.0000 0.02823  0.28187  0.88237  Biso   1.000  H
  H199     1.0000 0.69490  0.07970  0.71570  Biso   1.000  H
  H200     1.0000 0.92030  0.61520  0.71570  Biso   1.000  H
  H201     1.0000 0.38480  0.30510  0.71570  Biso   1.000  H
  H202     1.0000 0.07970  0.69490  0.78430  Biso   1.000  H
  H203     1.0000 0.61520  0.92030  0.78430  Biso   1.000  H
  H204     1.0000 0.30510  0.38480  0.78430  Biso   1.000  H
  H205     1.0000 0.36157  0.41303  0.04903  Biso   1.000  H
  H206     1.0000 0.58697  0.94853  0.04903  Biso   1.000  H
  H207     1.0000 0.05147  0.63843  0.04903  Biso   1.000  H
  H208     1.0000 0.74637  0.02823  0.11763  Biso   1.000  H
  H209     1.0000 0.28187  0.25363  0.11763  Biso   1.000  H
  H210     1.0000 0.97177  0.71813  0.11763  Biso   1.000  H
  H211     1.0000 0.02823  0.74637  0.38237  Biso   1.000  H
  H212     1.0000 0.25363  0.28187  0.38237  Biso   1.000  H
  H213     1.0000 0.71813  0.97177  0.38237  Biso   1.000  H
  H214     1.0000 0.41303  0.36157  0.45097  Biso   1.000  H
  H215     1.0000 0.94853  0.58697  0.45097  Biso   1.000  H
  H216     1.0000 0.63843  0.05147  0.45097  Biso   1.000  H
  C289     1.0000 0.18430  0.87260  0.26268  Biso   1.000  C
  C290     1.0000 0.12740  0.31170  0.26268  Biso   1.000  C
  C291     1.0000 0.68830  0.81570  0.26268  Biso   1.000  C
  C292     1.0000 0.87260  0.18430  0.23732  Biso   1.000  C
  C293     1.0000 0.31170  0.12740  0.23732  Biso   1.000  C
  C294     1.0000 0.81570  0.68830  0.23732  Biso   1.000  C
  C295     1.0000 0.85097  0.20593  0.59601  Biso   1.000  C
  C296     1.0000 0.79407  0.64503  0.59601  Biso   1.000  C
  C297     1.0000 0.35497  0.14903  0.59601  Biso   1.000  C
  C298     1.0000 0.53927  0.51763  0.57065  Biso   1.000  C
  C299     1.0000 0.97837  0.46073  0.57065  Biso   1.000  C
  C300     1.0000 0.48237  0.02163  0.57065  Biso   1.000  C
  C301     1.0000 0.51763  0.53927  0.92935  Biso   1.000  C
  C302     1.0000 0.46073  0.97837  0.92935  Biso   1.000  C
  C303     1.0000 0.02163  0.48237  0.92935  Biso   1.000  C
  C304     1.0000 0.20593  0.85097  0.90399  Biso   1.000  C
  C305     1.0000 0.64503  0.79407  0.90399  Biso   1.000  C
  C306     1.0000 0.14903  0.35497  0.90399  Biso   1.000  C
  C307     1.0000 0.81570  0.12740  0.73732  Biso   1.000  C
  C308     1.0000 0.87260  0.68830  0.73732  Biso   1.000  C
  C309     1.0000 0.31170  0.18430  0.73732  Biso   1.000  C
  C310     1.0000 0.12740  0.81570  0.76268  Biso   1.000  C
  C311     1.0000 0.68830  0.87260  0.76268  Biso   1.000  C
  C312     1.0000 0.18430  0.31170  0.76268  Biso   1.000  C
  C313     1.0000 0.48237  0.46073  0.07065  Biso   1.000  C
  C314     1.0000 0.53927  0.02163  0.07065  Biso   1.000  C
  C315     1.0000 0.97837  0.51763  0.07065  Biso   1.000  C
  C316     1.0000 0.79407  0.14903  0.09601  Biso   1.000  C
  C317     1.0000 0.35497  0.20593  0.09601  Biso   1.000  C
  C318     1.0000 0.85097  0.64503  0.09601  Biso   1.000  C
  C319     1.0000 0.14903  0.79407  0.40399  Biso   1.000  C
  C320     1.0000 0.20593  0.35497  0.40399  Biso   1.000  C
  C321     1.0000 0.64503  0.85097  0.40399  Biso   1.000  C
  C322     1.0000 0.46073  0.48237  0.42935  Biso   1.000  C
  C323     1.0000 0.02163  0.53927  0.42935  Biso   1.000  C
  C324     1.0000 0.51763  0.97837  0.42935  Biso   1.000  C
  H217     1.0000 0.15630  0.91530  0.26800  Biso   1.000  H
  H218     1.0000 0.08470  0.24100  0.26800  Biso   1.000  H
  H219     1.0000 0.75900  0.84370  0.26800  Biso   1.000  H
  H220     1.0000 0.91530  0.15630  0.23200  Biso   1.000  H
  H221     1.0000 0.24100  0.08470  0.23200  Biso   1.000  H
  H222     1.0000 0.84370  0.75900  0.23200  Biso   1.000  H
  H223     1.0000 0.82297  0.24863  0.60133  Biso   1.000  H
  H224     1.0000 0.75137  0.57433  0.60133  Biso   1.000  H
  H225     1.0000 0.42567  0.17703  0.60133  Biso   1.000  H
  H226     1.0000 0.58197  0.48963  0.56533  Biso   1.000  H
  H227     1.0000 0.90767  0.41803  0.56533  Biso   1.000  H
  H228     1.0000 0.51037  0.09233  0.56533  Biso   1.000  H
  H229     1.0000 0.48963  0.58197  0.93467  Biso   1.000  H
  H230     1.0000 0.41803  0.90767  0.93467  Biso   1.000  H
  H231     1.0000 0.09233  0.51037  0.93467  Biso   1.000  H
  H232     1.0000 0.24863  0.82297  0.89867  Biso   1.000  H
  H233     1.0000 0.57433  0.75137  0.89867  Biso   1.000  H
  H234     1.0000 0.17703  0.42567  0.89867  Biso   1.000  H
  H235     1.0000 0.84370  0.08470  0.73200  Biso   1.000  H
  H236     1.0000 0.91530  0.75900  0.73200  Biso   1.000  H
  H237     1.0000 0.24100  0.15630  0.73200  Biso   1.000  H
  H238     1.0000 0.08470  0.84370  0.76800  Biso   1.000  H
  H239     1.0000 0.75900  0.91530  0.76800  Biso   1.000  H
  H240     1.0000 0.15630  0.24100  0.76800  Biso   1.000  H
  H241     1.0000 0.51037  0.41803  0.06533  Biso   1.000  H
  H242     1.0000 0.58197  0.09233  0.06533  Biso   1.000  H
  H243     1.0000 0.90767  0.48963  0.06533  Biso   1.000  H
  H244     1.0000 0.75137  0.17703  0.10133  Biso   1.000  H
  H245     1.0000 0.42567  0.24863  0.10133  Biso   1.000  H
  H246     1.0000 0.82297  0.57433  0.10133  Biso   1.000  H
  H247     1.0000 0.17703  0.75137  0.39867  Biso   1.000  H
  H248     1.0000 0.24863  0.42567  0.39867  Biso   1.000  H
  H249     1.0000 0.57433  0.82297  0.39867  Biso   1.000  H
  H250     1.0000 0.41803  0.51037  0.43467  Biso   1.000  H
  H251     1.0000 0.09233  0.58197  0.43467  Biso   1.000  H
  H252     1.0000 0.48963  0.90767  0.43467  Biso   1.000  H
  C325     1.0000 0.99190  0.55460  0.19355  Biso   1.000  C
  C326     1.0000 0.44540  0.43730  0.19355  Biso   1.000  C
  C327     1.0000 0.56270  0.00810  0.19355  Biso   1.000  C
  C328     1.0000 0.55460  0.99190  0.30645  Biso   1.000  C
  C329     1.0000 0.43730  0.44540  0.30645  Biso   1.000  C
  C330     1.0000 0.00810  0.56270  0.30645  Biso   1.000  C
  C331     1.0000 0.65857  0.88793  0.52688  Biso   1.000  C
  C332     1.0000 0.11207  0.77063  0.52688  Biso   1.000  C
  C333     1.0000 0.22937  0.34143  0.52688  Biso   1.000  C
  C334     1.0000 0.22127  0.32523  0.63978  Biso   1.000  C
  C335     1.0000 0.10397  0.77873  0.63978  Biso   1.000  C
  C336     1.0000 0.67477  0.89603  0.63978  Biso   1.000  C
  C337     1.0000 0.32523  0.22127  0.86022  Biso   1.000  C
  C338     1.0000 0.77873  0.10397  0.86022  Biso   1.000  C
  C339     1.0000 0.89603  0.67477  0.86022  Biso   1.000  C
  C340     1.0000 0.88793  0.65857  0.97312  Biso   1.000  C
  C341     1.0000 0.77063  0.11207  0.97312  Biso   1.000  C
  C342     1.0000 0.34143  0.22937  0.97312  Biso   1.000  C
  C343     1.0000 0.00810  0.44540  0.80645  Biso   1.000  C
  C344     1.0000 0.55460  0.56270  0.80645  Biso   1.000  C
  C345     1.0000 0.43730  0.99190  0.80645  Biso   1.000  C
  C346     1.0000 0.44540  0.00810  0.69355  Biso   1.000  C
  C347     1.0000 0.56270  0.55460  0.69355  Biso   1.000  C
  C348     1.0000 0.99190  0.43730  0.69355  Biso   1.000  C
  C349     1.0000 0.67477  0.77873  0.13978  Biso   1.000  C
  C350     1.0000 0.22127  0.89603  0.13978  Biso   1.000  C
  C351     1.0000 0.10397  0.32523  0.13978  Biso   1.000  C
  C352     1.0000 0.11207  0.34143  0.02688  Biso   1.000  C
  C353     1.0000 0.22937  0.88793  0.02688  Biso   1.000  C
  C354     1.0000 0.65857  0.77063  0.02688  Biso   1.000  C
  C355     1.0000 0.34143  0.11207  0.47312  Biso   1.000  C
  C356     1.0000 0.88793  0.22937  0.47312  Biso   1.000  C
  C357     1.0000 0.77063  0.65857  0.47312  Biso   1.000  C
  C358     1.0000 0.77873  0.67477  0.36022  Biso   1.000  C
  C359     1.0000 0.89603  0.22127  0.36022  Biso   1.000  C
  C360     1.0000 0.32523  0.10397  0.36022  Biso   1.000  C
  H253     1.0000 0.92510  0.53390  0.18690  Biso   1.000  H
  H254     1.0000 0.46610  0.39120  0.18690  Biso   1.000  H
  H255     1.0000 0.60880  0.07490  0.18690  Biso   1.000  H
  H256     1.0000 0.53390  0.92510  0.31310  Biso   1.000  H
  H257     1.0000 0.39120  0.46610  0.31310  Biso   1.000  H
  H258     1.0000 0.07490  0.60880  0.31310  Biso   1.000  H
  H259     1.0000 0.59177  0.86723  0.52023  Biso   1.000  H
  H260     1.0000 0.13277  0.72453  0.52023  Biso   1.000  H
  H261     1.0000 0.27547  0.40823  0.52023  Biso   1.000  H
  H262     1.0000 0.20057  0.25843  0.64643  Biso   1.000  H
  H263     1.0000 0.05787  0.79943  0.64643  Biso   1.000  H
  H264     1.0000 0.74157  0.94213  0.64643  Biso   1.000  H
  H265     1.0000 0.25843  0.20057  0.85357  Biso   1.000  H
  H266     1.0000 0.79943  0.05787  0.85357  Biso   1.000  H
  H267     1.0000 0.94213  0.74157  0.85357  Biso   1.000  H
  H268     1.0000 0.86723  0.59177  0.97977  Biso   1.000  H
  H269     1.0000 0.72453  0.13277  0.97977  Biso   1.000  H
  H270     1.0000 0.40823  0.27547  0.97977  Biso   1.000  H
  H271     1.0000 0.07490  0.46610  0.81310  Biso   1.000  H
  H272     1.0000 0.53390  0.60880  0.81310  Biso   1.000  H
  H273     1.0000 0.39120  0.92510  0.81310  Biso   1.000  H
  H274     1.0000 0.46610  0.07490  0.68690  Biso   1.000  H
  H275     1.0000 0.60880  0.53390  0.68690  Biso   1.000  H
  H276     1.0000 0.92510  0.39120  0.68690  Biso   1.000  H
  H277     1.0000 0.74157  0.79943  0.14643  Biso   1.000  H
  H278     1.0000 0.20057  0.94213  0.14643  Biso   1.000  H
  H279     1.0000 0.05787  0.25843  0.14643  Biso   1.000  H
  H280     1.0000 0.13277  0.40823  0.02023  Biso   1.000  H
  H281     1.0000 0.27547  0.86723  0.02023  Biso   1.000  H
  H282     1.0000 0.59177  0.72453  0.02023  Biso   1.000  H
  H283     1.0000 0.40823  0.13277  0.47977  Biso   1.000  H
  H284     1.0000 0.86723  0.27547  0.47977  Biso   1.000  H
  H285     1.0000 0.72453  0.59177  0.47977  Biso   1.000  H
  H286     1.0000 0.79943  0.74157  0.35357  Biso   1.000  H
  H287     1.0000 0.94213  0.20057  0.35357  Biso   1.000  H
  H288     1.0000 0.25843  0.05787  0.35357  Biso   1.000  H
  Br1      1.0000 0.86298  0.43942  0.13724  Biso   1.000  Br
  Br2      1.0000 0.56058  0.42356  0.13724  Biso   1.000  Br
  Br3      1.0000 0.57644  0.13702  0.13724  Biso   1.000  Br
  Br4      1.0000 0.43942  0.86298  0.36276  Biso   1.000  Br
  Br5      1.0000 0.42356  0.56058  0.36276  Biso   1.000  Br
  Br6      1.0000 0.13702  0.57644  0.36276  Biso   1.000  Br
  Br7      1.0000 0.52965  0.77275  0.47057  Biso   1.000  Br
  Br8      1.0000 0.22725  0.75689  0.47057  Biso   1.000  Br
  Br9      1.0000 0.24311  0.47035  0.47057  Biso   1.000  Br
  Br10     1.0000 0.10609  0.19631  0.69610  Biso   1.000  Br
  Br11     1.0000 0.09023  0.89391  0.69610  Biso   1.000  Br
  Br12     1.0000 0.80369  0.90977  0.69610  Biso   1.000  Br
  Br13     1.0000 0.19631  0.10609  0.80390  Biso   1.000  Br
  Br14     1.0000 0.89391  0.09023  0.80390  Biso   1.000  Br
  Br15     1.0000 0.90977  0.80369  0.80390  Biso   1.000  Br
  Br16     1.0000 0.77275  0.52965  0.02943  Biso   1.000  Br
  Br17     1.0000 0.75689  0.22725  0.02943  Biso   1.000  Br
  Br18     1.0000 0.47035  0.24311  0.02943  Biso   1.000  Br
  Br19     1.0000 0.13702  0.56058  0.86276  Biso   1.000  Br
  Br20     1.0000 0.43942  0.57644  0.86276  Biso   1.000  Br
  Br21     1.0000 0.42356  0.86298  0.86276  Biso   1.000  Br
  Br22     1.0000 0.56058  0.13702  0.63724  Biso   1.000  Br
  Br23     1.0000 0.57644  0.43942  0.63724  Biso   1.000  Br
  Br24     1.0000 0.86298  0.42356  0.63724  Biso   1.000  Br
  Br25     1.0000 0.80369  0.89391  0.19610  Biso   1.000  Br
  Br26     1.0000 0.10609  0.90977  0.19610  Biso   1.000  Br
  Br27     1.0000 0.09023  0.19631  0.19610  Biso   1.000  Br
  Br28     1.0000 0.22725  0.47035  0.97057  Biso   1.000  Br
  Br29     1.0000 0.24311  0.77275  0.97057  Biso   1.000  Br
  Br30     1.0000 0.52965  0.75689  0.97057  Biso   1.000  Br
  Br31     1.0000 0.47035  0.22725  0.52943  Biso   1.000  Br
  Br32     1.0000 0.77275  0.24311  0.52943  Biso   1.000  Br
  Br33     1.0000 0.75689  0.52965  0.52943  Biso   1.000  Br
  Br34     1.0000 0.89391  0.80369  0.30390  Biso   1.000  Br
  Br35     1.0000 0.90977  0.10609  0.30390  Biso   1.000  Br
  Br36     1.0000 0.19631  0.09023  0.30390  Biso   1.000  Br
  Br37     1.0000 0.66670  0.33330  0.08330  Biso   1.000  Br
  Br38     1.0000 0.33330  0.66670  0.41670  Biso   1.000  Br
  Br39     1.0000 0.99997  0.00003  0.75003  Biso   1.000  Br
  Br40     1.0000 0.33330  0.66670  0.91670  Biso   1.000  Br
  Br41     1.0000 0.66670  0.33330  0.58330  Biso   1.000  Br
  Br42     1.0000 0.99997  0.00003  0.25003  Biso   1.000  Br
  Br43     1.0000 0.66670  0.33330  0.18929  Biso   1.000  Br
  Br44     1.0000 0.33330  0.66670  0.31071  Biso   1.000  Br
  Br45     1.0000 0.33337  0.66663  0.52263  Biso   1.000  Br
  Br46     1.0000 0.99997  0.00003  0.64404  Biso   1.000  Br
  Br47     1.0000 0.00003  0.99997  0.85596  Biso   1.000  Br
  Br48     1.0000 0.66663  0.33337  0.97737  Biso   1.000  Br
  Br49     1.0000 0.33330  0.66670  0.81071  Biso   1.000  Br
  Br50     1.0000 0.66670  0.33330  0.68929  Biso   1.000  Br
  Br51     1.0000 0.99997  0.00003  0.14404  Biso   1.000  Br
  Br52     1.0000 0.33337  0.66663  0.02263  Biso   1.000  Br
  Br53     1.0000 0.66663  0.33337  0.47737  Biso   1.000  Br
  Br54     1.0000 0.00003  0.99997  0.35596  Biso   1.000  Br
  Cu1      1.0000 0.66670  0.33330  0.12293  Biso   1.000  Cu
  Cu2      1.0000 0.33330  0.66670  0.37707  Biso   1.000  Cu
  Cu3      1.0000 0.33337  0.66663  0.45626  Biso   1.000  Cu
  Cu4      1.0000 0.99997  0.00003  0.71040  Biso   1.000  Cu
  Cu5      1.0000 0.00003  0.99997  0.78960  Biso   1.000  Cu
  Cu6      1.0000 0.66663  0.33337  0.04374  Biso   1.000  Cu
  Cu7      1.0000 0.33330  0.66670  0.87707  Biso   1.000  Cu
  Cu8      1.0000 0.66670  0.33330  0.62293  Biso   1.000  Cu
  Cu9      1.0000 0.99997  0.00003  0.21040  Biso   1.000  Cu
  Cu10     1.0000 0.33337  0.66663  0.95626  Biso   1.000  Cu
  Cu11     1.0000 0.66663  0.33337  0.54374  Biso   1.000  Cu
  Cu12     1.0000 0.00003  0.99997  0.28960  Biso   1.000  Cu
  Cu13     1.0000 0.72884  0.47672  0.15851  Biso   1.000  Cu
  Cu14     1.0000 0.52328  0.25212  0.15851  Biso   1.000  Cu
  Cu15     1.0000 0.74788  0.27116  0.15851  Biso   1.000  Cu
  Cu16     1.0000 0.47672  0.72884  0.34149  Biso   1.000  Cu
  Cu17     1.0000 0.25212  0.52328  0.34149  Biso   1.000  Cu
  Cu18     1.0000 0.27116  0.74788  0.34149  Biso   1.000  Cu
  Cu19     1.0000 0.39551  0.81005  0.49184  Biso   1.000  Cu
  Cu20     1.0000 0.18995  0.58545  0.49184  Biso   1.000  Cu
  Cu21     1.0000 0.41455  0.60449  0.49184  Biso   1.000  Cu
  Cu22     1.0000 0.14339  0.06217  0.67482  Biso   1.000  Cu
  Cu23     1.0000 0.91879  0.85661  0.67482  Biso   1.000  Cu
  Cu24     1.0000 0.93783  0.08121  0.67482  Biso   1.000  Cu
  Cu25     1.0000 0.06217  0.14339  0.82518  Biso   1.000  Cu
  Cu26     1.0000 0.85661  0.91879  0.82518  Biso   1.000  Cu
  Cu27     1.0000 0.08121  0.93783  0.82518  Biso   1.000  Cu
  Cu28     1.0000 0.81005  0.39551  0.00816  Biso   1.000  Cu
  Cu29     1.0000 0.58545  0.18995  0.00816  Biso   1.000  Cu
  Cu30     1.0000 0.60449  0.41455  0.00816  Biso   1.000  Cu
  Cu31     1.0000 0.27116  0.52328  0.84149  Biso   1.000  Cu
  Cu32     1.0000 0.47672  0.74788  0.84149  Biso   1.000  Cu
  Cu33     1.0000 0.25212  0.72884  0.84149  Biso   1.000  Cu
  Cu34     1.0000 0.52328  0.27116  0.65851  Biso   1.000  Cu
  Cu35     1.0000 0.74788  0.47672  0.65851  Biso   1.000  Cu
  Cu36     1.0000 0.72884  0.25212  0.65851  Biso   1.000  Cu
  Cu37     1.0000 0.93783  0.85661  0.17482  Biso   1.000  Cu
  Cu38     1.0000 0.14339  0.08121  0.17482  Biso   1.000  Cu
  Cu39     1.0000 0.91879  0.06217  0.17482  Biso   1.000  Cu
  Cu40     1.0000 0.18995  0.60449  0.99184  Biso   1.000  Cu
  Cu41     1.0000 0.41455  0.81005  0.99184  Biso   1.000  Cu
  Cu42     1.0000 0.39551  0.58545  0.99184  Biso   1.000  Cu
  Cu43     1.0000 0.60449  0.18995  0.50816  Biso   1.000  Cu
  Cu44     1.0000 0.81005  0.41455  0.50816  Biso   1.000  Cu
  Cu45     1.0000 0.58545  0.39551  0.50816  Biso   1.000  Cu
  Cu46     1.0000 0.85661  0.93783  0.32518  Biso   1.000  Cu
  Cu47     1.0000 0.08121  0.14339  0.32518  Biso   1.000  Cu
  Cu48     1.0000 0.06217  0.91879  0.32518  Biso   1.000  Cu
  Br55     1.0000 0.83330  0.66670  0.16670  Biso   1.000  Br
  Br56     1.0000 0.33330  0.16660  0.16670  Biso   1.000  Br
  Br57     1.0000 0.83340  0.16670  0.16670  Biso   1.000  Br
  Br58     1.0000 0.66670  0.83330  0.33330  Biso   1.000  Br
  Br59     1.0000 0.16660  0.33330  0.33330  Biso   1.000  Br
  Br60     1.0000 0.16670  0.83340  0.33330  Biso   1.000  Br
  Br61     1.0000 0.49997  0.00003  0.50003  Biso   1.000  Br
  Br62     1.0000 0.99997  0.49993  0.50003  Biso   1.000  Br
  Br63     1.0000 0.50007  0.50003  0.50003  Biso   1.000  Br
  Br64     1.0000 0.33337  0.16663  0.66663  Biso   1.000  Br
  Br65     1.0000 0.83327  0.66663  0.66663  Biso   1.000  Br
  Br66     1.0000 0.83337  0.16673  0.66663  Biso   1.000  Br
  Br67     1.0000 0.16663  0.33337  0.83337  Biso   1.000  Br
  Br68     1.0000 0.66663  0.83327  0.83337  Biso   1.000  Br
  Br69     1.0000 0.16673  0.83337  0.83337  Biso   1.000  Br
  Br70     1.0000 0.00003  0.49997  0.99997  Biso   1.000  Br
  Br71     1.0000 0.49993  0.99997  0.99997  Biso   1.000  Br
  Br72     1.0000 0.50003  0.50007  0.99997  Biso   1.000  Br
