data_image0
_cell_length_a       13.969
_cell_length_b       13.969
_cell_length_c       61.884
_cell_angle_alpha    90
_cell_angle_beta     90
_cell_angle_gamma    120

_symmetry_space_group_name_H-M    "P 1"
_symmetry_int_tables_number       1

loop_
  _symmetry_equiv_pos_as_xyz
  'x, y, z'

loop_
  _atom_site_label
  _atom_site_occupancy
  _atom_site_fract_x
  _atom_site_fract_y
  _atom_site_fract_z
  _atom_site_thermal_displace_type
  _atom_site_B_iso_or_equiv
  _atom_site_type_symbol
  Br1      1.0000 0.33330  0.66670  0.02225  Biso   1.000  Br
  Br2      1.0000 0.66670  0.33330  0.47775  Biso   1.000  Br
  Br3      1.0000 0.99997  0.00003  0.35559  Biso   1.000  Br
  Br4      1.0000 0.33337  0.66663  0.81108  Biso   1.000  Br
  Br5      1.0000 0.66663  0.33337  0.68892  Biso   1.000  Br
  Br6      1.0000 0.00003  0.99997  0.14441  Biso   1.000  Br
  Br7      1.0000 0.66670  0.33330  0.97775  Biso   1.000  Br
  Br8      1.0000 0.33330  0.66670  0.52225  Biso   1.000  Br
  Br9      1.0000 0.33337  0.66663  0.31108  Biso   1.000  Br
  Br10     1.0000 0.99997  0.00003  0.85559  Biso   1.000  Br
  Br11     1.0000 0.00003  0.99997  0.64441  Biso   1.000  Br
  Br12     1.0000 0.66663  0.33337  0.18892  Biso   1.000  Br
  Br13     1.0000 0.53252  0.77452  0.97011  Biso   1.000  Br
  Br14     1.0000 0.22548  0.75800  0.97011  Biso   1.000  Br
  Br15     1.0000 0.24200  0.46748  0.97011  Biso   1.000  Br
  Br16     1.0000 0.77452  0.53252  0.52989  Biso   1.000  Br
  Br17     1.0000 0.75800  0.22548  0.52989  Biso   1.000  Br
  Br18     1.0000 0.46748  0.24200  0.52989  Biso   1.000  Br
  Br19     1.0000 0.19919  0.10785  0.30344  Biso   1.000  Br
  Br20     1.0000 0.89215  0.09133  0.30344  Biso   1.000  Br
  Br21     1.0000 0.90867  0.80081  0.30344  Biso   1.000  Br
  Br22     1.0000 0.44119  0.86585  0.86323  Biso   1.000  Br
  Br23     1.0000 0.42467  0.55881  0.86323  Biso   1.000  Br
  Br24     1.0000 0.13415  0.57533  0.86323  Biso   1.000  Br
  Br25     1.0000 0.86585  0.44119  0.63677  Biso   1.000  Br
  Br26     1.0000 0.55881  0.42467  0.63677  Biso   1.000  Br
  Br27     1.0000 0.57533  0.13415  0.63677  Biso   1.000  Br
  Br28     1.0000 0.10785  0.19919  0.19656  Biso   1.000  Br
  Br29     1.0000 0.09133  0.89215  0.19656  Biso   1.000  Br
  Br30     1.0000 0.80081  0.90867  0.19656  Biso   1.000  Br
  Br31     1.0000 0.46748  0.22548  0.02989  Biso   1.000  Br
  Br32     1.0000 0.77452  0.24200  0.02989  Biso   1.000  Br
  Br33     1.0000 0.75800  0.53252  0.02989  Biso   1.000  Br
  Br34     1.0000 0.22548  0.46748  0.47011  Biso   1.000  Br
  Br35     1.0000 0.24200  0.77452  0.47011  Biso   1.000  Br
  Br36     1.0000 0.53252  0.75800  0.47011  Biso   1.000  Br
  Br37     1.0000 0.13415  0.55881  0.36323  Biso   1.000  Br
  Br38     1.0000 0.44119  0.57533  0.36323  Biso   1.000  Br
  Br39     1.0000 0.42467  0.86585  0.36323  Biso   1.000  Br
  Br40     1.0000 0.89215  0.80081  0.80344  Biso   1.000  Br
  Br41     1.0000 0.90867  0.10785  0.80344  Biso   1.000  Br
  Br42     1.0000 0.19919  0.09133  0.80344  Biso   1.000  Br
  Br43     1.0000 0.80081  0.89215  0.69656  Biso   1.000  Br
  Br44     1.0000 0.10785  0.90867  0.69656  Biso   1.000  Br
  Br45     1.0000 0.09133  0.19919  0.69656  Biso   1.000  Br
  Br46     1.0000 0.55881  0.13415  0.13677  Biso   1.000  Br
  Br47     1.0000 0.57533  0.44119  0.13677  Biso   1.000  Br
  Br48     1.0000 0.86585  0.42467  0.13677  Biso   1.000  Br
  Br49     1.0000 0.33330  0.66670  0.91670  Biso   1.000  Br
  Br50     1.0000 0.66670  0.33330  0.58330  Biso   1.000  Br
  Br51     1.0000 0.99997  0.00003  0.25003  Biso   1.000  Br
  Br52     1.0000 0.66670  0.33330  0.08330  Biso   1.000  Br
  Br53     1.0000 0.33330  0.66670  0.41670  Biso   1.000  Br
  Br54     1.0000 0.99997  0.00003  0.75003  Biso   1.000  Br
  Cu1      1.0000 0.33330  0.66670  0.95589  Biso   1.000  Cu
  Cu2      1.0000 0.66670  0.33330  0.54411  Biso   1.000  Cu
  Cu3      1.0000 0.99997  0.00003  0.28922  Biso   1.000  Cu
  Cu4      1.0000 0.33337  0.66663  0.87744  Biso   1.000  Cu
  Cu5      1.0000 0.66663  0.33337  0.62256  Biso   1.000  Cu
  Cu6      1.0000 0.00003  0.99997  0.21078  Biso   1.000  Cu
  Cu7      1.0000 0.66670  0.33330  0.04411  Biso   1.000  Cu
  Cu8      1.0000 0.33330  0.66670  0.45589  Biso   1.000  Cu
  Cu9      1.0000 0.33337  0.66663  0.37744  Biso   1.000  Cu
  Cu10     1.0000 0.99997  0.00003  0.78922  Biso   1.000  Cu
  Cu11     1.0000 0.00003  0.99997  0.71078  Biso   1.000  Cu
  Cu12     1.0000 0.66663  0.33337  0.12256  Biso   1.000  Cu
  Br55     1.0000 0.50000  0.00000  0.00000  Biso   1.000  Br
  Br56     1.0000 0.00000  0.50000  0.00000  Biso   1.000  Br
  Br57     1.0000 0.50000  0.50000  0.00000  Biso   1.000  Br
  Br58     1.0000 0.00000  0.50000  0.50000  Biso   1.000  Br
  Br59     1.0000 0.50000  0.00000  0.50000  Biso   1.000  Br
  Br60     1.0000 0.50000  0.50000  0.50000  Biso   1.000  Br
  Br61     1.0000 0.16667  0.33333  0.33333  Biso   1.000  Br
  Br62     1.0000 0.66667  0.83333  0.33333  Biso   1.000  Br
  Br63     1.0000 0.16667  0.83333  0.33333  Biso   1.000  Br
  Br64     1.0000 0.66667  0.83333  0.83333  Biso   1.000  Br
  Br65     1.0000 0.16667  0.33333  0.83333  Biso   1.000  Br
  Br66     1.0000 0.16667  0.83333  0.83333  Biso   1.000  Br
  Br67     1.0000 0.83333  0.66667  0.66667  Biso   1.000  Br
  Br68     1.0000 0.33333  0.16667  0.66667  Biso   1.000  Br
  Br69     1.0000 0.83333  0.16667  0.66667  Biso   1.000  Br
  Br70     1.0000 0.33333  0.16667  0.16667  Biso   1.000  Br
  Br71     1.0000 0.83333  0.66667  0.16667  Biso   1.000  Br
  Br72     1.0000 0.83333  0.16667  0.16667  Biso   1.000  Br
  Cu13     1.0000 0.39468  0.80851  0.99145  Biso   1.000  Cu
  Cu14     1.0000 0.19149  0.58617  0.99145  Biso   1.000  Cu
  Cu15     1.0000 0.41383  0.60532  0.99145  Biso   1.000  Cu
  Cu16     1.0000 0.80851  0.39468  0.50855  Biso   1.000  Cu
  Cu17     1.0000 0.58617  0.19149  0.50855  Biso   1.000  Cu
  Cu18     1.0000 0.60532  0.41383  0.50855  Biso   1.000  Cu
  Cu19     1.0000 0.06135  0.14184  0.32478  Biso   1.000  Cu
  Cu20     1.0000 0.85816  0.91950  0.32478  Biso   1.000  Cu
  Cu21     1.0000 0.08050  0.93865  0.32478  Biso   1.000  Cu
  Cu22     1.0000 0.47518  0.72801  0.84188  Biso   1.000  Cu
  Cu23     1.0000 0.25284  0.52482  0.84188  Biso   1.000  Cu
  Cu24     1.0000 0.27199  0.74716  0.84188  Biso   1.000  Cu
  Cu25     1.0000 0.72801  0.47518  0.65812  Biso   1.000  Cu
  Cu26     1.0000 0.52482  0.25284  0.65812  Biso   1.000  Cu
  Cu27     1.0000 0.74716  0.27199  0.65812  Biso   1.000  Cu
  Cu28     1.0000 0.14184  0.06135  0.17522  Biso   1.000  Cu
  Cu29     1.0000 0.91950  0.85816  0.17522  Biso   1.000  Cu
  Cu30     1.0000 0.93865  0.08050  0.17522  Biso   1.000  Cu
  Cu31     1.0000 0.60532  0.19149  0.00855  Biso   1.000  Cu
  Cu32     1.0000 0.80851  0.41383  0.00855  Biso   1.000  Cu
  Cu33     1.0000 0.58617  0.39468  0.00855  Biso   1.000  Cu
  Cu34     1.0000 0.19149  0.60532  0.49145  Biso   1.000  Cu
  Cu35     1.0000 0.41383  0.80851  0.49145  Biso   1.000  Cu
  Cu36     1.0000 0.39468  0.58617  0.49145  Biso   1.000  Cu
  Cu37     1.0000 0.27199  0.52482  0.34188  Biso   1.000  Cu
  Cu38     1.0000 0.47518  0.74716  0.34188  Biso   1.000  Cu
  Cu39     1.0000 0.25284  0.72801  0.34188  Biso   1.000  Cu
  Cu40     1.0000 0.85816  0.93865  0.82478  Biso   1.000  Cu
  Cu41     1.0000 0.08050  0.14184  0.82478  Biso   1.000  Cu
  Cu42     1.0000 0.06135  0.91950  0.82478  Biso   1.000  Cu
  Cu43     1.0000 0.93865  0.85816  0.67522  Biso   1.000  Cu
  Cu44     1.0000 0.14184  0.08050  0.67522  Biso   1.000  Cu
  Cu45     1.0000 0.91950  0.06135  0.67522  Biso   1.000  Cu
  Cu46     1.0000 0.52482  0.27199  0.15812  Biso   1.000  Cu
  Cu47     1.0000 0.74716  0.47518  0.15812  Biso   1.000  Cu
  Cu48     1.0000 0.72801  0.25284  0.15812  Biso   1.000  Cu
  Fe1      1.0000 0.00000  0.00000  0.93716  Biso   1.000  Fe
  Fe2      1.0000 0.00000  0.00000  0.56284  Biso   1.000  Fe
  Fe3      1.0000 0.66667  0.33333  0.27049  Biso   1.000  Fe
  Fe4      1.0000 0.66667  0.33333  0.89617  Biso   1.000  Fe
  Fe5      1.0000 0.33333  0.66667  0.60383  Biso   1.000  Fe
  Fe6      1.0000 0.33333  0.66667  0.22951  Biso   1.000  Fe
  Fe7      1.0000 0.00000  0.00000  0.06284  Biso   1.000  Fe
  Fe8      1.0000 0.00000  0.00000  0.43716  Biso   1.000  Fe
  Fe9      1.0000 0.66667  0.33333  0.39617  Biso   1.000  Fe
  Fe10     1.0000 0.66667  0.33333  0.77049  Biso   1.000  Fe
  Fe11     1.0000 0.33333  0.66667  0.72951  Biso   1.000  Fe
  Fe12     1.0000 0.33333  0.66667  0.10383  Biso   1.000  Fe
  N1       1.0000 0.06210  0.92190  0.92020  Biso   1.000  N
  N2       1.0000 0.07810  0.14020  0.92020  Biso   1.000  N
  N3       1.0000 0.85980  0.93790  0.92020  Biso   1.000  N
  N4       1.0000 0.92190  0.06210  0.57980  Biso   1.000  N
  N5       1.0000 0.14020  0.07810  0.57980  Biso   1.000  N
  N6       1.0000 0.93790  0.85980  0.57980  Biso   1.000  N
  N7       1.0000 0.72877  0.25523  0.25353  Biso   1.000  N
  N8       1.0000 0.74477  0.47353  0.25353  Biso   1.000  N
  N9       1.0000 0.52647  0.27123  0.25353  Biso   1.000  N
  N10      1.0000 0.58857  0.39543  0.91313  Biso   1.000  N
  N11      1.0000 0.80687  0.41143  0.91313  Biso   1.000  N
  N12      1.0000 0.60457  0.19313  0.91313  Biso   1.000  N
  N13      1.0000 0.39543  0.58857  0.58687  Biso   1.000  N
  N14      1.0000 0.41143  0.80687  0.58687  Biso   1.000  N
  N15      1.0000 0.19313  0.60457  0.58687  Biso   1.000  N
  N16      1.0000 0.25523  0.72877  0.24647  Biso   1.000  N
  N17      1.0000 0.47353  0.74477  0.24647  Biso   1.000  N
  N18      1.0000 0.27123  0.52647  0.24647  Biso   1.000  N
  N19      1.0000 0.93790  0.07810  0.07980  Biso   1.000  N
  N20      1.0000 0.92190  0.85980  0.07980  Biso   1.000  N
  N21      1.0000 0.14020  0.06210  0.07980  Biso   1.000  N
  N22      1.0000 0.07810  0.93790  0.42020  Biso   1.000  N
  N23      1.0000 0.85980  0.92190  0.42020  Biso   1.000  N
  N24      1.0000 0.06210  0.14020  0.42020  Biso   1.000  N
  N25      1.0000 0.60457  0.41143  0.41313  Biso   1.000  N
  N26      1.0000 0.58857  0.19313  0.41313  Biso   1.000  N
  N27      1.0000 0.80687  0.39543  0.41313  Biso   1.000  N
  N28      1.0000 0.74477  0.27123  0.75353  Biso   1.000  N
  N29      1.0000 0.52647  0.25523  0.75353  Biso   1.000  N
  N30      1.0000 0.72877  0.47353  0.75353  Biso   1.000  N
  N31      1.0000 0.27123  0.74477  0.74647  Biso   1.000  N
  N32      1.0000 0.25523  0.52647  0.74647  Biso   1.000  N
  N33      1.0000 0.47353  0.72877  0.74647  Biso   1.000  N
  N34      1.0000 0.41143  0.60457  0.08687  Biso   1.000  N
  N35      1.0000 0.19313  0.58857  0.08687  Biso   1.000  N
  N36      1.0000 0.39543  0.80687  0.08687  Biso   1.000  N
  N37      1.0000 0.13810  0.04820  0.95456  Biso   1.000  N
  N38      1.0000 0.95180  0.08990  0.95456  Biso   1.000  N
  N39      1.0000 0.91010  0.86190  0.95456  Biso   1.000  N
  N40      1.0000 0.04820  0.13810  0.54544  Biso   1.000  N
  N41      1.0000 0.08990  0.95180  0.54544  Biso   1.000  N
  N42      1.0000 0.86190  0.91010  0.54544  Biso   1.000  N
  N43      1.0000 0.80477  0.38153  0.28789  Biso   1.000  N
  N44      1.0000 0.61847  0.42323  0.28789  Biso   1.000  N
  N45      1.0000 0.57677  0.19523  0.28789  Biso   1.000  N
  N46      1.0000 0.71487  0.47143  0.87877  Biso   1.000  N
  N47      1.0000 0.75657  0.28513  0.87877  Biso   1.000  N
  N48      1.0000 0.52857  0.24343  0.87877  Biso   1.000  N
  N49      1.0000 0.47143  0.71487  0.62123  Biso   1.000  N
  N50      1.0000 0.28513  0.75657  0.62123  Biso   1.000  N
  N51      1.0000 0.24343  0.52857  0.62123  Biso   1.000  N
  N52      1.0000 0.38153  0.80477  0.21211  Biso   1.000  N
  N53      1.0000 0.42323  0.61847  0.21211  Biso   1.000  N
  N54      1.0000 0.19523  0.57677  0.21211  Biso   1.000  N
  N55      1.0000 0.86190  0.95180  0.04544  Biso   1.000  N
  N56      1.0000 0.04820  0.91010  0.04544  Biso   1.000  N
  N57      1.0000 0.08990  0.13810  0.04544  Biso   1.000  N
  N58      1.0000 0.95180  0.86190  0.45456  Biso   1.000  N
  N59      1.0000 0.91010  0.04820  0.45456  Biso   1.000  N
  N60      1.0000 0.13810  0.08990  0.45456  Biso   1.000  N
  N61      1.0000 0.52857  0.28513  0.37877  Biso   1.000  N
  N62      1.0000 0.71487  0.24343  0.37877  Biso   1.000  N
  N63      1.0000 0.75657  0.47143  0.37877  Biso   1.000  N
  N64      1.0000 0.61847  0.19523  0.78789  Biso   1.000  N
  N65      1.0000 0.57677  0.38153  0.78789  Biso   1.000  N
  N66      1.0000 0.80477  0.42323  0.78789  Biso   1.000  N
  N67      1.0000 0.19523  0.61847  0.71211  Biso   1.000  N
  N68      1.0000 0.38153  0.57677  0.71211  Biso   1.000  N
  N69      1.0000 0.42323  0.80477  0.71211  Biso   1.000  N
  N70      1.0000 0.28513  0.52857  0.12123  Biso   1.000  N
  N71      1.0000 0.24343  0.71487  0.12123  Biso   1.000  N
  N72      1.0000 0.47143  0.75657  0.12123  Biso   1.000  N
  C1       1.0000 0.19450  0.86350  0.92153  Biso   1.000  C
  C2       1.0000 0.13650  0.33100  0.92153  Biso   1.000  C
  C3       1.0000 0.66900  0.80550  0.92153  Biso   1.000  C
  C4       1.0000 0.86350  0.19450  0.57847  Biso   1.000  C
  C5       1.0000 0.33100  0.13650  0.57847  Biso   1.000  C
  C6       1.0000 0.80550  0.66900  0.57847  Biso   1.000  C
  C7       1.0000 0.86117  0.19683  0.25486  Biso   1.000  C
  C8       1.0000 0.80317  0.66433  0.25486  Biso   1.000  C
  C9       1.0000 0.33567  0.13883  0.25486  Biso   1.000  C
  C10      1.0000 0.53017  0.52783  0.91180  Biso   1.000  C
  C11      1.0000 0.99767  0.46983  0.91180  Biso   1.000  C
  C12      1.0000 0.47217  0.00233  0.91180  Biso   1.000  C
  C13      1.0000 0.52783  0.53017  0.58820  Biso   1.000  C
  C14      1.0000 0.46983  0.99767  0.58820  Biso   1.000  C
  C15      1.0000 0.00233  0.47217  0.58820  Biso   1.000  C
  C16      1.0000 0.19683  0.86117  0.24514  Biso   1.000  C
  C17      1.0000 0.66433  0.80317  0.24514  Biso   1.000  C
  C18      1.0000 0.13883  0.33567  0.24514  Biso   1.000  C
  C19      1.0000 0.80550  0.13650  0.07847  Biso   1.000  C
  C20      1.0000 0.86350  0.66900  0.07847  Biso   1.000  C
  C21      1.0000 0.33100  0.19450  0.07847  Biso   1.000  C
  C22      1.0000 0.13650  0.80550  0.42153  Biso   1.000  C
  C23      1.0000 0.66900  0.86350  0.42153  Biso   1.000  C
  C24      1.0000 0.19450  0.33100  0.42153  Biso   1.000  C
  C25      1.0000 0.47217  0.46983  0.41180  Biso   1.000  C
  C26      1.0000 0.53017  0.00233  0.41180  Biso   1.000  C
  C27      1.0000 0.99767  0.52783  0.41180  Biso   1.000  C
  C28      1.0000 0.80317  0.13883  0.75486  Biso   1.000  C
  C29      1.0000 0.33567  0.19683  0.75486  Biso   1.000  C
  C30      1.0000 0.86117  0.66433  0.75486  Biso   1.000  C
  C31      1.0000 0.13883  0.80317  0.74514  Biso   1.000  C
  C32      1.0000 0.19683  0.33567  0.74514  Biso   1.000  C
  C33      1.0000 0.66433  0.86117  0.74514  Biso   1.000  C
  C34      1.0000 0.46983  0.47217  0.08820  Biso   1.000  C
  C35      1.0000 0.00233  0.53017  0.08820  Biso   1.000  C
  C36      1.0000 0.52783  0.99767  0.08820  Biso   1.000  C
  H1       1.0000 0.25550  0.86620  0.92820  Biso   1.000  H
  H2       1.0000 0.13380  0.38930  0.92820  Biso   1.000  H
  H3       1.0000 0.61070  0.74450  0.92820  Biso   1.000  H
  H4       1.0000 0.86620  0.25550  0.57180  Biso   1.000  H
  H5       1.0000 0.38930  0.13380  0.57180  Biso   1.000  H
  H6       1.0000 0.74450  0.61070  0.57180  Biso   1.000  H
  H7       1.0000 0.92217  0.19953  0.26153  Biso   1.000  H
  H8       1.0000 0.80047  0.72263  0.26153  Biso   1.000  H
  H9       1.0000 0.27737  0.07783  0.26153  Biso   1.000  H
  H10      1.0000 0.53287  0.58883  0.90513  Biso   1.000  H
  H11      1.0000 0.05597  0.46713  0.90513  Biso   1.000  H
  H12      1.0000 0.41117  0.94403  0.90513  Biso   1.000  H
  H13      1.0000 0.58883  0.53287  0.59487  Biso   1.000  H
  H14      1.0000 0.46713  0.05597  0.59487  Biso   1.000  H
  H15      1.0000 0.94403  0.41117  0.59487  Biso   1.000  H
  H16      1.0000 0.19953  0.92217  0.23847  Biso   1.000  H
  H17      1.0000 0.72263  0.80047  0.23847  Biso   1.000  H
  H18      1.0000 0.07783  0.27737  0.23847  Biso   1.000  H
  H19      1.0000 0.74450  0.13380  0.07180  Biso   1.000  H
  H20      1.0000 0.86620  0.61070  0.07180  Biso   1.000  H
  H21      1.0000 0.38930  0.25550  0.07180  Biso   1.000  H
  H22      1.0000 0.13380  0.74450  0.42820  Biso   1.000  H
  H23      1.0000 0.61070  0.86620  0.42820  Biso   1.000  H
  H24      1.0000 0.25550  0.38930  0.42820  Biso   1.000  H
  H25      1.0000 0.41117  0.46713  0.40513  Biso   1.000  H
  H26      1.0000 0.53287  0.94403  0.40513  Biso   1.000  H
  H27      1.0000 0.05597  0.58883  0.40513  Biso   1.000  H
  H28      1.0000 0.80047  0.07783  0.76153  Biso   1.000  H
  H29      1.0000 0.27737  0.19953  0.76153  Biso   1.000  H
  H30      1.0000 0.92217  0.72263  0.76153  Biso   1.000  H
  H31      1.0000 0.07783  0.80047  0.73847  Biso   1.000  H
  H32      1.0000 0.19953  0.27737  0.73847  Biso   1.000  H
  H33      1.0000 0.72263  0.92217  0.73847  Biso   1.000  H
  H34      1.0000 0.46713  0.41117  0.09487  Biso   1.000  H
  H35      1.0000 0.94403  0.53287  0.09487  Biso   1.000  H
  H36      1.0000 0.58883  0.05597  0.09487  Biso   1.000  H
  C37      1.0000 0.15190  0.92710  0.92947  Biso   1.000  C
  C38      1.0000 0.07290  0.22480  0.92947  Biso   1.000  C
  C39      1.0000 0.77520  0.84810  0.92947  Biso   1.000  C
  C40      1.0000 0.92710  0.15190  0.57053  Biso   1.000  C
  C41      1.0000 0.22480  0.07290  0.57053  Biso   1.000  C
  C42      1.0000 0.84810  0.77520  0.57053  Biso   1.000  C
  C43      1.0000 0.81857  0.26043  0.26280  Biso   1.000  C
  C44      1.0000 0.73957  0.55813  0.26280  Biso   1.000  C
  C45      1.0000 0.44187  0.18143  0.26280  Biso   1.000  C
  C46      1.0000 0.59377  0.48523  0.90386  Biso   1.000  C
  C47      1.0000 0.89147  0.40623  0.90386  Biso   1.000  C
  C48      1.0000 0.51477  0.10853  0.90386  Biso   1.000  C
  C49      1.0000 0.48523  0.59377  0.59614  Biso   1.000  C
  C50      1.0000 0.40623  0.89147  0.59614  Biso   1.000  C
  C51      1.0000 0.10853  0.51477  0.59614  Biso   1.000  C
  C52      1.0000 0.26043  0.81857  0.23720  Biso   1.000  C
  C53      1.0000 0.55813  0.73957  0.23720  Biso   1.000  C
  C54      1.0000 0.18143  0.44187  0.23720  Biso   1.000  C
  C55      1.0000 0.84810  0.07290  0.07053  Biso   1.000  C
  C56      1.0000 0.92710  0.77520  0.07053  Biso   1.000  C
  C57      1.0000 0.22480  0.15190  0.07053  Biso   1.000  C
  C58      1.0000 0.07290  0.84810  0.42947  Biso   1.000  C
  C59      1.0000 0.77520  0.92710  0.42947  Biso   1.000  C
  C60      1.0000 0.15190  0.22480  0.42947  Biso   1.000  C
  C61      1.0000 0.51477  0.40623  0.40386  Biso   1.000  C
  C62      1.0000 0.59377  0.10853  0.40386  Biso   1.000  C
  C63      1.0000 0.89147  0.48523  0.40386  Biso   1.000  C
  C64      1.0000 0.73957  0.18143  0.76280  Biso   1.000  C
  C65      1.0000 0.44187  0.26043  0.76280  Biso   1.000  C
  C66      1.0000 0.81857  0.55813  0.76280  Biso   1.000  C
  C67      1.0000 0.18143  0.73957  0.73720  Biso   1.000  C
  C68      1.0000 0.26043  0.44187  0.73720  Biso   1.000  C
  C69      1.0000 0.55813  0.81857  0.73720  Biso   1.000  C
  C70      1.0000 0.40623  0.51477  0.09614  Biso   1.000  C
  C71      1.0000 0.10853  0.59377  0.09614  Biso   1.000  C
  C72      1.0000 0.48523  0.89147  0.09614  Biso   1.000  C
  C73      1.0000 0.01290  0.85500  0.90350  Biso   1.000  C
  C74      1.0000 0.14500  0.15790  0.90350  Biso   1.000  C
  C75      1.0000 0.84210  0.98710  0.90350  Biso   1.000  C
  C76      1.0000 0.85500  0.01290  0.59650  Biso   1.000  C
  C77      1.0000 0.15790  0.14500  0.59650  Biso   1.000  C
  C78      1.0000 0.98710  0.84210  0.59650  Biso   1.000  C
  C79      1.0000 0.67957  0.18833  0.23683  Biso   1.000  C
  C80      1.0000 0.81167  0.49123  0.23683  Biso   1.000  C
  C81      1.0000 0.50877  0.32043  0.23683  Biso   1.000  C
  C82      1.0000 0.52167  0.34623  0.92983  Biso   1.000  C
  C83      1.0000 0.82457  0.47833  0.92983  Biso   1.000  C
  C84      1.0000 0.65377  0.17543  0.92983  Biso   1.000  C
  C85      1.0000 0.34623  0.52167  0.57017  Biso   1.000  C
  C86      1.0000 0.47833  0.82457  0.57017  Biso   1.000  C
  C87      1.0000 0.17543  0.65377  0.57017  Biso   1.000  C
  C88      1.0000 0.18833  0.67957  0.26317  Biso   1.000  C
  C89      1.0000 0.49123  0.81167  0.26317  Biso   1.000  C
  C90      1.0000 0.32043  0.50877  0.26317  Biso   1.000  C
  C91      1.0000 0.98710  0.14500  0.09650  Biso   1.000  C
  C92      1.0000 0.85500  0.84210  0.09650  Biso   1.000  C
  C93      1.0000 0.15790  0.01290  0.09650  Biso   1.000  C
  C94      1.0000 0.14500  0.98710  0.40350  Biso   1.000  C
  C95      1.0000 0.84210  0.85500  0.40350  Biso   1.000  C
  C96      1.0000 0.01290  0.15790  0.40350  Biso   1.000  C
  C97      1.0000 0.65377  0.47833  0.42983  Biso   1.000  C
  C98      1.0000 0.52167  0.17543  0.42983  Biso   1.000  C
  C99      1.0000 0.82457  0.34623  0.42983  Biso   1.000  C
  C100     1.0000 0.81167  0.32043  0.73683  Biso   1.000  C
  C101     1.0000 0.50877  0.18833  0.73683  Biso   1.000  C
  C102     1.0000 0.67957  0.49123  0.73683  Biso   1.000  C
  C103     1.0000 0.32043  0.81167  0.76317  Biso   1.000  C
  C104     1.0000 0.18833  0.50877  0.76317  Biso   1.000  C
  C105     1.0000 0.49123  0.67957  0.76317  Biso   1.000  C
  C106     1.0000 0.47833  0.65377  0.07017  Biso   1.000  C
  C107     1.0000 0.17543  0.52167  0.07017  Biso   1.000  C
  C108     1.0000 0.34623  0.82457  0.07017  Biso   1.000  C
  H37      1.0000 0.94920  0.85010  0.89770  Biso   1.000  H
  H38      1.0000 0.14990  0.09910  0.89770  Biso   1.000  H
  H39      1.0000 0.90090  0.05080  0.89770  Biso   1.000  H
  H40      1.0000 0.85010  0.94920  0.60230  Biso   1.000  H
  H41      1.0000 0.09910  0.14990  0.60230  Biso   1.000  H
  H42      1.0000 0.05080  0.90090  0.60230  Biso   1.000  H
  H43      1.0000 0.61587  0.18343  0.23103  Biso   1.000  H
  H44      1.0000 0.81657  0.43243  0.23103  Biso   1.000  H
  H45      1.0000 0.56757  0.38413  0.23103  Biso   1.000  H
  H46      1.0000 0.51677  0.28253  0.93563  Biso   1.000  H
  H47      1.0000 0.76577  0.48323  0.93563  Biso   1.000  H
  H48      1.0000 0.71747  0.23423  0.93563  Biso   1.000  H
  H49      1.0000 0.28253  0.51677  0.56437  Biso   1.000  H
  H50      1.0000 0.48323  0.76577  0.56437  Biso   1.000  H
  H51      1.0000 0.23423  0.71747  0.56437  Biso   1.000  H
  H52      1.0000 0.18343  0.61587  0.26897  Biso   1.000  H
  H53      1.0000 0.43243  0.81657  0.26897  Biso   1.000  H
  H54      1.0000 0.38413  0.56757  0.26897  Biso   1.000  H
  H55      1.0000 0.05080  0.14990  0.10230  Biso   1.000  H
  H56      1.0000 0.85010  0.90090  0.10230  Biso   1.000  H
  H57      1.0000 0.09910  0.94920  0.10230  Biso   1.000  H
  H58      1.0000 0.14990  0.05080  0.39770  Biso   1.000  H
  H59      1.0000 0.90090  0.85010  0.39770  Biso   1.000  H
  H60      1.0000 0.94920  0.09910  0.39770  Biso   1.000  H
  H61      1.0000 0.71747  0.48323  0.43563  Biso   1.000  H
  H62      1.0000 0.51677  0.23423  0.43563  Biso   1.000  H
  H63      1.0000 0.76577  0.28253  0.43563  Biso   1.000  H
  H64      1.0000 0.81657  0.38413  0.73103  Biso   1.000  H
  H65      1.0000 0.56757  0.18343  0.73103  Biso   1.000  H
  H66      1.0000 0.61587  0.43243  0.73103  Biso   1.000  H
  H67      1.0000 0.38413  0.81657  0.76897  Biso   1.000  H
  H68      1.0000 0.18343  0.56757  0.76897  Biso   1.000  H
  H69      1.0000 0.43243  0.61587  0.76897  Biso   1.000  H
  H70      1.0000 0.48323  0.71747  0.06437  Biso   1.000  H
  H71      1.0000 0.23423  0.51677  0.06437  Biso   1.000  H
  H72      1.0000 0.28253  0.76577  0.06437  Biso   1.000  H
  C109     1.0000 0.17550  0.12560  0.96985  Biso   1.000  C
  C110     1.0000 0.87440  0.04990  0.96985  Biso   1.000  C
  C111     1.0000 0.95010  0.82450  0.96985  Biso   1.000  C
  C112     1.0000 0.12560  0.17550  0.53015  Biso   1.000  C
  C113     1.0000 0.04990  0.87440  0.53015  Biso   1.000  C
  C114     1.0000 0.82450  0.95010  0.53015  Biso   1.000  C
  C115     1.0000 0.84217  0.45893  0.30318  Biso   1.000  C
  C116     1.0000 0.54107  0.38323  0.30318  Biso   1.000  C
  C117     1.0000 0.61677  0.15783  0.30318  Biso   1.000  C
  C118     1.0000 0.79227  0.50883  0.86348  Biso   1.000  C
  C119     1.0000 0.71657  0.20773  0.86348  Biso   1.000  C
  C120     1.0000 0.49117  0.28343  0.86348  Biso   1.000  C
  C121     1.0000 0.50883  0.79227  0.63652  Biso   1.000  C
  C122     1.0000 0.20773  0.71657  0.63652  Biso   1.000  C
  C123     1.0000 0.28343  0.49117  0.63652  Biso   1.000  C
  C124     1.0000 0.45893  0.84217  0.19682  Biso   1.000  C
  C125     1.0000 0.38323  0.54107  0.19682  Biso   1.000  C
  C126     1.0000 0.15783  0.61677  0.19682  Biso   1.000  C
  C127     1.0000 0.82450  0.87440  0.03015  Biso   1.000  C
  C128     1.0000 0.12560  0.95010  0.03015  Biso   1.000  C
  C129     1.0000 0.04990  0.17550  0.03015  Biso   1.000  C
  C130     1.0000 0.87440  0.82450  0.46985  Biso   1.000  C
  C131     1.0000 0.95010  0.12560  0.46985  Biso   1.000  C
  C132     1.0000 0.17550  0.04990  0.46985  Biso   1.000  C
  C133     1.0000 0.49117  0.20773  0.36348  Biso   1.000  C
  C134     1.0000 0.79227  0.28343  0.36348  Biso   1.000  C
  C135     1.0000 0.71657  0.50883  0.36348  Biso   1.000  C
  C136     1.0000 0.54107  0.15783  0.80318  Biso   1.000  C
  C137     1.0000 0.61677  0.45893  0.80318  Biso   1.000  C
  C138     1.0000 0.84217  0.38323  0.80318  Biso   1.000  C
  C139     1.0000 0.15783  0.54107  0.69682  Biso   1.000  C
  C140     1.0000 0.45893  0.61677  0.69682  Biso   1.000  C
  C141     1.0000 0.38323  0.84217  0.69682  Biso   1.000  C
  C142     1.0000 0.20773  0.49117  0.13652  Biso   1.000  C
  C143     1.0000 0.28343  0.79227  0.13652  Biso   1.000  C
  C144     1.0000 0.50883  0.71657  0.13652  Biso   1.000  C
  H73      1.0000 0.13330  0.15720  0.97390  Biso   1.000  H
  H74      1.0000 0.84280  0.97610  0.97390  Biso   1.000  H
  H75      1.0000 0.02390  0.86670  0.97390  Biso   1.000  H
  H76      1.0000 0.15720  0.13330  0.52610  Biso   1.000  H
  H77      1.0000 0.97610  0.84280  0.52610  Biso   1.000  H
  H78      1.0000 0.86670  0.02390  0.52610  Biso   1.000  H
  H79      1.0000 0.79997  0.49053  0.30723  Biso   1.000  H
  H80      1.0000 0.50947  0.30943  0.30723  Biso   1.000  H
  H81      1.0000 0.69057  0.20003  0.30723  Biso   1.000  H
  H82      1.0000 0.82387  0.46663  0.85943  Biso   1.000  H
  H83      1.0000 0.64277  0.17613  0.85943  Biso   1.000  H
  H84      1.0000 0.53337  0.35723  0.85943  Biso   1.000  H
  H85      1.0000 0.46663  0.82387  0.64057  Biso   1.000  H
  H86      1.0000 0.17613  0.64277  0.64057  Biso   1.000  H
  H87      1.0000 0.35723  0.53337  0.64057  Biso   1.000  H
  H88      1.0000 0.49053  0.79997  0.19277  Biso   1.000  H
  H89      1.0000 0.30943  0.50947  0.19277  Biso   1.000  H
  H90      1.0000 0.20003  0.69057  0.19277  Biso   1.000  H
  H91      1.0000 0.86670  0.84280  0.02610  Biso   1.000  H
  H92      1.0000 0.15720  0.02390  0.02610  Biso   1.000  H
  H93      1.0000 0.97610  0.13330  0.02610  Biso   1.000  H
  H94      1.0000 0.84280  0.86670  0.47390  Biso   1.000  H
  H95      1.0000 0.02390  0.15720  0.47390  Biso   1.000  H
  H96      1.0000 0.13330  0.97610  0.47390  Biso   1.000  H
  H97      1.0000 0.53337  0.17613  0.35943  Biso   1.000  H
  H98      1.0000 0.82387  0.35723  0.35943  Biso   1.000  H
  H99      1.0000 0.64277  0.46663  0.35943  Biso   1.000  H
  H100     1.0000 0.50947  0.20003  0.80723  Biso   1.000  H
  H101     1.0000 0.69057  0.49053  0.80723  Biso   1.000  H
  H102     1.0000 0.79997  0.30943  0.80723  Biso   1.000  H
  H103     1.0000 0.20003  0.50947  0.69277  Biso   1.000  H
  H104     1.0000 0.49053  0.69057  0.69277  Biso   1.000  H
  H105     1.0000 0.30943  0.79997  0.69277  Biso   1.000  H
  H106     1.0000 0.17613  0.53337  0.14057  Biso   1.000  H
  H107     1.0000 0.35723  0.82387  0.14057  Biso   1.000  H
  H108     1.0000 0.46663  0.64277  0.14057  Biso   1.000  H
  C145     1.0000 0.19940  0.00620  0.94741  Biso   1.000  C
  C146     1.0000 0.99380  0.19320  0.94741  Biso   1.000  C
  C147     1.0000 0.80680  0.80060  0.94741  Biso   1.000  C
  C148     1.0000 0.00620  0.19940  0.55259  Biso   1.000  C
  C149     1.0000 0.19320  0.99380  0.55259  Biso   1.000  C
  C150     1.0000 0.80060  0.80680  0.55259  Biso   1.000  C
  C151     1.0000 0.86607  0.33953  0.28074  Biso   1.000  C
  C152     1.0000 0.66047  0.52653  0.28074  Biso   1.000  C
  C153     1.0000 0.47347  0.13393  0.28074  Biso   1.000  C
  C154     1.0000 0.67287  0.53273  0.88592  Biso   1.000  C
  C155     1.0000 0.85987  0.32713  0.88592  Biso   1.000  C
  C156     1.0000 0.46727  0.14013  0.88592  Biso   1.000  C
  C157     1.0000 0.53273  0.67287  0.61408  Biso   1.000  C
  C158     1.0000 0.32713  0.85987  0.61408  Biso   1.000  C
  C159     1.0000 0.14013  0.46727  0.61408  Biso   1.000  C
  C160     1.0000 0.33953  0.86607  0.21926  Biso   1.000  C
  C161     1.0000 0.52653  0.66047  0.21926  Biso   1.000  C
  C162     1.0000 0.13393  0.47347  0.21926  Biso   1.000  C
  C163     1.0000 0.80060  0.99380  0.05259  Biso   1.000  C
  C164     1.0000 0.00620  0.80680  0.05259  Biso   1.000  C
  C165     1.0000 0.19320  0.19940  0.05259  Biso   1.000  C
  C166     1.0000 0.99380  0.80060  0.44741  Biso   1.000  C
  C167     1.0000 0.80680  0.00620  0.44741  Biso   1.000  C
  C168     1.0000 0.19940  0.19320  0.44741  Biso   1.000  C
  C169     1.0000 0.46727  0.32713  0.38592  Biso   1.000  C
  C170     1.0000 0.67287  0.14013  0.38592  Biso   1.000  C
  C171     1.0000 0.85987  0.53273  0.38592  Biso   1.000  C
  C172     1.0000 0.66047  0.13393  0.78074  Biso   1.000  C
  C173     1.0000 0.47347  0.33953  0.78074  Biso   1.000  C
  C174     1.0000 0.86607  0.52653  0.78074  Biso   1.000  C
  C175     1.0000 0.13393  0.66047  0.71926  Biso   1.000  C
  C176     1.0000 0.33953  0.47347  0.71926  Biso   1.000  C
  C177     1.0000 0.52653  0.86607  0.71926  Biso   1.000  C
  C178     1.0000 0.32713  0.46727  0.11408  Biso   1.000  C
  C179     1.0000 0.14013  0.67287  0.11408  Biso   1.000  C
  C180     1.0000 0.53273  0.85987  0.11408  Biso   1.000  C
  C181     1.0000 0.14640  0.79550  0.90373  Biso   1.000  C
  C182     1.0000 0.20450  0.35090  0.90373  Biso   1.000  C
  C183     1.0000 0.64910  0.85360  0.90373  Biso   1.000  C
  C184     1.0000 0.79550  0.14640  0.59627  Biso   1.000  C
  C185     1.0000 0.35090  0.20450  0.59627  Biso   1.000  C
  C186     1.0000 0.85360  0.64910  0.59627  Biso   1.000  C
  C187     1.0000 0.81307  0.12883  0.23706  Biso   1.000  C
  C188     1.0000 0.87117  0.68423  0.23706  Biso   1.000  C
  C189     1.0000 0.31577  0.18693  0.23706  Biso   1.000  C
  C190     1.0000 0.46217  0.47973  0.92960  Biso   1.000  C
  C191     1.0000 0.01757  0.53783  0.92960  Biso   1.000  C
  C192     1.0000 0.52027  0.98243  0.92960  Biso   1.000  C
  C193     1.0000 0.47973  0.46217  0.57040  Biso   1.000  C
  C194     1.0000 0.53783  0.01757  0.57040  Biso   1.000  C
  C195     1.0000 0.98243  0.52027  0.57040  Biso   1.000  C
  C196     1.0000 0.12883  0.81307  0.26294  Biso   1.000  C
  C197     1.0000 0.68423  0.87117  0.26294  Biso   1.000  C
  C198     1.0000 0.18693  0.31577  0.26294  Biso   1.000  C
  C199     1.0000 0.85360  0.20450  0.09627  Biso   1.000  C
  C200     1.0000 0.79550  0.64910  0.09627  Biso   1.000  C
  C201     1.0000 0.35090  0.14640  0.09627  Biso   1.000  C
  C202     1.0000 0.20450  0.85360  0.40373  Biso   1.000  C
  C203     1.0000 0.64910  0.79550  0.40373  Biso   1.000  C
  C204     1.0000 0.14640  0.35090  0.40373  Biso   1.000  C
  C205     1.0000 0.52027  0.53783  0.42960  Biso   1.000  C
  C206     1.0000 0.46217  0.98243  0.42960  Biso   1.000  C
  C207     1.0000 0.01757  0.47973  0.42960  Biso   1.000  C
  C208     1.0000 0.87117  0.18693  0.73706  Biso   1.000  C
  C209     1.0000 0.31577  0.12883  0.73706  Biso   1.000  C
  C210     1.0000 0.81307  0.68423  0.73706  Biso   1.000  C
  C211     1.0000 0.18693  0.87117  0.76294  Biso   1.000  C
  C212     1.0000 0.12883  0.31577  0.76294  Biso   1.000  C
  C213     1.0000 0.68423  0.81307  0.76294  Biso   1.000  C
  C214     1.0000 0.53783  0.52027  0.07040  Biso   1.000  C
  C215     1.0000 0.98243  0.46217  0.07040  Biso   1.000  C
  C216     1.0000 0.47973  0.01757  0.07040  Biso   1.000  C
  H109     1.0000 0.17490  0.75310  0.89810  Biso   1.000  H
  H110     1.0000 0.24690  0.42180  0.89810  Biso   1.000  H
  H111     1.0000 0.57820  0.82510  0.89810  Biso   1.000  H
  H112     1.0000 0.75310  0.17490  0.60190  Biso   1.000  H
  H113     1.0000 0.42180  0.24690  0.60190  Biso   1.000  H
  H114     1.0000 0.82510  0.57820  0.60190  Biso   1.000  H
  H115     1.0000 0.84157  0.08643  0.23143  Biso   1.000  H
  H116     1.0000 0.91357  0.75513  0.23143  Biso   1.000  H
  H117     1.0000 0.24487  0.15843  0.23143  Biso   1.000  H
  H118     1.0000 0.41977  0.50823  0.93523  Biso   1.000  H
  H119     1.0000 0.08847  0.58023  0.93523  Biso   1.000  H
  H120     1.0000 0.49177  0.91153  0.93523  Biso   1.000  H
  H121     1.0000 0.50823  0.41977  0.56477  Biso   1.000  H
  H122     1.0000 0.58023  0.08847  0.56477  Biso   1.000  H
  H123     1.0000 0.91153  0.49177  0.56477  Biso   1.000  H
  H124     1.0000 0.08643  0.84157  0.26857  Biso   1.000  H
  H125     1.0000 0.75513  0.91357  0.26857  Biso   1.000  H
  H126     1.0000 0.15843  0.24487  0.26857  Biso   1.000  H
  H127     1.0000 0.82510  0.24690  0.10190  Biso   1.000  H
  H128     1.0000 0.75310  0.57820  0.10190  Biso   1.000  H
  H129     1.0000 0.42180  0.17490  0.10190  Biso   1.000  H
  H130     1.0000 0.24690  0.82510  0.39810  Biso   1.000  H
  H131     1.0000 0.57820  0.75310  0.39810  Biso   1.000  H
  H132     1.0000 0.17490  0.42180  0.39810  Biso   1.000  H
  H133     1.0000 0.49177  0.58023  0.43523  Biso   1.000  H
  H134     1.0000 0.41977  0.91153  0.43523  Biso   1.000  H
  H135     1.0000 0.08847  0.50823  0.43523  Biso   1.000  H
  H136     1.0000 0.91357  0.15843  0.73143  Biso   1.000  H
  H137     1.0000 0.24487  0.08643  0.73143  Biso   1.000  H
  H138     1.0000 0.84157  0.75513  0.73143  Biso   1.000  H
  H139     1.0000 0.15843  0.91357  0.76857  Biso   1.000  H
  H140     1.0000 0.08643  0.24487  0.76857  Biso   1.000  H
  H141     1.0000 0.75513  0.84157  0.76857  Biso   1.000  H
  H142     1.0000 0.58023  0.49177  0.06477  Biso   1.000  H
  H143     1.0000 0.91153  0.41977  0.06477  Biso   1.000  H
  H144     1.0000 0.50823  0.08847  0.06477  Biso   1.000  H
  C217     1.0000 0.27570  0.15990  0.97982  Biso   1.000  C
  C218     1.0000 0.84010  0.11580  0.97982  Biso   1.000  C
  C219     1.0000 0.88420  0.72430  0.97982  Biso   1.000  C
  C220     1.0000 0.15990  0.27570  0.52018  Biso   1.000  C
  C221     1.0000 0.11580  0.84010  0.52018  Biso   1.000  C
  C222     1.0000 0.72430  0.88420  0.52018  Biso   1.000  C
  C223     1.0000 0.94237  0.49323  0.31315  Biso   1.000  C
  C224     1.0000 0.50677  0.44913  0.31315  Biso   1.000  C
  C225     1.0000 0.55087  0.05763  0.31315  Biso   1.000  C
  C226     1.0000 0.82657  0.60903  0.85351  Biso   1.000  C
  C227     1.0000 0.78247  0.17343  0.85351  Biso   1.000  C
  C228     1.0000 0.39097  0.21753  0.85351  Biso   1.000  C
  C229     1.0000 0.60903  0.82657  0.64649  Biso   1.000  C
  C230     1.0000 0.17343  0.78247  0.64649  Biso   1.000  C
  C231     1.0000 0.21753  0.39097  0.64649  Biso   1.000  C
  C232     1.0000 0.49323  0.94237  0.18685  Biso   1.000  C
  C233     1.0000 0.44913  0.50677  0.18685  Biso   1.000  C
  C234     1.0000 0.05763  0.55087  0.18685  Biso   1.000  C
  C235     1.0000 0.72430  0.84010  0.02018  Biso   1.000  C
  C236     1.0000 0.15990  0.88420  0.02018  Biso   1.000  C
  C237     1.0000 0.11580  0.27570  0.02018  Biso   1.000  C
  C238     1.0000 0.84010  0.72430  0.47982  Biso   1.000  C
  C239     1.0000 0.88420  0.15990  0.47982  Biso   1.000  C
  C240     1.0000 0.27570  0.11580  0.47982  Biso   1.000  C
  C241     1.0000 0.39097  0.17343  0.35351  Biso   1.000  C
  C242     1.0000 0.82657  0.21753  0.35351  Biso   1.000  C
  C243     1.0000 0.78247  0.60903  0.35351  Biso   1.000  C
  C244     1.0000 0.50677  0.05763  0.81315  Biso   1.000  C
  C245     1.0000 0.55087  0.49323  0.81315  Biso   1.000  C
  C246     1.0000 0.94237  0.44913  0.81315  Biso   1.000  C
  C247     1.0000 0.05763  0.50677  0.68685  Biso   1.000  C
  C248     1.0000 0.49323  0.55087  0.68685  Biso   1.000  C
  C249     1.0000 0.44913  0.94237  0.68685  Biso   1.000  C
  C250     1.0000 0.17343  0.39097  0.14649  Biso   1.000  C
  C251     1.0000 0.21753  0.82657  0.14649  Biso   1.000  C
  C252     1.0000 0.60903  0.78247  0.14649  Biso   1.000  C
  H145     1.0000 0.30010  0.21280  0.99070  Biso   1.000  H
  H146     1.0000 0.78720  0.08730  0.99070  Biso   1.000  H
  H147     1.0000 0.91270  0.69990  0.99070  Biso   1.000  H
  H148     1.0000 0.21280  0.30010  0.50930  Biso   1.000  H
  H149     1.0000 0.08730  0.78720  0.50930  Biso   1.000  H
  H150     1.0000 0.69990  0.91270  0.50930  Biso   1.000  H
  H151     1.0000 0.96677  0.54613  0.32403  Biso   1.000  H
  H152     1.0000 0.45387  0.42063  0.32403  Biso   1.000  H
  H153     1.0000 0.57937  0.03323  0.32403  Biso   1.000  H
  H154     1.0000 0.87947  0.63343  0.84263  Biso   1.000  H
  H155     1.0000 0.75397  0.12053  0.84263  Biso   1.000  H
  H156     1.0000 0.36657  0.24603  0.84263  Biso   1.000  H
  H157     1.0000 0.63343  0.87947  0.65737  Biso   1.000  H
  H158     1.0000 0.12053  0.75397  0.65737  Biso   1.000  H
  H159     1.0000 0.24603  0.36657  0.65737  Biso   1.000  H
  H160     1.0000 0.54613  0.96677  0.17597  Biso   1.000  H
  H161     1.0000 0.42063  0.45387  0.17597  Biso   1.000  H
  H162     1.0000 0.03323  0.57937  0.17597  Biso   1.000  H
  H163     1.0000 0.69990  0.78720  0.00930  Biso   1.000  H
  H164     1.0000 0.21280  0.91270  0.00930  Biso   1.000  H
  H165     1.0000 0.08730  0.30010  0.00930  Biso   1.000  H
  H166     1.0000 0.78720  0.69990  0.49070  Biso   1.000  H
  H167     1.0000 0.91270  0.21280  0.49070  Biso   1.000  H
  H168     1.0000 0.30010  0.08730  0.49070  Biso   1.000  H
  H169     1.0000 0.36657  0.12053  0.34263  Biso   1.000  H
  H170     1.0000 0.87947  0.24603  0.34263  Biso   1.000  H
  H171     1.0000 0.75397  0.63343  0.34263  Biso   1.000  H
  H172     1.0000 0.45387  0.03323  0.82403  Biso   1.000  H
  H173     1.0000 0.57937  0.54613  0.82403  Biso   1.000  H
  H174     1.0000 0.96677  0.42063  0.82403  Biso   1.000  H
  H175     1.0000 0.03323  0.45387  0.67597  Biso   1.000  H
  H176     1.0000 0.54613  0.57937  0.67597  Biso   1.000  H
  H177     1.0000 0.42063  0.96677  0.67597  Biso   1.000  H
  H178     1.0000 0.12053  0.36657  0.15737  Biso   1.000  H
  H179     1.0000 0.24603  0.87947  0.15737  Biso   1.000  H
  H180     1.0000 0.63343  0.75397  0.15737  Biso   1.000  H
  C253     1.0000 0.05470  0.79290  0.89466  Biso   1.000  C
  C254     1.0000 0.20710  0.26180  0.89466  Biso   1.000  C
  C255     1.0000 0.73820  0.94530  0.89466  Biso   1.000  C
  C256     1.0000 0.79290  0.05470  0.60534  Biso   1.000  C
  C257     1.0000 0.26180  0.20710  0.60534  Biso   1.000  C
  C258     1.0000 0.94530  0.73820  0.60534  Biso   1.000  C
  C259     1.0000 0.72137  0.12623  0.22799  Biso   1.000  C
  C260     1.0000 0.87377  0.59513  0.22799  Biso   1.000  C
  C261     1.0000 0.40487  0.27863  0.22799  Biso   1.000  C
  C262     1.0000 0.45957  0.38803  0.93867  Biso   1.000  C
  C263     1.0000 0.92847  0.54043  0.93867  Biso   1.000  C
  C264     1.0000 0.61197  0.07153  0.93867  Biso   1.000  C
  C265     1.0000 0.38803  0.45957  0.56133  Biso   1.000  C
  C266     1.0000 0.54043  0.92847  0.56133  Biso   1.000  C
  C267     1.0000 0.07153  0.61197  0.56133  Biso   1.000  C
  C268     1.0000 0.12623  0.72137  0.27201  Biso   1.000  C
  C269     1.0000 0.59513  0.87377  0.27201  Biso   1.000  C
  C270     1.0000 0.27863  0.40487  0.27201  Biso   1.000  C
  C271     1.0000 0.94530  0.20710  0.10534  Biso   1.000  C
  C272     1.0000 0.79290  0.73820  0.10534  Biso   1.000  C
  C273     1.0000 0.26180  0.05470  0.10534  Biso   1.000  C
  C274     1.0000 0.20710  0.94530  0.39466  Biso   1.000  C
  C275     1.0000 0.73820  0.79290  0.39466  Biso   1.000  C
  C276     1.0000 0.05470  0.26180  0.39466  Biso   1.000  C
  C277     1.0000 0.61197  0.54043  0.43867  Biso   1.000  C
  C278     1.0000 0.45957  0.07153  0.43867  Biso   1.000  C
  C279     1.0000 0.92847  0.38803  0.43867  Biso   1.000  C
  C280     1.0000 0.87377  0.27863  0.72799  Biso   1.000  C
  C281     1.0000 0.40487  0.12623  0.72799  Biso   1.000  C
  C282     1.0000 0.72137  0.59513  0.72799  Biso   1.000  C
  C283     1.0000 0.27863  0.87377  0.77201  Biso   1.000  C
  C284     1.0000 0.12623  0.40487  0.77201  Biso   1.000  C
  C285     1.0000 0.59513  0.72137  0.77201  Biso   1.000  C
  C286     1.0000 0.54043  0.61197  0.06133  Biso   1.000  C
  C287     1.0000 0.07153  0.45957  0.06133  Biso   1.000  C
  C288     1.0000 0.38803  0.92847  0.06133  Biso   1.000  C
  H181     1.0000 0.02110  0.74920  0.88260  Biso   1.000  H
  H182     1.0000 0.25080  0.27190  0.88260  Biso   1.000  H
  H183     1.0000 0.72810  0.97890  0.88260  Biso   1.000  H
  H184     1.0000 0.74920  0.02110  0.61740  Biso   1.000  H
  H185     1.0000 0.27190  0.25080  0.61740  Biso   1.000  H
  H186     1.0000 0.97890  0.72810  0.61740  Biso   1.000  H
  H187     1.0000 0.68777  0.08253  0.21593  Biso   1.000  H
  H188     1.0000 0.91747  0.60523  0.21593  Biso   1.000  H
  H189     1.0000 0.39477  0.31223  0.21593  Biso   1.000  H
  H190     1.0000 0.41587  0.35443  0.95073  Biso   1.000  H
  H191     1.0000 0.93857  0.58413  0.95073  Biso   1.000  H
  H192     1.0000 0.64557  0.06143  0.95073  Biso   1.000  H
  H193     1.0000 0.35443  0.41587  0.54927  Biso   1.000  H
  H194     1.0000 0.58413  0.93857  0.54927  Biso   1.000  H
  H195     1.0000 0.06143  0.64557  0.54927  Biso   1.000  H
  H196     1.0000 0.08253  0.68777  0.28407  Biso   1.000  H
  H197     1.0000 0.60523  0.91747  0.28407  Biso   1.000  H
  H198     1.0000 0.31223  0.39477  0.28407  Biso   1.000  H
  H199     1.0000 0.97890  0.25080  0.11740  Biso   1.000  H
  H200     1.0000 0.74920  0.72810  0.11740  Biso   1.000  H
  H201     1.0000 0.27190  0.02110  0.11740  Biso   1.000  H
  H202     1.0000 0.25080  0.97890  0.38260  Biso   1.000  H
  H203     1.0000 0.72810  0.74920  0.38260  Biso   1.000  H
  H204     1.0000 0.02110  0.27190  0.38260  Biso   1.000  H
  H205     1.0000 0.64557  0.58413  0.45073  Biso   1.000  H
  H206     1.0000 0.41587  0.06143  0.45073  Biso   1.000  H
  H207     1.0000 0.93857  0.35443  0.45073  Biso   1.000  H
  H208     1.0000 0.91747  0.31223  0.71593  Biso   1.000  H
  H209     1.0000 0.39477  0.08253  0.71593  Biso   1.000  H
  H210     1.0000 0.68777  0.60523  0.71593  Biso   1.000  H
  H211     1.0000 0.31223  0.91747  0.78407  Biso   1.000  H
  H212     1.0000 0.08253  0.39477  0.78407  Biso   1.000  H
  H213     1.0000 0.60523  0.68777  0.78407  Biso   1.000  H
  H214     1.0000 0.58413  0.64557  0.04927  Biso   1.000  H
  H215     1.0000 0.06143  0.41587  0.04927  Biso   1.000  H
  H216     1.0000 0.35443  0.93857  0.04927  Biso   1.000  H
  C289     1.0000 0.30080  0.03660  0.95702  Biso   1.000  C
  C290     1.0000 0.96340  0.26420  0.95702  Biso   1.000  C
  C291     1.0000 0.73580  0.69920  0.95702  Biso   1.000  C
  C292     1.0000 0.03660  0.30080  0.54298  Biso   1.000  C
  C293     1.0000 0.26420  0.96340  0.54298  Biso   1.000  C
  C294     1.0000 0.69920  0.73580  0.54298  Biso   1.000  C
  C295     1.0000 0.96747  0.36993  0.29035  Biso   1.000  C
  C296     1.0000 0.63007  0.59753  0.29035  Biso   1.000  C
  C297     1.0000 0.40247  0.03253  0.29035  Biso   1.000  C
  C298     1.0000 0.70327  0.63413  0.87631  Biso   1.000  C
  C299     1.0000 0.93087  0.29673  0.87631  Biso   1.000  C
  C300     1.0000 0.36587  0.06913  0.87631  Biso   1.000  C
  C301     1.0000 0.63413  0.70327  0.62369  Biso   1.000  C
  C302     1.0000 0.29673  0.93087  0.62369  Biso   1.000  C
  C303     1.0000 0.06913  0.36587  0.62369  Biso   1.000  C
  C304     1.0000 0.36993  0.96747  0.20965  Biso   1.000  C
  C305     1.0000 0.59753  0.63007  0.20965  Biso   1.000  C
  C306     1.0000 0.03253  0.40247  0.20965  Biso   1.000  C
  C307     1.0000 0.69920  0.96340  0.04298  Biso   1.000  C
  C308     1.0000 0.03660  0.73580  0.04298  Biso   1.000  C
  C309     1.0000 0.26420  0.30080  0.04298  Biso   1.000  C
  C310     1.0000 0.96340  0.69920  0.45702  Biso   1.000  C
  C311     1.0000 0.73580  0.03660  0.45702  Biso   1.000  C
  C312     1.0000 0.30080  0.26420  0.45702  Biso   1.000  C
  C313     1.0000 0.36587  0.29673  0.37631  Biso   1.000  C
  C314     1.0000 0.70327  0.06913  0.37631  Biso   1.000  C
  C315     1.0000 0.93087  0.63413  0.37631  Biso   1.000  C
  C316     1.0000 0.63007  0.03253  0.79035  Biso   1.000  C
  C317     1.0000 0.40247  0.36993  0.79035  Biso   1.000  C
  C318     1.0000 0.96747  0.59753  0.79035  Biso   1.000  C
  C319     1.0000 0.03253  0.63007  0.70965  Biso   1.000  C
  C320     1.0000 0.36993  0.40247  0.70965  Biso   1.000  C
  C321     1.0000 0.59753  0.96747  0.70965  Biso   1.000  C
  C322     1.0000 0.29673  0.36587  0.12369  Biso   1.000  C
  C323     1.0000 0.06913  0.70327  0.12369  Biso   1.000  C
  C324     1.0000 0.63413  0.93087  0.12369  Biso   1.000  C
  H217     1.0000 0.34220  0.00490  0.95250  Biso   1.000  H
  H218     1.0000 0.99510  0.33730  0.95250  Biso   1.000  H
  H219     1.0000 0.66270  0.65780  0.95250  Biso   1.000  H
  H220     1.0000 0.00490  0.34220  0.54750  Biso   1.000  H
  H221     1.0000 0.33730  0.99510  0.54750  Biso   1.000  H
  H222     1.0000 0.65780  0.66270  0.54750  Biso   1.000  H
  H223     1.0000 0.00887  0.33823  0.28583  Biso   1.000  H
  H224     1.0000 0.66177  0.67063  0.28583  Biso   1.000  H
  H225     1.0000 0.32937  0.99113  0.28583  Biso   1.000  H
  H226     1.0000 0.67157  0.67553  0.88083  Biso   1.000  H
  H227     1.0000 0.00397  0.32843  0.88083  Biso   1.000  H
  H228     1.0000 0.32447  0.99603  0.88083  Biso   1.000  H
  H229     1.0000 0.67553  0.67157  0.61917  Biso   1.000  H
  H230     1.0000 0.32843  0.00397  0.61917  Biso   1.000  H
  H231     1.0000 0.99603  0.32447  0.61917  Biso   1.000  H
  H232     1.0000 0.33823  0.00887  0.21417  Biso   1.000  H
  H233     1.0000 0.67063  0.66177  0.21417  Biso   1.000  H
  H234     1.0000 0.99113  0.32937  0.21417  Biso   1.000  H
  H235     1.0000 0.65780  0.99510  0.04750  Biso   1.000  H
  H236     1.0000 0.00490  0.66270  0.04750  Biso   1.000  H
  H237     1.0000 0.33730  0.34220  0.04750  Biso   1.000  H
  H238     1.0000 0.99510  0.65780  0.45250  Biso   1.000  H
  H239     1.0000 0.66270  0.00490  0.45250  Biso   1.000  H
  H240     1.0000 0.34220  0.33730  0.45250  Biso   1.000  H
  H241     1.0000 0.32447  0.32843  0.38083  Biso   1.000  H
  H242     1.0000 0.67157  0.99603  0.38083  Biso   1.000  H
  H243     1.0000 0.00397  0.67553  0.38083  Biso   1.000  H
  H244     1.0000 0.66177  0.99113  0.78583  Biso   1.000  H
  H245     1.0000 0.32937  0.33823  0.78583  Biso   1.000  H
  H246     1.0000 0.00887  0.67063  0.78583  Biso   1.000  H
  H247     1.0000 0.99113  0.66177  0.71417  Biso   1.000  H
  H248     1.0000 0.33823  0.32937  0.71417  Biso   1.000  H
  H249     1.0000 0.67063  0.00887  0.71417  Biso   1.000  H
  H250     1.0000 0.32843  0.32447  0.11917  Biso   1.000  H
  H251     1.0000 0.99603  0.67157  0.11917  Biso   1.000  H
  H252     1.0000 0.67553  0.00397  0.11917  Biso   1.000  H
  C325     1.0000 0.33930  0.11470  0.97342  Biso   1.000  C
  C326     1.0000 0.88530  0.22460  0.97342  Biso   1.000  C
  C327     1.0000 0.77540  0.66070  0.97342  Biso   1.000  C
  C328     1.0000 0.11470  0.33930  0.52658  Biso   1.000  C
  C329     1.0000 0.22460  0.88530  0.52658  Biso   1.000  C
  C330     1.0000 0.66070  0.77540  0.52658  Biso   1.000  C
  C331     1.0000 0.00597  0.44803  0.30675  Biso   1.000  C
  C332     1.0000 0.55197  0.55793  0.30675  Biso   1.000  C
  C333     1.0000 0.44207  0.99403  0.30675  Biso   1.000  C
  C334     1.0000 0.78137  0.67263  0.85991  Biso   1.000  C
  C335     1.0000 0.89127  0.21863  0.85991  Biso   1.000  C
  C336     1.0000 0.32737  0.10873  0.85991  Biso   1.000  C
  C337     1.0000 0.67263  0.78137  0.64009  Biso   1.000  C
  C338     1.0000 0.21863  0.89127  0.64009  Biso   1.000  C
  C339     1.0000 0.10873  0.32737  0.64009  Biso   1.000  C
  C340     1.0000 0.44803  0.00597  0.19325  Biso   1.000  C
  C341     1.0000 0.55793  0.55197  0.19325  Biso   1.000  C
  C342     1.0000 0.99403  0.44207  0.19325  Biso   1.000  C
  C343     1.0000 0.66070  0.88530  0.02658  Biso   1.000  C
  C344     1.0000 0.11470  0.77540  0.02658  Biso   1.000  C
  C345     1.0000 0.22460  0.33930  0.02658  Biso   1.000  C
  C346     1.0000 0.88530  0.66070  0.47342  Biso   1.000  C
  C347     1.0000 0.77540  0.11470  0.47342  Biso   1.000  C
  C348     1.0000 0.33930  0.22460  0.47342  Biso   1.000  C
  C349     1.0000 0.32737  0.21863  0.35991  Biso   1.000  C
  C350     1.0000 0.78137  0.10873  0.35991  Biso   1.000  C
  C351     1.0000 0.89127  0.67263  0.35991  Biso   1.000  C
  C352     1.0000 0.55197  0.99403  0.80675  Biso   1.000  C
  C353     1.0000 0.44207  0.44803  0.80675  Biso   1.000  C
  C354     1.0000 0.00597  0.55793  0.80675  Biso   1.000  C
  C355     1.0000 0.99403  0.55197  0.69325  Biso   1.000  C
  C356     1.0000 0.44803  0.44207  0.69325  Biso   1.000  C
  C357     1.0000 0.55793  0.00597  0.69325  Biso   1.000  C
  C358     1.0000 0.21863  0.32737  0.14009  Biso   1.000  C
  C359     1.0000 0.10873  0.78137  0.14009  Biso   1.000  C
  C360     1.0000 0.67263  0.89127  0.14009  Biso   1.000  C
  H253     1.0000 0.40700  0.13640  0.98000  Biso   1.000  H
  H254     1.0000 0.86360  0.27060  0.98000  Biso   1.000  H
  H255     1.0000 0.72940  0.59300  0.98000  Biso   1.000  H
  H256     1.0000 0.13640  0.40700  0.52000  Biso   1.000  H
  H257     1.0000 0.27060  0.86360  0.52000  Biso   1.000  H
  H258     1.0000 0.59300  0.72940  0.52000  Biso   1.000  H
  H259     1.0000 0.07367  0.46973  0.31333  Biso   1.000  H
  H260     1.0000 0.53027  0.60393  0.31333  Biso   1.000  H
  H261     1.0000 0.39607  0.92633  0.31333  Biso   1.000  H
  H262     1.0000 0.80307  0.74033  0.85333  Biso   1.000  H
  H263     1.0000 0.93727  0.19693  0.85333  Biso   1.000  H
  H264     1.0000 0.25967  0.06273  0.85333  Biso   1.000  H
  H265     1.0000 0.74033  0.80307  0.64667  Biso   1.000  H
  H266     1.0000 0.19693  0.93727  0.64667  Biso   1.000  H
  H267     1.0000 0.06273  0.25967  0.64667  Biso   1.000  H
  H268     1.0000 0.46973  0.07367  0.18667  Biso   1.000  H
  H269     1.0000 0.60393  0.53027  0.18667  Biso   1.000  H
  H270     1.0000 0.92633  0.39607  0.18667  Biso   1.000  H
  H271     1.0000 0.59300  0.86360  0.02000  Biso   1.000  H
  H272     1.0000 0.13640  0.72940  0.02000  Biso   1.000  H
  H273     1.0000 0.27060  0.40700  0.02000  Biso   1.000  H
  H274     1.0000 0.86360  0.59300  0.48000  Biso   1.000  H
  H275     1.0000 0.72940  0.13640  0.48000  Biso   1.000  H
  H276     1.0000 0.40700  0.27060  0.48000  Biso   1.000  H
  H277     1.0000 0.25967  0.19693  0.35333  Biso   1.000  H
  H278     1.0000 0.80307  0.06273  0.35333  Biso   1.000  H
  H279     1.0000 0.93727  0.74033  0.35333  Biso   1.000  H
  H280     1.0000 0.53027  0.92633  0.81333  Biso   1.000  H
  H281     1.0000 0.39607  0.46973  0.81333  Biso   1.000  H
  H282     1.0000 0.07367  0.60393  0.81333  Biso   1.000  H
  H283     1.0000 0.92633  0.53027  0.68667  Biso   1.000  H
  H284     1.0000 0.46973  0.39607  0.68667  Biso   1.000  H
  H285     1.0000 0.60393  0.07367  0.68667  Biso   1.000  H
  H286     1.0000 0.19693  0.25967  0.14667  Biso   1.000  H
  H287     1.0000 0.06273  0.80307  0.14667  Biso   1.000  H
  H288     1.0000 0.74033  0.93727  0.14667  Biso   1.000  H
