data_image0
_cell_length_a       14.15
_cell_length_b       14.15
_cell_length_c       61.75
_cell_angle_alpha    90
_cell_angle_beta     90
_cell_angle_gamma    120

_symmetry_space_group_name_H-M    "P 1"
_symmetry_int_tables_number       1

loop_
  _symmetry_equiv_pos_as_xyz
  'x, y, z'

loop_
  _atom_site_label
  _atom_site_occupancy
  _atom_site_fract_x
  _atom_site_fract_y
  _atom_site_fract_z
  _atom_site_thermal_displace_type
  _atom_site_B_iso_or_equiv
  _atom_site_type_symbol
  Br1      1.0000 0.52951  0.75623  0.97042  Biso   1.000  Br
  Br2      1.0000 0.24377  0.77328  0.97042  Biso   1.000  Br
  Br3      1.0000 0.22672  0.47049  0.97042  Biso   1.000  Br
  Br4      1.0000 0.75623  0.52951  0.52958  Biso   1.000  Br
  Br5      1.0000 0.77328  0.24377  0.52958  Biso   1.000  Br
  Br6      1.0000 0.47049  0.22672  0.52958  Biso   1.000  Br
  Br7      1.0000 0.19618  0.08956  0.30376  Biso   1.000  Br
  Br8      1.0000 0.91044  0.10661  0.30376  Biso   1.000  Br
  Br9      1.0000 0.89339  0.80382  0.30376  Biso   1.000  Br
  Br10     1.0000 0.42290  0.86284  0.86291  Biso   1.000  Br
  Br11     1.0000 0.43995  0.57710  0.86291  Biso   1.000  Br
  Br12     1.0000 0.13716  0.56005  0.86291  Biso   1.000  Br
  Br13     1.0000 0.86284  0.42290  0.63709  Biso   1.000  Br
  Br14     1.0000 0.57710  0.43995  0.63709  Biso   1.000  Br
  Br15     1.0000 0.56005  0.13716  0.63709  Biso   1.000  Br
  Br16     1.0000 0.08956  0.19618  0.19624  Biso   1.000  Br
  Br17     1.0000 0.10661  0.91044  0.19624  Biso   1.000  Br
  Br18     1.0000 0.80382  0.89339  0.19624  Biso   1.000  Br
  Br19     1.0000 0.47049  0.24377  0.02958  Biso   1.000  Br
  Br20     1.0000 0.75623  0.22672  0.02958  Biso   1.000  Br
  Br21     1.0000 0.77328  0.52951  0.02958  Biso   1.000  Br
  Br22     1.0000 0.24377  0.47049  0.47042  Biso   1.000  Br
  Br23     1.0000 0.22672  0.75623  0.47042  Biso   1.000  Br
  Br24     1.0000 0.52951  0.77328  0.47042  Biso   1.000  Br
  Br25     1.0000 0.13716  0.57710  0.36291  Biso   1.000  Br
  Br26     1.0000 0.42290  0.56005  0.36291  Biso   1.000  Br
  Br27     1.0000 0.43995  0.86284  0.36291  Biso   1.000  Br
  Br28     1.0000 0.91044  0.80382  0.80376  Biso   1.000  Br
  Br29     1.0000 0.89339  0.08956  0.80376  Biso   1.000  Br
  Br30     1.0000 0.19618  0.10661  0.80376  Biso   1.000  Br
  Br31     1.0000 0.80382  0.91044  0.69624  Biso   1.000  Br
  Br32     1.0000 0.08956  0.89339  0.69624  Biso   1.000  Br
  Br33     1.0000 0.10661  0.19618  0.69624  Biso   1.000  Br
  Br34     1.0000 0.57710  0.13716  0.13709  Biso   1.000  Br
  Br35     1.0000 0.56005  0.42290  0.13709  Biso   1.000  Br
  Br36     1.0000 0.86284  0.43995  0.13709  Biso   1.000  Br
  Br37     1.0000 0.33330  0.66670  0.91670  Biso   1.000  Br
  Br38     1.0000 0.66670  0.33330  0.58330  Biso   1.000  Br
  Br39     1.0000 0.99997  0.00003  0.25003  Biso   1.000  Br
  Br40     1.0000 0.66670  0.33330  0.08330  Biso   1.000  Br
  Br41     1.0000 0.33330  0.66670  0.41670  Biso   1.000  Br
  Br42     1.0000 0.99997  0.00003  0.75003  Biso   1.000  Br
  Br43     1.0000 0.33330  0.66670  0.02211  Biso   1.000  Br
  Br44     1.0000 0.66670  0.33330  0.47789  Biso   1.000  Br
  Br45     1.0000 0.99997  0.00003  0.35544  Biso   1.000  Br
  Br46     1.0000 0.33337  0.66663  0.81123  Biso   1.000  Br
  Br47     1.0000 0.66663  0.33337  0.68877  Biso   1.000  Br
  Br48     1.0000 0.00003  0.99997  0.14456  Biso   1.000  Br
  Br49     1.0000 0.66670  0.33330  0.97789  Biso   1.000  Br
  Br50     1.0000 0.33330  0.66670  0.52211  Biso   1.000  Br
  Br51     1.0000 0.33337  0.66663  0.31123  Biso   1.000  Br
  Br52     1.0000 0.99997  0.00003  0.85544  Biso   1.000  Br
  Br53     1.0000 0.00003  0.99997  0.64456  Biso   1.000  Br
  Br54     1.0000 0.66663  0.33337  0.18877  Biso   1.000  Br
  Cu1      1.0000 0.33330  0.66670  0.95620  Biso   1.000  Cu
  Cu2      1.0000 0.66670  0.33330  0.54380  Biso   1.000  Cu
  Cu3      1.0000 0.99997  0.00003  0.28953  Biso   1.000  Cu
  Cu4      1.0000 0.33337  0.66663  0.87713  Biso   1.000  Cu
  Cu5      1.0000 0.66663  0.33337  0.62287  Biso   1.000  Cu
  Cu6      1.0000 0.00003  0.99997  0.21047  Biso   1.000  Cu
  Cu7      1.0000 0.66670  0.33330  0.04380  Biso   1.000  Cu
  Cu8      1.0000 0.33330  0.66670  0.45620  Biso   1.000  Cu
  Cu9      1.0000 0.33337  0.66663  0.37713  Biso   1.000  Cu
  Cu10     1.0000 0.99997  0.00003  0.78953  Biso   1.000  Cu
  Cu11     1.0000 0.00003  0.99997  0.71047  Biso   1.000  Cu
  Cu12     1.0000 0.66663  0.33337  0.12287  Biso   1.000  Cu
  Cu13     1.0000 0.39480  0.58448  0.99169  Biso   1.000  Cu
  Cu14     1.0000 0.41552  0.81032  0.99169  Biso   1.000  Cu
  Cu15     1.0000 0.18968  0.60520  0.99169  Biso   1.000  Cu
  Cu16     1.0000 0.58448  0.39480  0.50831  Biso   1.000  Cu
  Cu17     1.0000 0.81032  0.41552  0.50831  Biso   1.000  Cu
  Cu18     1.0000 0.60520  0.18968  0.50831  Biso   1.000  Cu
  Cu19     1.0000 0.06147  0.91781  0.32503  Biso   1.000  Cu
  Cu20     1.0000 0.08219  0.14365  0.32503  Biso   1.000  Cu
  Cu21     1.0000 0.85635  0.93853  0.32503  Biso   1.000  Cu
  Cu22     1.0000 0.25115  0.72813  0.84164  Biso   1.000  Cu
  Cu23     1.0000 0.47699  0.74885  0.84164  Biso   1.000  Cu
  Cu24     1.0000 0.27187  0.52301  0.84164  Biso   1.000  Cu
  Cu25     1.0000 0.72813  0.25115  0.65836  Biso   1.000  Cu
  Cu26     1.0000 0.74885  0.47699  0.65836  Biso   1.000  Cu
  Cu27     1.0000 0.52301  0.27187  0.65836  Biso   1.000  Cu
  Cu28     1.0000 0.91781  0.06147  0.17497  Biso   1.000  Cu
  Cu29     1.0000 0.14365  0.08219  0.17497  Biso   1.000  Cu
  Cu30     1.0000 0.93853  0.85635  0.17497  Biso   1.000  Cu
  Cu31     1.0000 0.60520  0.41552  0.00831  Biso   1.000  Cu
  Cu32     1.0000 0.58448  0.18968  0.00831  Biso   1.000  Cu
  Cu33     1.0000 0.81032  0.39480  0.00831  Biso   1.000  Cu
  Cu34     1.0000 0.41552  0.60520  0.49169  Biso   1.000  Cu
  Cu35     1.0000 0.18968  0.58448  0.49169  Biso   1.000  Cu
  Cu36     1.0000 0.39480  0.81032  0.49169  Biso   1.000  Cu
  Cu37     1.0000 0.27187  0.74885  0.34164  Biso   1.000  Cu
  Cu38     1.0000 0.25115  0.52301  0.34164  Biso   1.000  Cu
  Cu39     1.0000 0.47699  0.72813  0.34164  Biso   1.000  Cu
  Cu40     1.0000 0.08219  0.93853  0.82503  Biso   1.000  Cu
  Cu41     1.0000 0.85635  0.91781  0.82503  Biso   1.000  Cu
  Cu42     1.0000 0.06147  0.14365  0.82503  Biso   1.000  Cu
  Cu43     1.0000 0.93853  0.08219  0.67497  Biso   1.000  Cu
  Cu44     1.0000 0.91781  0.85635  0.67497  Biso   1.000  Cu
  Cu45     1.0000 0.14365  0.06147  0.67497  Biso   1.000  Cu
  Cu46     1.0000 0.74885  0.27187  0.15836  Biso   1.000  Cu
  Cu47     1.0000 0.52301  0.25115  0.15836  Biso   1.000  Cu
  Cu48     1.0000 0.72813  0.47699  0.15836  Biso   1.000  Cu
  Br55     1.0000 0.50000  0.50000  0.00000  Biso   1.000  Br
  Br56     1.0000 0.50000  0.00000  0.00000  Biso   1.000  Br
  Br57     1.0000 0.00000  0.50000  0.00000  Biso   1.000  Br
  Br58     1.0000 0.50000  0.50000  0.50000  Biso   1.000  Br
  Br59     1.0000 0.00000  0.50000  0.50000  Biso   1.000  Br
  Br60     1.0000 0.50000  0.00000  0.50000  Biso   1.000  Br
  Br61     1.0000 0.16667  0.83333  0.33333  Biso   1.000  Br
  Br62     1.0000 0.16667  0.33333  0.33333  Biso   1.000  Br
  Br63     1.0000 0.66667  0.83333  0.33333  Biso   1.000  Br
  Br64     1.0000 0.16667  0.83333  0.83333  Biso   1.000  Br
  Br65     1.0000 0.66667  0.83333  0.83333  Biso   1.000  Br
  Br66     1.0000 0.16667  0.33333  0.83333  Biso   1.000  Br
  Br67     1.0000 0.83333  0.16667  0.66667  Biso   1.000  Br
  Br68     1.0000 0.83333  0.66667  0.66667  Biso   1.000  Br
  Br69     1.0000 0.33333  0.16667  0.66667  Biso   1.000  Br
  Br70     1.0000 0.83333  0.16667  0.16667  Biso   1.000  Br
  Br71     1.0000 0.33333  0.16667  0.16667  Biso   1.000  Br
  Br72     1.0000 0.83333  0.66667  0.16667  Biso   1.000  Br
  Ni1      1.0000 0.00000  0.00000  0.06369  Biso   1.000  Ni
  Ni2      1.0000 0.00000  0.00000  0.43631  Biso   1.000  Ni
  Ni3      1.0000 0.66667  0.33333  0.39702  Biso   1.000  Ni
  Ni4      1.0000 0.66667  0.33333  0.76965  Biso   1.000  Ni
  Ni5      1.0000 0.33333  0.66667  0.73035  Biso   1.000  Ni
  Ni6      1.0000 0.33333  0.66667  0.10298  Biso   1.000  Ni
  Ni7      1.0000 0.00000  0.00000  0.93631  Biso   1.000  Ni
  Ni8      1.0000 0.00000  0.00000  0.56369  Biso   1.000  Ni
  Ni9      1.0000 0.66667  0.33333  0.26965  Biso   1.000  Ni
  Ni10     1.0000 0.66667  0.33333  0.89702  Biso   1.000  Ni
  Ni11     1.0000 0.33333  0.66667  0.60298  Biso   1.000  Ni
  Ni12     1.0000 0.33333  0.66667  0.23035  Biso   1.000  Ni
  N1       1.0000 0.92090  0.06630  0.08037  Biso   1.000  N
  N2       1.0000 0.93370  0.85460  0.08037  Biso   1.000  N
  N3       1.0000 0.14540  0.07910  0.08037  Biso   1.000  N
  N4       1.0000 0.06630  0.92090  0.41963  Biso   1.000  N
  N5       1.0000 0.85460  0.93370  0.41963  Biso   1.000  N
  N6       1.0000 0.07910  0.14540  0.41963  Biso   1.000  N
  N7       1.0000 0.58757  0.39963  0.41370  Biso   1.000  N
  N8       1.0000 0.60037  0.18793  0.41370  Biso   1.000  N
  N9       1.0000 0.81207  0.41243  0.41370  Biso   1.000  N
  N10      1.0000 0.73297  0.25423  0.75296  Biso   1.000  N
  N11      1.0000 0.52127  0.26703  0.75296  Biso   1.000  N
  N12      1.0000 0.74577  0.47873  0.75296  Biso   1.000  N
  N13      1.0000 0.25423  0.73297  0.74704  Biso   1.000  N
  N14      1.0000 0.26703  0.52127  0.74704  Biso   1.000  N
  N15      1.0000 0.47873  0.74577  0.74704  Biso   1.000  N
  N16      1.0000 0.39963  0.58757  0.08630  Biso   1.000  N
  N17      1.0000 0.18793  0.60037  0.08630  Biso   1.000  N
  N18      1.0000 0.41243  0.81207  0.08630  Biso   1.000  N
  N19      1.0000 0.07910  0.93370  0.91963  Biso   1.000  N
  N20      1.0000 0.06630  0.14540  0.91963  Biso   1.000  N
  N21      1.0000 0.85460  0.92090  0.91963  Biso   1.000  N
  N22      1.0000 0.93370  0.07910  0.58037  Biso   1.000  N
  N23      1.0000 0.14540  0.06630  0.58037  Biso   1.000  N
  N24      1.0000 0.92090  0.85460  0.58037  Biso   1.000  N
  N25      1.0000 0.74577  0.26703  0.25296  Biso   1.000  N
  N26      1.0000 0.73297  0.47873  0.25296  Biso   1.000  N
  N27      1.0000 0.52127  0.25423  0.25296  Biso   1.000  N
  N28      1.0000 0.60037  0.41243  0.91370  Biso   1.000  N
  N29      1.0000 0.81207  0.39963  0.91370  Biso   1.000  N
  N30      1.0000 0.58757  0.18793  0.91370  Biso   1.000  N
  N31      1.0000 0.41243  0.60037  0.58630  Biso   1.000  N
  N32      1.0000 0.39963  0.81207  0.58630  Biso   1.000  N
  N33      1.0000 0.18793  0.58757  0.58630  Biso   1.000  N
  N34      1.0000 0.26703  0.74577  0.24704  Biso   1.000  N
  N35      1.0000 0.47873  0.73297  0.24704  Biso   1.000  N
  N36      1.0000 0.25423  0.52127  0.24704  Biso   1.000  N
  N37      1.0000 0.04910  0.14200  0.04614  Biso   1.000  N
  N38      1.0000 0.85800  0.90710  0.04614  Biso   1.000  N
  N39      1.0000 0.09290  0.95090  0.04614  Biso   1.000  N
  N40      1.0000 0.14200  0.04910  0.45386  Biso   1.000  N
  N41      1.0000 0.90710  0.85800  0.45386  Biso   1.000  N
  N42      1.0000 0.95090  0.09290  0.45386  Biso   1.000  N
  N43      1.0000 0.71577  0.47533  0.37947  Biso   1.000  N
  N44      1.0000 0.52467  0.24043  0.37947  Biso   1.000  N
  N45      1.0000 0.75957  0.28423  0.37947  Biso   1.000  N
  N46      1.0000 0.80867  0.38243  0.78719  Biso   1.000  N
  N47      1.0000 0.57377  0.19133  0.78719  Biso   1.000  N
  N48      1.0000 0.61757  0.42623  0.78719  Biso   1.000  N
  N49      1.0000 0.38243  0.80867  0.71281  Biso   1.000  N
  N50      1.0000 0.19133  0.57377  0.71281  Biso   1.000  N
  N51      1.0000 0.42623  0.61757  0.71281  Biso   1.000  N
  N52      1.0000 0.47533  0.71577  0.12053  Biso   1.000  N
  N53      1.0000 0.24043  0.52467  0.12053  Biso   1.000  N
  N54      1.0000 0.28423  0.75957  0.12053  Biso   1.000  N
  N55      1.0000 0.95090  0.85800  0.95386  Biso   1.000  N
  N56      1.0000 0.14200  0.09290  0.95386  Biso   1.000  N
  N57      1.0000 0.90710  0.04910  0.95386  Biso   1.000  N
  N58      1.0000 0.85800  0.95090  0.54614  Biso   1.000  N
  N59      1.0000 0.09290  0.14200  0.54614  Biso   1.000  N
  N60      1.0000 0.04910  0.90710  0.54614  Biso   1.000  N
  N61      1.0000 0.61757  0.19133  0.28719  Biso   1.000  N
  N62      1.0000 0.80867  0.42623  0.28719  Biso   1.000  N
  N63      1.0000 0.57377  0.38243  0.28719  Biso   1.000  N
  N64      1.0000 0.52467  0.28423  0.87947  Biso   1.000  N
  N65      1.0000 0.75957  0.47533  0.87947  Biso   1.000  N
  N66      1.0000 0.71577  0.24043  0.87947  Biso   1.000  N
  N67      1.0000 0.28423  0.52467  0.62053  Biso   1.000  N
  N68      1.0000 0.47533  0.75957  0.62053  Biso   1.000  N
  N69      1.0000 0.24043  0.71577  0.62053  Biso   1.000  N
  N70      1.0000 0.19133  0.61757  0.21281  Biso   1.000  N
  N71      1.0000 0.42623  0.80867  0.21281  Biso   1.000  N
  N72      1.0000 0.38243  0.57377  0.21281  Biso   1.000  N
  C1       1.0000 0.85450  0.02240  0.09776  Biso   1.000  C
  C2       1.0000 0.97760  0.83210  0.09776  Biso   1.000  C
  C3       1.0000 0.16790  0.14550  0.09776  Biso   1.000  C
  C4       1.0000 0.02240  0.85450  0.40224  Biso   1.000  C
  C5       1.0000 0.83210  0.97760  0.40224  Biso   1.000  C
  C6       1.0000 0.14550  0.16790  0.40224  Biso   1.000  C
  C7       1.0000 0.52117  0.35573  0.43109  Biso   1.000  C
  C8       1.0000 0.64427  0.16543  0.43109  Biso   1.000  C
  C9       1.0000 0.83457  0.47883  0.43109  Biso   1.000  C
  C10      1.0000 0.68907  0.18783  0.73557  Biso   1.000  C
  C11      1.0000 0.49877  0.31093  0.73557  Biso   1.000  C
  C12      1.0000 0.81217  0.50123  0.73557  Biso   1.000  C
  C13      1.0000 0.18783  0.68907  0.76443  Biso   1.000  C
  C14      1.0000 0.31093  0.49877  0.76443  Biso   1.000  C
  C15      1.0000 0.50123  0.81217  0.76443  Biso   1.000  C
  C16      1.0000 0.35573  0.52117  0.06891  Biso   1.000  C
  C17      1.0000 0.16543  0.64427  0.06891  Biso   1.000  C
  C18      1.0000 0.47883  0.83457  0.06891  Biso   1.000  C
  C19      1.0000 0.14550  0.97760  0.90224  Biso   1.000  C
  C20      1.0000 0.02240  0.16790  0.90224  Biso   1.000  C
  C21      1.0000 0.83210  0.85450  0.90224  Biso   1.000  C
  C22      1.0000 0.97760  0.14550  0.59776  Biso   1.000  C
  C23      1.0000 0.16790  0.02240  0.59776  Biso   1.000  C
  C24      1.0000 0.85450  0.83210  0.59776  Biso   1.000  C
  C25      1.0000 0.81217  0.31093  0.23557  Biso   1.000  C
  C26      1.0000 0.68907  0.50123  0.23557  Biso   1.000  C
  C27      1.0000 0.49877  0.18783  0.23557  Biso   1.000  C
  C28      1.0000 0.64427  0.47883  0.93109  Biso   1.000  C
  C29      1.0000 0.83457  0.35573  0.93109  Biso   1.000  C
  C30      1.0000 0.52117  0.16543  0.93109  Biso   1.000  C
  C31      1.0000 0.47883  0.64427  0.56891  Biso   1.000  C
  C32      1.0000 0.35573  0.83457  0.56891  Biso   1.000  C
  C33      1.0000 0.16543  0.52117  0.56891  Biso   1.000  C
  C34      1.0000 0.31093  0.81217  0.26443  Biso   1.000  C
  C35      1.0000 0.50123  0.68907  0.26443  Biso   1.000  C
  C36      1.0000 0.18783  0.49877  0.26443  Biso   1.000  C
  H1       1.0000 0.85120  0.96190  0.10440  Biso   1.000  H
  H2       1.0000 0.03810  0.88930  0.10440  Biso   1.000  H
  H3       1.0000 0.11070  0.14880  0.10440  Biso   1.000  H
  H4       1.0000 0.96190  0.85120  0.39560  Biso   1.000  H
  H5       1.0000 0.88930  0.03810  0.39560  Biso   1.000  H
  H6       1.0000 0.14880  0.11070  0.39560  Biso   1.000  H
  H7       1.0000 0.51787  0.29523  0.43773  Biso   1.000  H
  H8       1.0000 0.70477  0.22263  0.43773  Biso   1.000  H
  H9       1.0000 0.77737  0.48213  0.43773  Biso   1.000  H
  H10      1.0000 0.62857  0.18453  0.72893  Biso   1.000  H
  H11      1.0000 0.55597  0.37143  0.72893  Biso   1.000  H
  H12      1.0000 0.81547  0.44403  0.72893  Biso   1.000  H
  H13      1.0000 0.18453  0.62857  0.77107  Biso   1.000  H
  H14      1.0000 0.37143  0.55597  0.77107  Biso   1.000  H
  H15      1.0000 0.44403  0.81547  0.77107  Biso   1.000  H
  H16      1.0000 0.29523  0.51787  0.06227  Biso   1.000  H
  H17      1.0000 0.22263  0.70477  0.06227  Biso   1.000  H
  H18      1.0000 0.48213  0.77737  0.06227  Biso   1.000  H
  H19      1.0000 0.14880  0.03810  0.89560  Biso   1.000  H
  H20      1.0000 0.96190  0.11070  0.89560  Biso   1.000  H
  H21      1.0000 0.88930  0.85120  0.89560  Biso   1.000  H
  H22      1.0000 0.03810  0.14880  0.60440  Biso   1.000  H
  H23      1.0000 0.11070  0.96190  0.60440  Biso   1.000  H
  H24      1.0000 0.85120  0.88930  0.60440  Biso   1.000  H
  H25      1.0000 0.81547  0.37143  0.22893  Biso   1.000  H
  H26      1.0000 0.62857  0.44403  0.22893  Biso   1.000  H
  H27      1.0000 0.55597  0.18453  0.22893  Biso   1.000  H
  H28      1.0000 0.70477  0.48213  0.93773  Biso   1.000  H
  H29      1.0000 0.77737  0.29523  0.93773  Biso   1.000  H
  H30      1.0000 0.51787  0.22263  0.93773  Biso   1.000  H
  H31      1.0000 0.48213  0.70477  0.56227  Biso   1.000  H
  H32      1.0000 0.29523  0.77737  0.56227  Biso   1.000  H
  H33      1.0000 0.22263  0.51787  0.56227  Biso   1.000  H
  H34      1.0000 0.37143  0.81547  0.27107  Biso   1.000  H
  H35      1.0000 0.44403  0.62857  0.27107  Biso   1.000  H
  H36      1.0000 0.18453  0.55597  0.27107  Biso   1.000  H
  C37      1.0000 0.12310  0.18190  0.03003  Biso   1.000  C
  C38      1.0000 0.81810  0.94120  0.03003  Biso   1.000  C
  C39      1.0000 0.05880  0.87690  0.03003  Biso   1.000  C
  C40      1.0000 0.18190  0.12310  0.46997  Biso   1.000  C
  C41      1.0000 0.94120  0.81810  0.46997  Biso   1.000  C
  C42      1.0000 0.87690  0.05880  0.46997  Biso   1.000  C
  C43      1.0000 0.78977  0.51523  0.36336  Biso   1.000  C
  C44      1.0000 0.48477  0.27453  0.36336  Biso   1.000  C
  C45      1.0000 0.72547  0.21023  0.36336  Biso   1.000  C
  C46      1.0000 0.84857  0.45643  0.80330  Biso   1.000  C
  C47      1.0000 0.60787  0.15143  0.80330  Biso   1.000  C
  C48      1.0000 0.54357  0.39213  0.80330  Biso   1.000  C
  C49      1.0000 0.45643  0.84857  0.69670  Biso   1.000  C
  C50      1.0000 0.15143  0.60787  0.69670  Biso   1.000  C
  C51      1.0000 0.39213  0.54357  0.69670  Biso   1.000  C
  C52      1.0000 0.51523  0.78977  0.13664  Biso   1.000  C
  C53      1.0000 0.27453  0.48477  0.13664  Biso   1.000  C
  C54      1.0000 0.21023  0.72547  0.13664  Biso   1.000  C
  C55      1.0000 0.87690  0.81810  0.96997  Biso   1.000  C
  C56      1.0000 0.18190  0.05880  0.96997  Biso   1.000  C
  C57      1.0000 0.94120  0.12310  0.96997  Biso   1.000  C
  C58      1.0000 0.81810  0.87690  0.53003  Biso   1.000  C
  C59      1.0000 0.05880  0.18190  0.53003  Biso   1.000  C
  C60      1.0000 0.12310  0.94120  0.53003  Biso   1.000  C
  C61      1.0000 0.54357  0.15143  0.30330  Biso   1.000  C
  C62      1.0000 0.84857  0.39213  0.30330  Biso   1.000  C
  C63      1.0000 0.60787  0.45643  0.30330  Biso   1.000  C
  C64      1.0000 0.48477  0.21023  0.86336  Biso   1.000  C
  C65      1.0000 0.72547  0.51523  0.86336  Biso   1.000  C
  C66      1.0000 0.78977  0.27453  0.86336  Biso   1.000  C
  C67      1.0000 0.21023  0.48477  0.63664  Biso   1.000  C
  C68      1.0000 0.51523  0.72547  0.63664  Biso   1.000  C
  C69      1.0000 0.27453  0.78977  0.63664  Biso   1.000  C
  C70      1.0000 0.15143  0.54357  0.19670  Biso   1.000  C
  C71      1.0000 0.39213  0.84857  0.19670  Biso   1.000  C
  C72      1.0000 0.45643  0.60787  0.19670  Biso   1.000  C
  H37      1.0000 0.15240  0.13990  0.02510  Biso   1.000  H
  H38      1.0000 0.86010  0.01250  0.02510  Biso   1.000  H
  H39      1.0000 0.98750  0.84760  0.02510  Biso   1.000  H
  H40      1.0000 0.13990  0.15240  0.47490  Biso   1.000  H
  H41      1.0000 0.01250  0.86010  0.47490  Biso   1.000  H
  H42      1.0000 0.84760  0.98750  0.47490  Biso   1.000  H
  H43      1.0000 0.81907  0.47323  0.35843  Biso   1.000  H
  H44      1.0000 0.52677  0.34583  0.35843  Biso   1.000  H
  H45      1.0000 0.65417  0.18093  0.35843  Biso   1.000  H
  H46      1.0000 0.80657  0.48573  0.80823  Biso   1.000  H
  H47      1.0000 0.67917  0.19343  0.80823  Biso   1.000  H
  H48      1.0000 0.51427  0.32083  0.80823  Biso   1.000  H
  H49      1.0000 0.48573  0.80657  0.69177  Biso   1.000  H
  H50      1.0000 0.19343  0.67917  0.69177  Biso   1.000  H
  H51      1.0000 0.32083  0.51427  0.69177  Biso   1.000  H
  H52      1.0000 0.47323  0.81907  0.14157  Biso   1.000  H
  H53      1.0000 0.34583  0.52677  0.14157  Biso   1.000  H
  H54      1.0000 0.18093  0.65417  0.14157  Biso   1.000  H
  H55      1.0000 0.84760  0.86010  0.97490  Biso   1.000  H
  H56      1.0000 0.13990  0.98750  0.97490  Biso   1.000  H
  H57      1.0000 0.01250  0.15240  0.97490  Biso   1.000  H
  H58      1.0000 0.86010  0.84760  0.52510  Biso   1.000  H
  H59      1.0000 0.98750  0.13990  0.52510  Biso   1.000  H
  H60      1.0000 0.15240  0.01250  0.52510  Biso   1.000  H
  H61      1.0000 0.51427  0.19343  0.30823  Biso   1.000  H
  H62      1.0000 0.80657  0.32083  0.30823  Biso   1.000  H
  H63      1.0000 0.67917  0.48573  0.30823  Biso   1.000  H
  H64      1.0000 0.52677  0.18093  0.85843  Biso   1.000  H
  H65      1.0000 0.65417  0.47323  0.85843  Biso   1.000  H
  H66      1.0000 0.81907  0.34583  0.85843  Biso   1.000  H
  H67      1.0000 0.18093  0.52677  0.64157  Biso   1.000  H
  H68      1.0000 0.47323  0.65417  0.64157  Biso   1.000  H
  H69      1.0000 0.34583  0.81907  0.64157  Biso   1.000  H
  H70      1.0000 0.19343  0.51427  0.19177  Biso   1.000  H
  H71      1.0000 0.32083  0.80657  0.19177  Biso   1.000  H
  H72      1.0000 0.48573  0.67917  0.19177  Biso   1.000  H
  C73      1.0000 0.86110  0.19680  0.07842  Biso   1.000  C
  C74      1.0000 0.80320  0.66430  0.07842  Biso   1.000  C
  C75      1.0000 0.33570  0.13890  0.07842  Biso   1.000  C
  C76      1.0000 0.19680  0.86110  0.42158  Biso   1.000  C
  C77      1.0000 0.66430  0.80320  0.42158  Biso   1.000  C
  C78      1.0000 0.13890  0.33570  0.42158  Biso   1.000  C
  C79      1.0000 0.52777  0.53013  0.41175  Biso   1.000  C
  C80      1.0000 0.46987  0.99763  0.41175  Biso   1.000  C
  C81      1.0000 0.00237  0.47223  0.41175  Biso   1.000  C
  C82      1.0000 0.86347  0.19443  0.75491  Biso   1.000  C
  C83      1.0000 0.33097  0.13653  0.75491  Biso   1.000  C
  C84      1.0000 0.80557  0.66903  0.75491  Biso   1.000  C
  C85      1.0000 0.19443  0.86347  0.74509  Biso   1.000  C
  C86      1.0000 0.13653  0.33097  0.74509  Biso   1.000  C
  C87      1.0000 0.66903  0.80557  0.74509  Biso   1.000  C
  C88      1.0000 0.53013  0.52777  0.08825  Biso   1.000  C
  C89      1.0000 0.99763  0.46987  0.08825  Biso   1.000  C
  C90      1.0000 0.47223  0.00237  0.08825  Biso   1.000  C
  C91      1.0000 0.13890  0.80320  0.92158  Biso   1.000  C
  C92      1.0000 0.19680  0.33570  0.92158  Biso   1.000  C
  C93      1.0000 0.66430  0.86110  0.92158  Biso   1.000  C
  C94      1.0000 0.80320  0.13890  0.57842  Biso   1.000  C
  C95      1.0000 0.33570  0.19680  0.57842  Biso   1.000  C
  C96      1.0000 0.86110  0.66430  0.57842  Biso   1.000  C
  C97      1.0000 0.80557  0.13653  0.25491  Biso   1.000  C
  C98      1.0000 0.86347  0.66903  0.25491  Biso   1.000  C
  C99      1.0000 0.33097  0.19443  0.25491  Biso   1.000  C
  C100     1.0000 0.46987  0.47223  0.91175  Biso   1.000  C
  C101     1.0000 0.00237  0.53013  0.91175  Biso   1.000  C
  C102     1.0000 0.52777  0.99763  0.91175  Biso   1.000  C
  C103     1.0000 0.47223  0.46987  0.58825  Biso   1.000  C
  C104     1.0000 0.53013  0.00237  0.58825  Biso   1.000  C
  C105     1.0000 0.99763  0.52777  0.58825  Biso   1.000  C
  C106     1.0000 0.13653  0.80557  0.24509  Biso   1.000  C
  C107     1.0000 0.66903  0.86347  0.24509  Biso   1.000  C
  C108     1.0000 0.19443  0.33097  0.24509  Biso   1.000  C
  H73      1.0000 0.86240  0.25550  0.07130  Biso   1.000  H
  H74      1.0000 0.74450  0.60690  0.07130  Biso   1.000  H
  H75      1.0000 0.39310  0.13760  0.07130  Biso   1.000  H
  H76      1.0000 0.25550  0.86240  0.42870  Biso   1.000  H
  H77      1.0000 0.60690  0.74450  0.42870  Biso   1.000  H
  H78      1.0000 0.13760  0.39310  0.42870  Biso   1.000  H
  H79      1.0000 0.52907  0.58883  0.40463  Biso   1.000  H
  H80      1.0000 0.41117  0.94023  0.40463  Biso   1.000  H
  H81      1.0000 0.05977  0.47093  0.40463  Biso   1.000  H
  H82      1.0000 0.92217  0.19573  0.76203  Biso   1.000  H
  H83      1.0000 0.27357  0.07783  0.76203  Biso   1.000  H
  H84      1.0000 0.80427  0.72643  0.76203  Biso   1.000  H
  H85      1.0000 0.19573  0.92217  0.73797  Biso   1.000  H
  H86      1.0000 0.07783  0.27357  0.73797  Biso   1.000  H
  H87      1.0000 0.72643  0.80427  0.73797  Biso   1.000  H
  H88      1.0000 0.58883  0.52907  0.09537  Biso   1.000  H
  H89      1.0000 0.94023  0.41117  0.09537  Biso   1.000  H
  H90      1.0000 0.47093  0.05977  0.09537  Biso   1.000  H
  H91      1.0000 0.13760  0.74450  0.92870  Biso   1.000  H
  H92      1.0000 0.25550  0.39310  0.92870  Biso   1.000  H
  H93      1.0000 0.60690  0.86240  0.92870  Biso   1.000  H
  H94      1.0000 0.74450  0.13760  0.57130  Biso   1.000  H
  H95      1.0000 0.39310  0.25550  0.57130  Biso   1.000  H
  H96      1.0000 0.86240  0.60690  0.57130  Biso   1.000  H
  H97      1.0000 0.80427  0.07783  0.26203  Biso   1.000  H
  H98      1.0000 0.92217  0.72643  0.26203  Biso   1.000  H
  H99      1.0000 0.27357  0.19573  0.26203  Biso   1.000  H
  H100     1.0000 0.41117  0.47093  0.90463  Biso   1.000  H
  H101     1.0000 0.05977  0.58883  0.90463  Biso   1.000  H
  H102     1.0000 0.52907  0.94023  0.90463  Biso   1.000  H
  H103     1.0000 0.47093  0.41117  0.59537  Biso   1.000  H
  H104     1.0000 0.58883  0.05977  0.59537  Biso   1.000  H
  H105     1.0000 0.94023  0.52907  0.59537  Biso   1.000  H
  H106     1.0000 0.07783  0.80427  0.23797  Biso   1.000  H
  H107     1.0000 0.72643  0.92217  0.23797  Biso   1.000  H
  H108     1.0000 0.19573  0.27357  0.23797  Biso   1.000  H
  C109     1.0000 0.79480  0.15100  0.09595  Biso   1.000  C
  C110     1.0000 0.84900  0.64380  0.09595  Biso   1.000  C
  C111     1.0000 0.35620  0.20520  0.09595  Biso   1.000  C
  C112     1.0000 0.15100  0.79480  0.40405  Biso   1.000  C
  C113     1.0000 0.64380  0.84900  0.40405  Biso   1.000  C
  C114     1.0000 0.20520  0.35620  0.40405  Biso   1.000  C
  C115     1.0000 0.46147  0.48433  0.42928  Biso   1.000  C
  C116     1.0000 0.51567  0.97713  0.42928  Biso   1.000  C
  C117     1.0000 0.02287  0.53853  0.42928  Biso   1.000  C
  C118     1.0000 0.81767  0.12813  0.73738  Biso   1.000  C
  C119     1.0000 0.31047  0.18233  0.73738  Biso   1.000  C
  C120     1.0000 0.87187  0.68953  0.73738  Biso   1.000  C
  C121     1.0000 0.12813  0.81767  0.76262  Biso   1.000  C
  C122     1.0000 0.18233  0.31047  0.76262  Biso   1.000  C
  C123     1.0000 0.68953  0.87187  0.76262  Biso   1.000  C
  C124     1.0000 0.48433  0.46147  0.07072  Biso   1.000  C
  C125     1.0000 0.97713  0.51567  0.07072  Biso   1.000  C
  C126     1.0000 0.53853  0.02287  0.07072  Biso   1.000  C
  C127     1.0000 0.20520  0.84900  0.90405  Biso   1.000  C
  C128     1.0000 0.15100  0.35620  0.90405  Biso   1.000  C
  C129     1.0000 0.64380  0.79480  0.90405  Biso   1.000  C
  C130     1.0000 0.84900  0.20520  0.59595  Biso   1.000  C
  C131     1.0000 0.35620  0.15100  0.59595  Biso   1.000  C
  C132     1.0000 0.79480  0.64380  0.59595  Biso   1.000  C
  C133     1.0000 0.87187  0.18233  0.23738  Biso   1.000  C
  C134     1.0000 0.81767  0.68953  0.23738  Biso   1.000  C
  C135     1.0000 0.31047  0.12813  0.23738  Biso   1.000  C
  C136     1.0000 0.51567  0.53853  0.92928  Biso   1.000  C
  C137     1.0000 0.02287  0.48433  0.92928  Biso   1.000  C
  C138     1.0000 0.46147  0.97713  0.92928  Biso   1.000  C
  C139     1.0000 0.53853  0.51567  0.57072  Biso   1.000  C
  C140     1.0000 0.48433  0.02287  0.57072  Biso   1.000  C
  C141     1.0000 0.97713  0.46147  0.57072  Biso   1.000  C
  C142     1.0000 0.18233  0.87187  0.26262  Biso   1.000  C
  C143     1.0000 0.68953  0.81767  0.26262  Biso   1.000  C
  C144     1.0000 0.12813  0.31047  0.26262  Biso   1.000  C
  H109     1.0000 0.75200  0.17910  0.10100  Biso   1.000  H
  H110     1.0000 0.82090  0.57290  0.10100  Biso   1.000  H
  H111     1.0000 0.42710  0.24800  0.10100  Biso   1.000  H
  H112     1.0000 0.17910  0.75200  0.39900  Biso   1.000  H
  H113     1.0000 0.57290  0.82090  0.39900  Biso   1.000  H
  H114     1.0000 0.24800  0.42710  0.39900  Biso   1.000  H
  H115     1.0000 0.41867  0.51243  0.43433  Biso   1.000  H
  H116     1.0000 0.48757  0.90623  0.43433  Biso   1.000  H
  H117     1.0000 0.09377  0.58133  0.43433  Biso   1.000  H
  H118     1.0000 0.84577  0.08533  0.73233  Biso   1.000  H
  H119     1.0000 0.23957  0.15423  0.73233  Biso   1.000  H
  H120     1.0000 0.91467  0.76043  0.73233  Biso   1.000  H
  H121     1.0000 0.08533  0.84577  0.76767  Biso   1.000  H
  H122     1.0000 0.15423  0.23957  0.76767  Biso   1.000  H
  H123     1.0000 0.76043  0.91467  0.76767  Biso   1.000  H
  H124     1.0000 0.51243  0.41867  0.06567  Biso   1.000  H
  H125     1.0000 0.90623  0.48757  0.06567  Biso   1.000  H
  H126     1.0000 0.58133  0.09377  0.06567  Biso   1.000  H
  H127     1.0000 0.24800  0.82090  0.89900  Biso   1.000  H
  H128     1.0000 0.17910  0.42710  0.89900  Biso   1.000  H
  H129     1.0000 0.57290  0.75200  0.89900  Biso   1.000  H
  H130     1.0000 0.82090  0.24800  0.60100  Biso   1.000  H
  H131     1.0000 0.42710  0.17910  0.60100  Biso   1.000  H
  H132     1.0000 0.75200  0.57290  0.60100  Biso   1.000  H
  H133     1.0000 0.91467  0.15423  0.23233  Biso   1.000  H
  H134     1.0000 0.84577  0.76043  0.23233  Biso   1.000  H
  H135     1.0000 0.23957  0.08533  0.23233  Biso   1.000  H
  H136     1.0000 0.48757  0.58133  0.93433  Biso   1.000  H
  H137     1.0000 0.09377  0.51243  0.93433  Biso   1.000  H
  H138     1.0000 0.41867  0.90623  0.93433  Biso   1.000  H
  H139     1.0000 0.58133  0.48757  0.56567  Biso   1.000  H
  H140     1.0000 0.51243  0.09377  0.56567  Biso   1.000  H
  H141     1.0000 0.90623  0.41867  0.56567  Biso   1.000  H
  H142     1.0000 0.15423  0.91467  0.26767  Biso   1.000  H
  H143     1.0000 0.76043  0.84577  0.26767  Biso   1.000  H
  H144     1.0000 0.08533  0.23957  0.26767  Biso   1.000  H
  C145     1.0000 0.92640  0.15620  0.07115  Biso   1.000  C
  C146     1.0000 0.84380  0.77020  0.07115  Biso   1.000  C
  C147     1.0000 0.22980  0.07360  0.07115  Biso   1.000  C
  C148     1.0000 0.15620  0.92640  0.42885  Biso   1.000  C
  C149     1.0000 0.77020  0.84380  0.42885  Biso   1.000  C
  C150     1.0000 0.07360  0.22980  0.42885  Biso   1.000  C
  C151     1.0000 0.59307  0.48953  0.40448  Biso   1.000  C
  C152     1.0000 0.51047  0.10353  0.40448  Biso   1.000  C
  C153     1.0000 0.89647  0.40693  0.40448  Biso   1.000  C
  C154     1.0000 0.82287  0.25973  0.76218  Biso   1.000  C
  C155     1.0000 0.43687  0.17713  0.76218  Biso   1.000  C
  C156     1.0000 0.74027  0.56313  0.76218  Biso   1.000  C
  C157     1.0000 0.25973  0.82287  0.73782  Biso   1.000  C
  C158     1.0000 0.17713  0.43687  0.73782  Biso   1.000  C
  C159     1.0000 0.56313  0.74027  0.73782  Biso   1.000  C
  C160     1.0000 0.48953  0.59307  0.09552  Biso   1.000  C
  C161     1.0000 0.10353  0.51047  0.09552  Biso   1.000  C
  C162     1.0000 0.40693  0.89647  0.09552  Biso   1.000  C
  C163     1.0000 0.07360  0.84380  0.92885  Biso   1.000  C
  C164     1.0000 0.15620  0.22980  0.92885  Biso   1.000  C
  C165     1.0000 0.77020  0.92640  0.92885  Biso   1.000  C
  C166     1.0000 0.84380  0.07360  0.57115  Biso   1.000  C
  C167     1.0000 0.22980  0.15620  0.57115  Biso   1.000  C
  C168     1.0000 0.92640  0.77020  0.57115  Biso   1.000  C
  C169     1.0000 0.74027  0.17713  0.26218  Biso   1.000  C
  C170     1.0000 0.82287  0.56313  0.26218  Biso   1.000  C
  C171     1.0000 0.43687  0.25973  0.26218  Biso   1.000  C
  C172     1.0000 0.51047  0.40693  0.90448  Biso   1.000  C
  C173     1.0000 0.89647  0.48953  0.90448  Biso   1.000  C
  C174     1.0000 0.59307  0.10353  0.90448  Biso   1.000  C
  C175     1.0000 0.40693  0.51047  0.59552  Biso   1.000  C
  C176     1.0000 0.48953  0.89647  0.59552  Biso   1.000  C
  C177     1.0000 0.10353  0.59307  0.59552  Biso   1.000  C
  C178     1.0000 0.17713  0.74027  0.23782  Biso   1.000  C
  C179     1.0000 0.56313  0.82287  0.23782  Biso   1.000  C
  C180     1.0000 0.25973  0.43687  0.23782  Biso   1.000  C
  C181     1.0000 0.00530  0.20300  0.05299  Biso   1.000  C
  C182     1.0000 0.79700  0.80230  0.05299  Biso   1.000  C
  C183     1.0000 0.19770  0.99470  0.05299  Biso   1.000  C
  C184     1.0000 0.20300  0.00530  0.44701  Biso   1.000  C
  C185     1.0000 0.80230  0.79700  0.44701  Biso   1.000  C
  C186     1.0000 0.99470  0.19770  0.44701  Biso   1.000  C
  C187     1.0000 0.67197  0.53633  0.38632  Biso   1.000  C
  C188     1.0000 0.46367  0.13563  0.38632  Biso   1.000  C
  C189     1.0000 0.86437  0.32803  0.38632  Biso   1.000  C
  C190     1.0000 0.86967  0.33863  0.78034  Biso   1.000  C
  C191     1.0000 0.46897  0.13033  0.78034  Biso   1.000  C
  C192     1.0000 0.66137  0.53103  0.78034  Biso   1.000  C
  C193     1.0000 0.33863  0.86967  0.71966  Biso   1.000  C
  C194     1.0000 0.13033  0.46897  0.71966  Biso   1.000  C
  C195     1.0000 0.53103  0.66137  0.71966  Biso   1.000  C
  C196     1.0000 0.53633  0.67197  0.11368  Biso   1.000  C
  C197     1.0000 0.13563  0.46367  0.11368  Biso   1.000  C
  C198     1.0000 0.32803  0.86437  0.11368  Biso   1.000  C
  C199     1.0000 0.99470  0.79700  0.94701  Biso   1.000  C
  C200     1.0000 0.20300  0.19770  0.94701  Biso   1.000  C
  C201     1.0000 0.80230  0.00530  0.94701  Biso   1.000  C
  C202     1.0000 0.79700  0.99470  0.55299  Biso   1.000  C
  C203     1.0000 0.19770  0.20300  0.55299  Biso   1.000  C
  C204     1.0000 0.00530  0.80230  0.55299  Biso   1.000  C
  C205     1.0000 0.66137  0.13033  0.28034  Biso   1.000  C
  C206     1.0000 0.86967  0.53103  0.28034  Biso   1.000  C
  C207     1.0000 0.46897  0.33863  0.28034  Biso   1.000  C
  C208     1.0000 0.46367  0.32803  0.88632  Biso   1.000  C
  C209     1.0000 0.86437  0.53633  0.88632  Biso   1.000  C
  C210     1.0000 0.67197  0.13563  0.88632  Biso   1.000  C
  C211     1.0000 0.32803  0.46367  0.61368  Biso   1.000  C
  C212     1.0000 0.53633  0.86437  0.61368  Biso   1.000  C
  C213     1.0000 0.13563  0.67197  0.61368  Biso   1.000  C
  C214     1.0000 0.13033  0.66137  0.21966  Biso   1.000  C
  C215     1.0000 0.53103  0.86967  0.21966  Biso   1.000  C
  C216     1.0000 0.33863  0.46897  0.21966  Biso   1.000  C
  C217     1.0000 0.79200  0.06340  0.10593  Biso   1.000  C
  C218     1.0000 0.93660  0.72860  0.10593  Biso   1.000  C
  C219     1.0000 0.27140  0.20800  0.10593  Biso   1.000  C
  C220     1.0000 0.06340  0.79200  0.39407  Biso   1.000  C
  C221     1.0000 0.72860  0.93660  0.39407  Biso   1.000  C
  C222     1.0000 0.20800  0.27140  0.39407  Biso   1.000  C
  C223     1.0000 0.45867  0.39673  0.43926  Biso   1.000  C
  C224     1.0000 0.60327  0.06193  0.43926  Biso   1.000  C
  C225     1.0000 0.93807  0.54133  0.43926  Biso   1.000  C
  C226     1.0000 0.73007  0.12533  0.72740  Biso   1.000  C
  C227     1.0000 0.39527  0.26993  0.72740  Biso   1.000  C
  C228     1.0000 0.87467  0.60473  0.72740  Biso   1.000  C
  C229     1.0000 0.12533  0.73007  0.77260  Biso   1.000  C
  C230     1.0000 0.26993  0.39527  0.77260  Biso   1.000  C
  C231     1.0000 0.60473  0.87467  0.77260  Biso   1.000  C
  C232     1.0000 0.39673  0.45867  0.06074  Biso   1.000  C
  C233     1.0000 0.06193  0.60327  0.06074  Biso   1.000  C
  C234     1.0000 0.54133  0.93807  0.06074  Biso   1.000  C
  C235     1.0000 0.20800  0.93660  0.89407  Biso   1.000  C
  C236     1.0000 0.06340  0.27140  0.89407  Biso   1.000  C
  C237     1.0000 0.72860  0.79200  0.89407  Biso   1.000  C
  C238     1.0000 0.93660  0.20800  0.60593  Biso   1.000  C
  C239     1.0000 0.27140  0.06340  0.60593  Biso   1.000  C
  C240     1.0000 0.79200  0.72860  0.60593  Biso   1.000  C
  C241     1.0000 0.87467  0.26993  0.22740  Biso   1.000  C
  C242     1.0000 0.73007  0.60473  0.22740  Biso   1.000  C
  C243     1.0000 0.39527  0.12533  0.22740  Biso   1.000  C
  C244     1.0000 0.60327  0.54133  0.93926  Biso   1.000  C
  C245     1.0000 0.93807  0.39673  0.93926  Biso   1.000  C
  C246     1.0000 0.45867  0.06193  0.93926  Biso   1.000  C
  C247     1.0000 0.54133  0.60327  0.56074  Biso   1.000  C
  C248     1.0000 0.39673  0.93807  0.56074  Biso   1.000  C
  C249     1.0000 0.06193  0.45867  0.56074  Biso   1.000  C
  C250     1.0000 0.26993  0.87467  0.27260  Biso   1.000  C
  C251     1.0000 0.60473  0.73007  0.27260  Biso   1.000  C
  C252     1.0000 0.12533  0.39527  0.27260  Biso   1.000  C
  H145     1.0000 0.74840  0.03210  0.11810  Biso   1.000  H
  H146     1.0000 0.96790  0.71630  0.11810  Biso   1.000  H
  H147     1.0000 0.28370  0.25160  0.11810  Biso   1.000  H
  H148     1.0000 0.03210  0.74840  0.38190  Biso   1.000  H
  H149     1.0000 0.71630  0.96790  0.38190  Biso   1.000  H
  H150     1.0000 0.25160  0.28370  0.38190  Biso   1.000  H
  H151     1.0000 0.41507  0.36543  0.45143  Biso   1.000  H
  H152     1.0000 0.63457  0.04963  0.45143  Biso   1.000  H
  H153     1.0000 0.95037  0.58493  0.45143  Biso   1.000  H
  H154     1.0000 0.69877  0.08173  0.71523  Biso   1.000  H
  H155     1.0000 0.38297  0.30123  0.71523  Biso   1.000  H
  H156     1.0000 0.91827  0.61703  0.71523  Biso   1.000  H
  H157     1.0000 0.08173  0.69877  0.78477  Biso   1.000  H
  H158     1.0000 0.30123  0.38297  0.78477  Biso   1.000  H
  H159     1.0000 0.61703  0.91827  0.78477  Biso   1.000  H
  H160     1.0000 0.36543  0.41507  0.04857  Biso   1.000  H
  H161     1.0000 0.04963  0.63457  0.04857  Biso   1.000  H
  H162     1.0000 0.58493  0.95037  0.04857  Biso   1.000  H
  H163     1.0000 0.25160  0.96790  0.88190  Biso   1.000  H
  H164     1.0000 0.03210  0.28370  0.88190  Biso   1.000  H
  H165     1.0000 0.71630  0.74840  0.88190  Biso   1.000  H
  H166     1.0000 0.96790  0.25160  0.61810  Biso   1.000  H
  H167     1.0000 0.28370  0.03210  0.61810  Biso   1.000  H
  H168     1.0000 0.74840  0.71630  0.61810  Biso   1.000  H
  H169     1.0000 0.91827  0.30123  0.21523  Biso   1.000  H
  H170     1.0000 0.69877  0.61703  0.21523  Biso   1.000  H
  H171     1.0000 0.38297  0.08173  0.21523  Biso   1.000  H
  H172     1.0000 0.63457  0.58493  0.95143  Biso   1.000  H
  H173     1.0000 0.95037  0.36543  0.95143  Biso   1.000  H
  H174     1.0000 0.41507  0.04963  0.95143  Biso   1.000  H
  H175     1.0000 0.58493  0.63457  0.54857  Biso   1.000  H
  H176     1.0000 0.36543  0.95037  0.54857  Biso   1.000  H
  H177     1.0000 0.04963  0.41507  0.54857  Biso   1.000  H
  H178     1.0000 0.30123  0.91827  0.28477  Biso   1.000  H
  H179     1.0000 0.61703  0.69877  0.28477  Biso   1.000  H
  H180     1.0000 0.08173  0.38297  0.28477  Biso   1.000  H
  C253     1.0000 0.15690  0.28120  0.02071  Biso   1.000  C
  C254     1.0000 0.71880  0.87570  0.02071  Biso   1.000  C
  C255     1.0000 0.12430  0.84310  0.02071  Biso   1.000  C
  C256     1.0000 0.28120  0.15690  0.47929  Biso   1.000  C
  C257     1.0000 0.87570  0.71880  0.47929  Biso   1.000  C
  C258     1.0000 0.84310  0.12430  0.47929  Biso   1.000  C
  C259     1.0000 0.82357  0.61453  0.35404  Biso   1.000  C
  C260     1.0000 0.38547  0.20903  0.35404  Biso   1.000  C
  C261     1.0000 0.79097  0.17643  0.35404  Biso   1.000  C
  C262     1.0000 0.94787  0.49023  0.81262  Biso   1.000  C
  C263     1.0000 0.54237  0.05213  0.81262  Biso   1.000  C
  C264     1.0000 0.50977  0.45763  0.81262  Biso   1.000  C
  C265     1.0000 0.49023  0.94787  0.68738  Biso   1.000  C
  C266     1.0000 0.05213  0.54237  0.68738  Biso   1.000  C
  C267     1.0000 0.45763  0.50977  0.68738  Biso   1.000  C
  C268     1.0000 0.61453  0.82357  0.14596  Biso   1.000  C
  C269     1.0000 0.20903  0.38547  0.14596  Biso   1.000  C
  C270     1.0000 0.17643  0.79097  0.14596  Biso   1.000  C
  C271     1.0000 0.84310  0.71880  0.97929  Biso   1.000  C
  C272     1.0000 0.28120  0.12430  0.97929  Biso   1.000  C
  C273     1.0000 0.87570  0.15690  0.97929  Biso   1.000  C
  C274     1.0000 0.71880  0.84310  0.52071  Biso   1.000  C
  C275     1.0000 0.12430  0.28120  0.52071  Biso   1.000  C
  C276     1.0000 0.15690  0.87570  0.52071  Biso   1.000  C
  C277     1.0000 0.50977  0.05213  0.31262  Biso   1.000  C
  C278     1.0000 0.94787  0.45763  0.31262  Biso   1.000  C
  C279     1.0000 0.54237  0.49023  0.31262  Biso   1.000  C
  C280     1.0000 0.38547  0.17643  0.85404  Biso   1.000  C
  C281     1.0000 0.79097  0.61453  0.85404  Biso   1.000  C
  C282     1.0000 0.82357  0.20903  0.85404  Biso   1.000  C
  C283     1.0000 0.17643  0.38547  0.64596  Biso   1.000  C
  C284     1.0000 0.61453  0.79097  0.64596  Biso   1.000  C
  C285     1.0000 0.20903  0.82357  0.64596  Biso   1.000  C
  C286     1.0000 0.05213  0.50977  0.18738  Biso   1.000  C
  C287     1.0000 0.45763  0.94787  0.18738  Biso   1.000  C
  C288     1.0000 0.49023  0.54237  0.18738  Biso   1.000  C
  H181     1.0000 0.21030  0.30710  0.01000  Biso   1.000  H
  H182     1.0000 0.69290  0.90320  0.01000  Biso   1.000  H
  H183     1.0000 0.09680  0.78970  0.01000  Biso   1.000  H
  H184     1.0000 0.30710  0.21030  0.49000  Biso   1.000  H
  H185     1.0000 0.90320  0.69290  0.49000  Biso   1.000  H
  H186     1.0000 0.78970  0.09680  0.49000  Biso   1.000  H
  H187     1.0000 0.87697  0.64043  0.34333  Biso   1.000  H
  H188     1.0000 0.35957  0.23653  0.34333  Biso   1.000  H
  H189     1.0000 0.76347  0.12303  0.34333  Biso   1.000  H
  H190     1.0000 0.97377  0.54363  0.82333  Biso   1.000  H
  H191     1.0000 0.56987  0.02623  0.82333  Biso   1.000  H
  H192     1.0000 0.45637  0.43013  0.82333  Biso   1.000  H
  H193     1.0000 0.54363  0.97377  0.67667  Biso   1.000  H
  H194     1.0000 0.02623  0.56987  0.67667  Biso   1.000  H
  H195     1.0000 0.43013  0.45637  0.67667  Biso   1.000  H
  H196     1.0000 0.64043  0.87697  0.15667  Biso   1.000  H
  H197     1.0000 0.23653  0.35957  0.15667  Biso   1.000  H
  H198     1.0000 0.12303  0.76347  0.15667  Biso   1.000  H
  H199     1.0000 0.78970  0.69290  0.99000  Biso   1.000  H
  H200     1.0000 0.30710  0.09680  0.99000  Biso   1.000  H
  H201     1.0000 0.90320  0.21030  0.99000  Biso   1.000  H
  H202     1.0000 0.69290  0.78970  0.51000  Biso   1.000  H
  H203     1.0000 0.09680  0.30710  0.51000  Biso   1.000  H
  H204     1.0000 0.21030  0.90320  0.51000  Biso   1.000  H
  H205     1.0000 0.45637  0.02623  0.32333  Biso   1.000  H
  H206     1.0000 0.97377  0.43013  0.32333  Biso   1.000  H
  H207     1.0000 0.56987  0.54363  0.32333  Biso   1.000  H
  H208     1.0000 0.35957  0.12303  0.84333  Biso   1.000  H
  H209     1.0000 0.76347  0.64043  0.84333  Biso   1.000  H
  H210     1.0000 0.87697  0.23653  0.84333  Biso   1.000  H
  H211     1.0000 0.12303  0.35957  0.65667  Biso   1.000  H
  H212     1.0000 0.64043  0.76347  0.65667  Biso   1.000  H
  H213     1.0000 0.23653  0.87697  0.65667  Biso   1.000  H
  H214     1.0000 0.02623  0.45637  0.17667  Biso   1.000  H
  H215     1.0000 0.43013  0.97377  0.17667  Biso   1.000  H
  H216     1.0000 0.54363  0.56987  0.17667  Biso   1.000  H
  C289     1.0000 0.03490  0.30300  0.04374  Biso   1.000  C
  C290     1.0000 0.69700  0.73190  0.04374  Biso   1.000  C
  C291     1.0000 0.26810  0.96510  0.04374  Biso   1.000  C
  C292     1.0000 0.30300  0.03490  0.45626  Biso   1.000  C
  C293     1.0000 0.73190  0.69700  0.45626  Biso   1.000  C
  C294     1.0000 0.96510  0.26810  0.45626  Biso   1.000  C
  C295     1.0000 0.70157  0.63633  0.37707  Biso   1.000  C
  C296     1.0000 0.36367  0.06523  0.37707  Biso   1.000  C
  C297     1.0000 0.93477  0.29843  0.37707  Biso   1.000  C
  C298     1.0000 0.96967  0.36823  0.78959  Biso   1.000  C
  C299     1.0000 0.39857  0.03033  0.78959  Biso   1.000  C
  C300     1.0000 0.63177  0.60143  0.78959  Biso   1.000  C
  C301     1.0000 0.36823  0.96967  0.71041  Biso   1.000  C
  C302     1.0000 0.03033  0.39857  0.71041  Biso   1.000  C
  C303     1.0000 0.60143  0.63177  0.71041  Biso   1.000  C
  C304     1.0000 0.63633  0.70157  0.12293  Biso   1.000  C
  C305     1.0000 0.06523  0.36367  0.12293  Biso   1.000  C
  C306     1.0000 0.29843  0.93477  0.12293  Biso   1.000  C
  C307     1.0000 0.96510  0.69700  0.95626  Biso   1.000  C
  C308     1.0000 0.30300  0.26810  0.95626  Biso   1.000  C
  C309     1.0000 0.73190  0.03490  0.95626  Biso   1.000  C
  C310     1.0000 0.69700  0.96510  0.54374  Biso   1.000  C
  C311     1.0000 0.26810  0.30300  0.54374  Biso   1.000  C
  C312     1.0000 0.03490  0.73190  0.54374  Biso   1.000  C
  C313     1.0000 0.63177  0.03033  0.28959  Biso   1.000  C
  C314     1.0000 0.96967  0.60143  0.28959  Biso   1.000  C
  C315     1.0000 0.39857  0.36823  0.28959  Biso   1.000  C
  C316     1.0000 0.36367  0.29843  0.87707  Biso   1.000  C
  C317     1.0000 0.93477  0.63633  0.87707  Biso   1.000  C
  C318     1.0000 0.70157  0.06523  0.87707  Biso   1.000  C
  C319     1.0000 0.29843  0.36367  0.62293  Biso   1.000  C
  C320     1.0000 0.63633  0.93477  0.62293  Biso   1.000  C
  C321     1.0000 0.06523  0.70157  0.62293  Biso   1.000  C
  C322     1.0000 0.03033  0.63177  0.21041  Biso   1.000  C
  C323     1.0000 0.60143  0.96967  0.21041  Biso   1.000  C
  C324     1.0000 0.36823  0.39857  0.21041  Biso   1.000  C
  H217     1.0000 0.00380  0.34370  0.04850  Biso   1.000  H
  H218     1.0000 0.65630  0.66010  0.04850  Biso   1.000  H
  H219     1.0000 0.33990  0.99620  0.04850  Biso   1.000  H
  H220     1.0000 0.34370  0.00380  0.45150  Biso   1.000  H
  H221     1.0000 0.66010  0.65630  0.45150  Biso   1.000  H
  H222     1.0000 0.99620  0.33990  0.45150  Biso   1.000  H
  H223     1.0000 0.67047  0.67703  0.38183  Biso   1.000  H
  H224     1.0000 0.32297  0.99343  0.38183  Biso   1.000  H
  H225     1.0000 0.00657  0.32953  0.38183  Biso   1.000  H
  H226     1.0000 0.01037  0.33713  0.78483  Biso   1.000  H
  H227     1.0000 0.32677  0.98963  0.78483  Biso   1.000  H
  H228     1.0000 0.66287  0.67323  0.78483  Biso   1.000  H
  H229     1.0000 0.33713  0.01037  0.71517  Biso   1.000  H
  H230     1.0000 0.98963  0.32677  0.71517  Biso   1.000  H
  H231     1.0000 0.67323  0.66287  0.71517  Biso   1.000  H
  H232     1.0000 0.67703  0.67047  0.11817  Biso   1.000  H
  H233     1.0000 0.99343  0.32297  0.11817  Biso   1.000  H
  H234     1.0000 0.32953  0.00657  0.11817  Biso   1.000  H
  H235     1.0000 0.99620  0.65630  0.95150  Biso   1.000  H
  H236     1.0000 0.34370  0.33990  0.95150  Biso   1.000  H
  H237     1.0000 0.66010  0.00380  0.95150  Biso   1.000  H
  H238     1.0000 0.65630  0.99620  0.54850  Biso   1.000  H
  H239     1.0000 0.33990  0.34370  0.54850  Biso   1.000  H
  H240     1.0000 0.00380  0.66010  0.54850  Biso   1.000  H
  H241     1.0000 0.66287  0.98963  0.28483  Biso   1.000  H
  H242     1.0000 0.01037  0.67323  0.28483  Biso   1.000  H
  H243     1.0000 0.32677  0.33713  0.28483  Biso   1.000  H
  H244     1.0000 0.32297  0.32953  0.88183  Biso   1.000  H
  H245     1.0000 0.00657  0.67703  0.88183  Biso   1.000  H
  H246     1.0000 0.67047  0.99343  0.88183  Biso   1.000  H
  H247     1.0000 0.32953  0.32297  0.61817  Biso   1.000  H
  H248     1.0000 0.67703  0.00657  0.61817  Biso   1.000  H
  H249     1.0000 0.99343  0.67047  0.61817  Biso   1.000  H
  H250     1.0000 0.98963  0.66287  0.21517  Biso   1.000  H
  H251     1.0000 0.67323  0.01037  0.21517  Biso   1.000  H
  H252     1.0000 0.33713  0.32677  0.21517  Biso   1.000  H
  C325     1.0000 0.11180  0.34190  0.02717  Biso   1.000  C
  C326     1.0000 0.65810  0.76990  0.02717  Biso   1.000  C
  C327     1.0000 0.23010  0.88820  0.02717  Biso   1.000  C
  C328     1.0000 0.34190  0.11180  0.47283  Biso   1.000  C
  C329     1.0000 0.76990  0.65810  0.47283  Biso   1.000  C
  C330     1.0000 0.88820  0.23010  0.47283  Biso   1.000  C
  C331     1.0000 0.77847  0.67523  0.36050  Biso   1.000  C
  C332     1.0000 0.32477  0.10323  0.36050  Biso   1.000  C
  C333     1.0000 0.89677  0.22153  0.36050  Biso   1.000  C
  C334     1.0000 0.00857  0.44513  0.80616  Biso   1.000  C
  C335     1.0000 0.43657  0.99143  0.80616  Biso   1.000  C
  C336     1.0000 0.55487  0.56343  0.80616  Biso   1.000  C
  C337     1.0000 0.44513  0.00857  0.69384  Biso   1.000  C
  C338     1.0000 0.99143  0.43657  0.69384  Biso   1.000  C
  C339     1.0000 0.56343  0.55487  0.69384  Biso   1.000  C
  C340     1.0000 0.67523  0.77847  0.13950  Biso   1.000  C
  C341     1.0000 0.10323  0.32477  0.13950  Biso   1.000  C
  C342     1.0000 0.22153  0.89677  0.13950  Biso   1.000  C
  C343     1.0000 0.88820  0.65810  0.97283  Biso   1.000  C
  C344     1.0000 0.34190  0.23010  0.97283  Biso   1.000  C
  C345     1.0000 0.76990  0.11180  0.97283  Biso   1.000  C
  C346     1.0000 0.65810  0.88820  0.52717  Biso   1.000  C
  C347     1.0000 0.23010  0.34190  0.52717  Biso   1.000  C
  C348     1.0000 0.11180  0.76990  0.52717  Biso   1.000  C
  C349     1.0000 0.55487  0.99143  0.30616  Biso   1.000  C
  C350     1.0000 0.00857  0.56343  0.30616  Biso   1.000  C
  C351     1.0000 0.43657  0.44513  0.30616  Biso   1.000  C
  C352     1.0000 0.32477  0.22153  0.86050  Biso   1.000  C
  C353     1.0000 0.89677  0.67523  0.86050  Biso   1.000  C
  C354     1.0000 0.77847  0.10323  0.86050  Biso   1.000  C
  C355     1.0000 0.22153  0.32477  0.63950  Biso   1.000  C
  C356     1.0000 0.67523  0.89677  0.63950  Biso   1.000  C
  C357     1.0000 0.10323  0.77847  0.63950  Biso   1.000  C
  C358     1.0000 0.99143  0.55487  0.19384  Biso   1.000  C
  C359     1.0000 0.56343  0.00857  0.19384  Biso   1.000  C
  C360     1.0000 0.44513  0.43657  0.19384  Biso   1.000  C
  H253     1.0000 0.13210  0.40860  0.02060  Biso   1.000  H
  H254     1.0000 0.59140  0.72350  0.02060  Biso   1.000  H
  H255     1.0000 0.27650  0.86790  0.02060  Biso   1.000  H
  H256     1.0000 0.40860  0.13210  0.47940  Biso   1.000  H
  H257     1.0000 0.72350  0.59140  0.47940  Biso   1.000  H
  H258     1.0000 0.86790  0.27650  0.47940  Biso   1.000  H
  H259     1.0000 0.79877  0.74193  0.35393  Biso   1.000  H
  H260     1.0000 0.25807  0.05683  0.35393  Biso   1.000  H
  H261     1.0000 0.94317  0.20123  0.35393  Biso   1.000  H
  H262     1.0000 0.07527  0.46543  0.81273  Biso   1.000  H
  H263     1.0000 0.39017  0.92473  0.81273  Biso   1.000  H
  H264     1.0000 0.53457  0.60983  0.81273  Biso   1.000  H
  H265     1.0000 0.46543  0.07527  0.68727  Biso   1.000  H
  H266     1.0000 0.92473  0.39017  0.68727  Biso   1.000  H
  H267     1.0000 0.60983  0.53457  0.68727  Biso   1.000  H
  H268     1.0000 0.74193  0.79877  0.14607  Biso   1.000  H
  H269     1.0000 0.05683  0.25807  0.14607  Biso   1.000  H
  H270     1.0000 0.20123  0.94317  0.14607  Biso   1.000  H
  H271     1.0000 0.86790  0.59140  0.97940  Biso   1.000  H
  H272     1.0000 0.40860  0.27650  0.97940  Biso   1.000  H
  H273     1.0000 0.72350  0.13210  0.97940  Biso   1.000  H
  H274     1.0000 0.59140  0.86790  0.52060  Biso   1.000  H
  H275     1.0000 0.27650  0.40860  0.52060  Biso   1.000  H
  H276     1.0000 0.13210  0.72350  0.52060  Biso   1.000  H
  H277     1.0000 0.53457  0.92473  0.31273  Biso   1.000  H
  H278     1.0000 0.07527  0.60983  0.31273  Biso   1.000  H
  H279     1.0000 0.39017  0.46543  0.31273  Biso   1.000  H
  H280     1.0000 0.25807  0.20123  0.85393  Biso   1.000  H
  H281     1.0000 0.94317  0.74193  0.85393  Biso   1.000  H
  H282     1.0000 0.79877  0.05683  0.85393  Biso   1.000  H
  H283     1.0000 0.20123  0.25807  0.64607  Biso   1.000  H
  H284     1.0000 0.74193  0.94317  0.64607  Biso   1.000  H
  H285     1.0000 0.05683  0.79877  0.64607  Biso   1.000  H
  H286     1.0000 0.92473  0.53457  0.18727  Biso   1.000  H
  H287     1.0000 0.60983  0.07527  0.18727  Biso   1.000  H
  H288     1.0000 0.46543  0.39017  0.18727  Biso   1.000  H
