data_image0
_cell_length_a       14.2034
_cell_length_b       14.2034
_cell_length_c       61.572
_cell_angle_alpha    90
_cell_angle_beta     90
_cell_angle_gamma    120

_symmetry_space_group_name_H-M    "P 1"
_symmetry_int_tables_number       1

loop_
  _symmetry_equiv_pos_as_xyz
  'x, y, z'

loop_
  _atom_site_label
  _atom_site_occupancy
  _atom_site_fract_x
  _atom_site_fract_y
  _atom_site_fract_z
  _atom_site_thermal_displace_type
  _atom_site_B_iso_or_equiv
  _atom_site_type_symbol
  Br1      1.0000 0.33330  0.66670  0.02214  Biso   1.000  Br
  Br2      1.0000 0.66670  0.33330  0.47786  Biso   1.000  Br
  Br3      1.0000 0.99997  0.00003  0.35548  Biso   1.000  Br
  Br4      1.0000 0.33337  0.66663  0.81119  Biso   1.000  Br
  Br5      1.0000 0.66663  0.33337  0.68881  Biso   1.000  Br
  Br6      1.0000 0.00003  0.99997  0.14452  Biso   1.000  Br
  Br7      1.0000 0.66670  0.33330  0.97786  Biso   1.000  Br
  Br8      1.0000 0.33330  0.66670  0.52214  Biso   1.000  Br
  Br9      1.0000 0.33337  0.66663  0.31119  Biso   1.000  Br
  Br10     1.0000 0.99997  0.00003  0.85548  Biso   1.000  Br
  Br11     1.0000 0.00003  0.99997  0.64452  Biso   1.000  Br
  Br12     1.0000 0.66663  0.33337  0.18881  Biso   1.000  Br
  Br13     1.0000 0.33330  0.66670  0.91670  Biso   1.000  Br
  Br14     1.0000 0.66670  0.33330  0.58330  Biso   1.000  Br
  Br15     1.0000 0.99997  0.00003  0.25003  Biso   1.000  Br
  Br16     1.0000 0.66670  0.33330  0.08330  Biso   1.000  Br
  Br17     1.0000 0.33330  0.66670  0.41670  Biso   1.000  Br
  Br18     1.0000 0.99997  0.00003  0.75003  Biso   1.000  Br
  Br19     1.0000 0.52850  0.77171  0.97066  Biso   1.000  Br
  Br20     1.0000 0.22829  0.75679  0.97066  Biso   1.000  Br
  Br21     1.0000 0.24321  0.47150  0.97066  Biso   1.000  Br
  Br22     1.0000 0.77171  0.52850  0.52934  Biso   1.000  Br
  Br23     1.0000 0.75679  0.22829  0.52934  Biso   1.000  Br
  Br24     1.0000 0.47150  0.24321  0.52934  Biso   1.000  Br
  Br25     1.0000 0.19517  0.10504  0.30399  Biso   1.000  Br
  Br26     1.0000 0.89496  0.09012  0.30399  Biso   1.000  Br
  Br27     1.0000 0.90988  0.80483  0.30399  Biso   1.000  Br
  Br28     1.0000 0.43838  0.86183  0.86268  Biso   1.000  Br
  Br29     1.0000 0.42346  0.56162  0.86268  Biso   1.000  Br
  Br30     1.0000 0.13817  0.57654  0.86268  Biso   1.000  Br
  Br31     1.0000 0.86183  0.43838  0.63732  Biso   1.000  Br
  Br32     1.0000 0.56162  0.42346  0.63732  Biso   1.000  Br
  Br33     1.0000 0.57654  0.13817  0.63732  Biso   1.000  Br
  Br34     1.0000 0.10504  0.19517  0.19601  Biso   1.000  Br
  Br35     1.0000 0.09012  0.89496  0.19601  Biso   1.000  Br
  Br36     1.0000 0.80483  0.90988  0.19601  Biso   1.000  Br
  Br37     1.0000 0.47150  0.22829  0.02934  Biso   1.000  Br
  Br38     1.0000 0.77171  0.24321  0.02934  Biso   1.000  Br
  Br39     1.0000 0.75679  0.52850  0.02934  Biso   1.000  Br
  Br40     1.0000 0.22829  0.47150  0.47066  Biso   1.000  Br
  Br41     1.0000 0.24321  0.77171  0.47066  Biso   1.000  Br
  Br42     1.0000 0.52850  0.75679  0.47066  Biso   1.000  Br
  Br43     1.0000 0.13817  0.56162  0.36268  Biso   1.000  Br
  Br44     1.0000 0.43838  0.57654  0.36268  Biso   1.000  Br
  Br45     1.0000 0.42346  0.86183  0.36268  Biso   1.000  Br
  Br46     1.0000 0.89496  0.80483  0.80399  Biso   1.000  Br
  Br47     1.0000 0.90988  0.10504  0.80399  Biso   1.000  Br
  Br48     1.0000 0.19517  0.09012  0.80399  Biso   1.000  Br
  Br49     1.0000 0.80483  0.89496  0.69601  Biso   1.000  Br
  Br50     1.0000 0.10504  0.90988  0.69601  Biso   1.000  Br
  Br51     1.0000 0.09012  0.19517  0.69601  Biso   1.000  Br
  Br52     1.0000 0.56162  0.13817  0.13732  Biso   1.000  Br
  Br53     1.0000 0.57654  0.43838  0.13732  Biso   1.000  Br
  Br54     1.0000 0.86183  0.42346  0.13732  Biso   1.000  Br
  Cu1      1.0000 0.33330  0.66670  0.95628  Biso   1.000  Cu
  Cu2      1.0000 0.66670  0.33330  0.54372  Biso   1.000  Cu
  Cu3      1.0000 0.99997  0.00003  0.28961  Biso   1.000  Cu
  Cu4      1.0000 0.33337  0.66663  0.87705  Biso   1.000  Cu
  Cu5      1.0000 0.66663  0.33337  0.62295  Biso   1.000  Cu
  Cu6      1.0000 0.00003  0.99997  0.21039  Biso   1.000  Cu
  Cu7      1.0000 0.66670  0.33330  0.04372  Biso   1.000  Cu
  Cu8      1.0000 0.33330  0.66670  0.45628  Biso   1.000  Cu
  Cu9      1.0000 0.33337  0.66663  0.37705  Biso   1.000  Cu
  Cu10     1.0000 0.99997  0.00003  0.78961  Biso   1.000  Cu
  Cu11     1.0000 0.00003  0.99997  0.71039  Biso   1.000  Cu
  Cu12     1.0000 0.66663  0.33337  0.12295  Biso   1.000  Cu
  Br55     1.0000 0.50000  0.00000  0.00000  Biso   1.000  Br
  Br56     1.0000 0.00000  0.50000  0.00000  Biso   1.000  Br
  Br57     1.0000 0.50000  0.50000  0.00000  Biso   1.000  Br
  Br58     1.0000 0.00000  0.50000  0.50000  Biso   1.000  Br
  Br59     1.0000 0.50000  0.00000  0.50000  Biso   1.000  Br
  Br60     1.0000 0.50000  0.50000  0.50000  Biso   1.000  Br
  Br61     1.0000 0.16667  0.33333  0.33333  Biso   1.000  Br
  Br62     1.0000 0.66667  0.83333  0.33333  Biso   1.000  Br
  Br63     1.0000 0.16667  0.83333  0.33333  Biso   1.000  Br
  Br64     1.0000 0.66667  0.83333  0.83333  Biso   1.000  Br
  Br65     1.0000 0.16667  0.33333  0.83333  Biso   1.000  Br
  Br66     1.0000 0.16667  0.83333  0.83333  Biso   1.000  Br
  Br67     1.0000 0.83333  0.66667  0.66667  Biso   1.000  Br
  Br68     1.0000 0.33333  0.16667  0.66667  Biso   1.000  Br
  Br69     1.0000 0.83333  0.16667  0.66667  Biso   1.000  Br
  Br70     1.0000 0.33333  0.16667  0.16667  Biso   1.000  Br
  Br71     1.0000 0.83333  0.66667  0.16667  Biso   1.000  Br
  Br72     1.0000 0.83333  0.16667  0.16667  Biso   1.000  Br
  Cu13     1.0000 0.39653  0.81076  0.99177  Biso   1.000  Cu
  Cu14     1.0000 0.18924  0.58577  0.99177  Biso   1.000  Cu
  Cu15     1.0000 0.41423  0.60347  0.99177  Biso   1.000  Cu
  Cu16     1.0000 0.81076  0.39653  0.50823  Biso   1.000  Cu
  Cu17     1.0000 0.58577  0.18924  0.50823  Biso   1.000  Cu
  Cu18     1.0000 0.60347  0.41423  0.50823  Biso   1.000  Cu
  Cu19     1.0000 0.06320  0.14409  0.32510  Biso   1.000  Cu
  Cu20     1.0000 0.85591  0.91910  0.32510  Biso   1.000  Cu
  Cu21     1.0000 0.08090  0.93680  0.32510  Biso   1.000  Cu
  Cu22     1.0000 0.47743  0.72986  0.84156  Biso   1.000  Cu
  Cu23     1.0000 0.25244  0.52257  0.84156  Biso   1.000  Cu
  Cu24     1.0000 0.27014  0.74756  0.84156  Biso   1.000  Cu
  Cu25     1.0000 0.72986  0.47743  0.65844  Biso   1.000  Cu
  Cu26     1.0000 0.52257  0.25244  0.65844  Biso   1.000  Cu
  Cu27     1.0000 0.74756  0.27014  0.65844  Biso   1.000  Cu
  Cu28     1.0000 0.14409  0.06320  0.17490  Biso   1.000  Cu
  Cu29     1.0000 0.91910  0.85591  0.17490  Biso   1.000  Cu
  Cu30     1.0000 0.93680  0.08090  0.17490  Biso   1.000  Cu
  Cu31     1.0000 0.60347  0.18924  0.00823  Biso   1.000  Cu
  Cu32     1.0000 0.81076  0.41423  0.00823  Biso   1.000  Cu
  Cu33     1.0000 0.58577  0.39653  0.00823  Biso   1.000  Cu
  Cu34     1.0000 0.18924  0.60347  0.49177  Biso   1.000  Cu
  Cu35     1.0000 0.41423  0.81076  0.49177  Biso   1.000  Cu
  Cu36     1.0000 0.39653  0.58577  0.49177  Biso   1.000  Cu
  Cu37     1.0000 0.27014  0.52257  0.34156  Biso   1.000  Cu
  Cu38     1.0000 0.47743  0.74756  0.34156  Biso   1.000  Cu
  Cu39     1.0000 0.25244  0.72986  0.34156  Biso   1.000  Cu
  Cu40     1.0000 0.85591  0.93680  0.82510  Biso   1.000  Cu
  Cu41     1.0000 0.08090  0.14409  0.82510  Biso   1.000  Cu
  Cu42     1.0000 0.06320  0.91910  0.82510  Biso   1.000  Cu
  Cu43     1.0000 0.93680  0.85591  0.67490  Biso   1.000  Cu
  Cu44     1.0000 0.14409  0.08090  0.67490  Biso   1.000  Cu
  Cu45     1.0000 0.91910  0.06320  0.67490  Biso   1.000  Cu
  Cu46     1.0000 0.52257  0.27014  0.15844  Biso   1.000  Cu
  Cu47     1.0000 0.74756  0.47743  0.15844  Biso   1.000  Cu
  Cu48     1.0000 0.72986  0.25244  0.15844  Biso   1.000  Cu
  Co1      1.0000 0.00000  0.00000  0.93590  Biso   1.000  Co
  Co2      1.0000 0.00000  0.00000  0.56410  Biso   1.000  Co
  Co3      1.0000 0.66667  0.33333  0.26924  Biso   1.000  Co
  Co4      1.0000 0.66667  0.33333  0.89743  Biso   1.000  Co
  Co5      1.0000 0.33333  0.66667  0.60257  Biso   1.000  Co
  Co6      1.0000 0.33333  0.66667  0.23076  Biso   1.000  Co
  Co7      1.0000 0.00000  0.00000  0.06410  Biso   1.000  Co
  Co8      1.0000 0.00000  0.00000  0.43590  Biso   1.000  Co
  Co9      1.0000 0.66667  0.33333  0.39743  Biso   1.000  Co
  Co10     1.0000 0.66667  0.33333  0.76924  Biso   1.000  Co
  Co11     1.0000 0.33333  0.66667  0.73076  Biso   1.000  Co
  Co12     1.0000 0.33333  0.66667  0.10257  Biso   1.000  Co
  N1       1.0000 0.85170  0.93150  0.91921  Biso   1.000  N
  N2       1.0000 0.06850  0.92020  0.91921  Biso   1.000  N
  N3       1.0000 0.07980  0.14830  0.91921  Biso   1.000  N
  N4       1.0000 0.93150  0.85170  0.58079  Biso   1.000  N
  N5       1.0000 0.92020  0.06850  0.58079  Biso   1.000  N
  N6       1.0000 0.14830  0.07980  0.58079  Biso   1.000  N
  N7       1.0000 0.51837  0.26483  0.25254  Biso   1.000  N
  N8       1.0000 0.73517  0.25353  0.25254  Biso   1.000  N
  N9       1.0000 0.74647  0.48163  0.25254  Biso   1.000  N
  N10      1.0000 0.59817  0.18503  0.91412  Biso   1.000  N
  N11      1.0000 0.58687  0.40183  0.91412  Biso   1.000  N
  N12      1.0000 0.81497  0.41313  0.91412  Biso   1.000  N
  N13      1.0000 0.18503  0.59817  0.58588  Biso   1.000  N
  N14      1.0000 0.40183  0.58687  0.58588  Biso   1.000  N
  N15      1.0000 0.41313  0.81497  0.58588  Biso   1.000  N
  N16      1.0000 0.26483  0.51837  0.24746  Biso   1.000  N
  N17      1.0000 0.25353  0.73517  0.24746  Biso   1.000  N
  N18      1.0000 0.48163  0.74647  0.24746  Biso   1.000  N
  N19      1.0000 0.14830  0.06850  0.08079  Biso   1.000  N
  N20      1.0000 0.93150  0.07980  0.08079  Biso   1.000  N
  N21      1.0000 0.92020  0.85170  0.08079  Biso   1.000  N
  N22      1.0000 0.06850  0.14830  0.41921  Biso   1.000  N
  N23      1.0000 0.07980  0.93150  0.41921  Biso   1.000  N
  N24      1.0000 0.85170  0.92020  0.41921  Biso   1.000  N
  N25      1.0000 0.81497  0.40183  0.41412  Biso   1.000  N
  N26      1.0000 0.59817  0.41313  0.41412  Biso   1.000  N
  N27      1.0000 0.58687  0.18503  0.41412  Biso   1.000  N
  N28      1.0000 0.73517  0.48163  0.75254  Biso   1.000  N
  N29      1.0000 0.74647  0.26483  0.75254  Biso   1.000  N
  N30      1.0000 0.51837  0.25353  0.75254  Biso   1.000  N
  N31      1.0000 0.48163  0.73517  0.74746  Biso   1.000  N
  N32      1.0000 0.26483  0.74647  0.74746  Biso   1.000  N
  N33      1.0000 0.25353  0.51837  0.74746  Biso   1.000  N
  N34      1.0000 0.40183  0.81497  0.08588  Biso   1.000  N
  N35      1.0000 0.41313  0.59817  0.08588  Biso   1.000  N
  N36      1.0000 0.18503  0.58687  0.08588  Biso   1.000  N
  N37      1.0000 0.90470  0.85470  0.95349  Biso   1.000  N
  N38      1.0000 0.14530  0.05000  0.95349  Biso   1.000  N
  N39      1.0000 0.95000  0.09530  0.95349  Biso   1.000  N
  N40      1.0000 0.85470  0.90470  0.54651  Biso   1.000  N
  N41      1.0000 0.05000  0.14530  0.54651  Biso   1.000  N
  N42      1.0000 0.09530  0.95000  0.54651  Biso   1.000  N
  N43      1.0000 0.57137  0.18803  0.28682  Biso   1.000  N
  N44      1.0000 0.81197  0.38333  0.28682  Biso   1.000  N
  N45      1.0000 0.61667  0.42863  0.28682  Biso   1.000  N
  N46      1.0000 0.52137  0.23803  0.87984  Biso   1.000  N
  N47      1.0000 0.71667  0.47863  0.87984  Biso   1.000  N
  N48      1.0000 0.76197  0.28333  0.87984  Biso   1.000  N
  N49      1.0000 0.23803  0.52137  0.62016  Biso   1.000  N
  N50      1.0000 0.47863  0.71667  0.62016  Biso   1.000  N
  N51      1.0000 0.28333  0.76197  0.62016  Biso   1.000  N
  N52      1.0000 0.18803  0.57137  0.21318  Biso   1.000  N
  N53      1.0000 0.38333  0.81197  0.21318  Biso   1.000  N
  N54      1.0000 0.42863  0.61667  0.21318  Biso   1.000  N
  N55      1.0000 0.09530  0.14530  0.04651  Biso   1.000  N
  N56      1.0000 0.85470  0.95000  0.04651  Biso   1.000  N
  N57      1.0000 0.05000  0.90470  0.04651  Biso   1.000  N
  N58      1.0000 0.14530  0.09530  0.45349  Biso   1.000  N
  N59      1.0000 0.95000  0.85470  0.45349  Biso   1.000  N
  N60      1.0000 0.90470  0.05000  0.45349  Biso   1.000  N
  N61      1.0000 0.76197  0.47863  0.37984  Biso   1.000  N
  N62      1.0000 0.52137  0.28333  0.37984  Biso   1.000  N
  N63      1.0000 0.71667  0.23803  0.37984  Biso   1.000  N
  N64      1.0000 0.81197  0.42863  0.78682  Biso   1.000  N
  N65      1.0000 0.61667  0.18803  0.78682  Biso   1.000  N
  N66      1.0000 0.57137  0.38333  0.78682  Biso   1.000  N
  N67      1.0000 0.42863  0.81197  0.71318  Biso   1.000  N
  N68      1.0000 0.18803  0.61667  0.71318  Biso   1.000  N
  N69      1.0000 0.38333  0.57137  0.71318  Biso   1.000  N
  N70      1.0000 0.47863  0.76197  0.12016  Biso   1.000  N
  N71      1.0000 0.28333  0.52137  0.12016  Biso   1.000  N
  N72      1.0000 0.23803  0.71667  0.12016  Biso   1.000  N
  C1       1.0000 0.82880  0.97560  0.90218  Biso   1.000  C
  C2       1.0000 0.02440  0.85320  0.90218  Biso   1.000  C
  C3       1.0000 0.14680  0.17120  0.90218  Biso   1.000  C
  C4       1.0000 0.97560  0.82880  0.59782  Biso   1.000  C
  C5       1.0000 0.85320  0.02440  0.59782  Biso   1.000  C
  C6       1.0000 0.17120  0.14680  0.59782  Biso   1.000  C
  C7       1.0000 0.49547  0.30893  0.23551  Biso   1.000  C
  C8       1.0000 0.69107  0.18653  0.23551  Biso   1.000  C
  C9       1.0000 0.81347  0.50453  0.23551  Biso   1.000  C
  C10      1.0000 0.64227  0.16213  0.93115  Biso   1.000  C
  C11      1.0000 0.51987  0.35773  0.93115  Biso   1.000  C
  C12      1.0000 0.83787  0.48013  0.93115  Biso   1.000  C
  C13      1.0000 0.16213  0.64227  0.56885  Biso   1.000  C
  C14      1.0000 0.35773  0.51987  0.56885  Biso   1.000  C
  C15      1.0000 0.48013  0.83787  0.56885  Biso   1.000  C
  C16      1.0000 0.30893  0.49547  0.26449  Biso   1.000  C
  C17      1.0000 0.18653  0.69107  0.26449  Biso   1.000  C
  C18      1.0000 0.50453  0.81347  0.26449  Biso   1.000  C
  C19      1.0000 0.17120  0.02440  0.09782  Biso   1.000  C
  C20      1.0000 0.97560  0.14680  0.09782  Biso   1.000  C
  C21      1.0000 0.85320  0.82880  0.09782  Biso   1.000  C
  C22      1.0000 0.02440  0.17120  0.40218  Biso   1.000  C
  C23      1.0000 0.14680  0.97560  0.40218  Biso   1.000  C
  C24      1.0000 0.82880  0.85320  0.40218  Biso   1.000  C
  C25      1.0000 0.83787  0.35773  0.43115  Biso   1.000  C
  C26      1.0000 0.64227  0.48013  0.43115  Biso   1.000  C
  C27      1.0000 0.51987  0.16213  0.43115  Biso   1.000  C
  C28      1.0000 0.69107  0.50453  0.73551  Biso   1.000  C
  C29      1.0000 0.81347  0.30893  0.73551  Biso   1.000  C
  C30      1.0000 0.49547  0.18653  0.73551  Biso   1.000  C
  C31      1.0000 0.50453  0.69107  0.76449  Biso   1.000  C
  C32      1.0000 0.30893  0.81347  0.76449  Biso   1.000  C
  C33      1.0000 0.18653  0.49547  0.76449  Biso   1.000  C
  C34      1.0000 0.35773  0.83787  0.06885  Biso   1.000  C
  C35      1.0000 0.48013  0.64227  0.06885  Biso   1.000  C
  C36      1.0000 0.16213  0.51987  0.06885  Biso   1.000  C
  H1       1.0000 0.88560  0.03610  0.89550  Biso   1.000  H
  H2       1.0000 0.96390  0.84950  0.89550  Biso   1.000  H
  H3       1.0000 0.15050  0.11440  0.89550  Biso   1.000  H
  H4       1.0000 0.03610  0.88560  0.60450  Biso   1.000  H
  H5       1.0000 0.84950  0.96390  0.60450  Biso   1.000  H
  H6       1.0000 0.11440  0.15050  0.60450  Biso   1.000  H
  H7       1.0000 0.55227  0.36943  0.22883  Biso   1.000  H
  H8       1.0000 0.63057  0.18283  0.22883  Biso   1.000  H
  H9       1.0000 0.81717  0.44773  0.22883  Biso   1.000  H
  H10      1.0000 0.70277  0.21893  0.93783  Biso   1.000  H
  H11      1.0000 0.51617  0.29723  0.93783  Biso   1.000  H
  H12      1.0000 0.78107  0.48383  0.93783  Biso   1.000  H
  H13      1.0000 0.21893  0.70277  0.56217  Biso   1.000  H
  H14      1.0000 0.29723  0.51617  0.56217  Biso   1.000  H
  H15      1.0000 0.48383  0.78107  0.56217  Biso   1.000  H
  H16      1.0000 0.36943  0.55227  0.27117  Biso   1.000  H
  H17      1.0000 0.18283  0.63057  0.27117  Biso   1.000  H
  H18      1.0000 0.44773  0.81717  0.27117  Biso   1.000  H
  H19      1.0000 0.11440  0.96390  0.10450  Biso   1.000  H
  H20      1.0000 0.03610  0.15050  0.10450  Biso   1.000  H
  H21      1.0000 0.84950  0.88560  0.10450  Biso   1.000  H
  H22      1.0000 0.96390  0.11440  0.39550  Biso   1.000  H
  H23      1.0000 0.15050  0.03610  0.39550  Biso   1.000  H
  H24      1.0000 0.88560  0.84950  0.39550  Biso   1.000  H
  H25      1.0000 0.78107  0.29723  0.43783  Biso   1.000  H
  H26      1.0000 0.70277  0.48383  0.43783  Biso   1.000  H
  H27      1.0000 0.51617  0.21893  0.43783  Biso   1.000  H
  H28      1.0000 0.63057  0.44773  0.72883  Biso   1.000  H
  H29      1.0000 0.81717  0.36943  0.72883  Biso   1.000  H
  H30      1.0000 0.55227  0.18283  0.72883  Biso   1.000  H
  H31      1.0000 0.44773  0.63057  0.77117  Biso   1.000  H
  H32      1.0000 0.36943  0.81717  0.77117  Biso   1.000  H
  H33      1.0000 0.18283  0.55227  0.77117  Biso   1.000  H
  H34      1.0000 0.29723  0.78107  0.06217  Biso   1.000  H
  H35      1.0000 0.48383  0.70277  0.06217  Biso   1.000  H
  H36      1.0000 0.21893  0.51617  0.06217  Biso   1.000  H
  C37      1.0000 0.66320  0.80170  0.92196  Biso   1.000  C
  C38      1.0000 0.19830  0.86150  0.92196  Biso   1.000  C
  C39      1.0000 0.13850  0.33680  0.92196  Biso   1.000  C
  C40      1.0000 0.80170  0.66320  0.57804  Biso   1.000  C
  C41      1.0000 0.86150  0.19830  0.57804  Biso   1.000  C
  C42      1.0000 0.33680  0.13850  0.57804  Biso   1.000  C
  C43      1.0000 0.32987  0.13503  0.25529  Biso   1.000  C
  C44      1.0000 0.86497  0.19483  0.25529  Biso   1.000  C
  C45      1.0000 0.80517  0.67013  0.25529  Biso   1.000  C
  C46      1.0000 0.46837  0.99653  0.91137  Biso   1.000  C
  C47      1.0000 0.52817  0.53163  0.91137  Biso   1.000  C
  C48      1.0000 0.00347  0.47183  0.91137  Biso   1.000  C
  C49      1.0000 0.99653  0.46837  0.58863  Biso   1.000  C
  C50      1.0000 0.53163  0.52817  0.58863  Biso   1.000  C
  C51      1.0000 0.47183  0.00347  0.58863  Biso   1.000  C
  C52      1.0000 0.13503  0.32987  0.24471  Biso   1.000  C
  C53      1.0000 0.19483  0.86497  0.24471  Biso   1.000  C
  C54      1.0000 0.67013  0.80517  0.24471  Biso   1.000  C
  C55      1.0000 0.33680  0.19830  0.07804  Biso   1.000  C
  C56      1.0000 0.80170  0.13850  0.07804  Biso   1.000  C
  C57      1.0000 0.86150  0.66320  0.07804  Biso   1.000  C
  C58      1.0000 0.19830  0.33680  0.42196  Biso   1.000  C
  C59      1.0000 0.13850  0.80170  0.42196  Biso   1.000  C
  C60      1.0000 0.66320  0.86150  0.42196  Biso   1.000  C
  C61      1.0000 0.00347  0.53163  0.41137  Biso   1.000  C
  C62      1.0000 0.46837  0.47183  0.41137  Biso   1.000  C
  C63      1.0000 0.52817  0.99653  0.41137  Biso   1.000  C
  C64      1.0000 0.86497  0.67013  0.75529  Biso   1.000  C
  C65      1.0000 0.80517  0.13503  0.75529  Biso   1.000  C
  C66      1.0000 0.32987  0.19483  0.75529  Biso   1.000  C
  C67      1.0000 0.67013  0.86497  0.74471  Biso   1.000  C
  C68      1.0000 0.13503  0.80517  0.74471  Biso   1.000  C
  C69      1.0000 0.19483  0.32987  0.74471  Biso   1.000  C
  C70      1.0000 0.53163  0.00347  0.08863  Biso   1.000  C
  C71      1.0000 0.47183  0.46837  0.08863  Biso   1.000  C
  C72      1.0000 0.99653  0.52817  0.08863  Biso   1.000  C
  H37      1.0000 0.60680  0.74300  0.92920  Biso   1.000  H
  H38      1.0000 0.25700  0.86380  0.92920  Biso   1.000  H
  H39      1.0000 0.13620  0.39320  0.92920  Biso   1.000  H
  H40      1.0000 0.74300  0.60680  0.57080  Biso   1.000  H
  H41      1.0000 0.86380  0.25700  0.57080  Biso   1.000  H
  H42      1.0000 0.39320  0.13620  0.57080  Biso   1.000  H
  H43      1.0000 0.27347  0.07633  0.26253  Biso   1.000  H
  H44      1.0000 0.92367  0.19713  0.26253  Biso   1.000  H
  H45      1.0000 0.80287  0.72653  0.26253  Biso   1.000  H
  H46      1.0000 0.40967  0.94013  0.90413  Biso   1.000  H
  H47      1.0000 0.53047  0.59033  0.90413  Biso   1.000  H
  H48      1.0000 0.05987  0.46953  0.90413  Biso   1.000  H
  H49      1.0000 0.94013  0.40967  0.59587  Biso   1.000  H
  H50      1.0000 0.59033  0.53047  0.59587  Biso   1.000  H
  H51      1.0000 0.46953  0.05987  0.59587  Biso   1.000  H
  H52      1.0000 0.07633  0.27347  0.23747  Biso   1.000  H
  H53      1.0000 0.19713  0.92367  0.23747  Biso   1.000  H
  H54      1.0000 0.72653  0.80287  0.23747  Biso   1.000  H
  H55      1.0000 0.39320  0.25700  0.07080  Biso   1.000  H
  H56      1.0000 0.74300  0.13620  0.07080  Biso   1.000  H
  H57      1.0000 0.86380  0.60680  0.07080  Biso   1.000  H
  H58      1.0000 0.25700  0.39320  0.42920  Biso   1.000  H
  H59      1.0000 0.13620  0.74300  0.42920  Biso   1.000  H
  H60      1.0000 0.60680  0.86380  0.42920  Biso   1.000  H
  H61      1.0000 0.05987  0.59033  0.40413  Biso   1.000  H
  H62      1.0000 0.40967  0.46953  0.40413  Biso   1.000  H
  H63      1.0000 0.53047  0.94013  0.40413  Biso   1.000  H
  H64      1.0000 0.92367  0.72653  0.76253  Biso   1.000  H
  H65      1.0000 0.80287  0.07633  0.76253  Biso   1.000  H
  H66      1.0000 0.27347  0.19713  0.76253  Biso   1.000  H
  H67      1.0000 0.72653  0.92367  0.73747  Biso   1.000  H
  H68      1.0000 0.07633  0.80287  0.73747  Biso   1.000  H
  H69      1.0000 0.19713  0.27347  0.73747  Biso   1.000  H
  H70      1.0000 0.59033  0.05987  0.09587  Biso   1.000  H
  H71      1.0000 0.46953  0.40967  0.09587  Biso   1.000  H
  H72      1.0000 0.94013  0.53047  0.09587  Biso   1.000  H
  C73      1.0000 0.76890  0.84280  0.92885  Biso   1.000  C
  C74      1.0000 0.15720  0.92610  0.92885  Biso   1.000  C
  C75      1.0000 0.07390  0.23110  0.92885  Biso   1.000  C
  C76      1.0000 0.84280  0.76890  0.57115  Biso   1.000  C
  C77      1.0000 0.92610  0.15720  0.57115  Biso   1.000  C
  C78      1.0000 0.23110  0.07390  0.57115  Biso   1.000  C
  C79      1.0000 0.43557  0.17613  0.26218  Biso   1.000  C
  C80      1.0000 0.82387  0.25943  0.26218  Biso   1.000  C
  C81      1.0000 0.74057  0.56443  0.26218  Biso   1.000  C
  C82      1.0000 0.50947  0.10223  0.90448  Biso   1.000  C
  C83      1.0000 0.59277  0.49053  0.90448  Biso   1.000  C
  C84      1.0000 0.89777  0.40723  0.90448  Biso   1.000  C
  C85      1.0000 0.10223  0.50947  0.59552  Biso   1.000  C
  C86      1.0000 0.49053  0.59277  0.59552  Biso   1.000  C
  C87      1.0000 0.40723  0.89777  0.59552  Biso   1.000  C
  C88      1.0000 0.17613  0.43557  0.23782  Biso   1.000  C
  C89      1.0000 0.25943  0.82387  0.23782  Biso   1.000  C
  C90      1.0000 0.56443  0.74057  0.23782  Biso   1.000  C
  C91      1.0000 0.23110  0.15720  0.07115  Biso   1.000  C
  C92      1.0000 0.84280  0.07390  0.07115  Biso   1.000  C
  C93      1.0000 0.92610  0.76890  0.07115  Biso   1.000  C
  C94      1.0000 0.15720  0.23110  0.42885  Biso   1.000  C
  C95      1.0000 0.07390  0.84280  0.42885  Biso   1.000  C
  C96      1.0000 0.76890  0.92610  0.42885  Biso   1.000  C
  C97      1.0000 0.89777  0.49053  0.40448  Biso   1.000  C
  C98      1.0000 0.50947  0.40723  0.40448  Biso   1.000  C
  C99      1.0000 0.59277  0.10223  0.40448  Biso   1.000  C
  C100     1.0000 0.82387  0.56443  0.76218  Biso   1.000  C
  C101     1.0000 0.74057  0.17613  0.76218  Biso   1.000  C
  C102     1.0000 0.43557  0.25943  0.76218  Biso   1.000  C
  C103     1.0000 0.56443  0.82387  0.73782  Biso   1.000  C
  C104     1.0000 0.17613  0.74057  0.73782  Biso   1.000  C
  C105     1.0000 0.25943  0.43557  0.73782  Biso   1.000  C
  C106     1.0000 0.49053  0.89777  0.09552  Biso   1.000  C
  C107     1.0000 0.40723  0.50947  0.09552  Biso   1.000  C
  C108     1.0000 0.10223  0.59277  0.09552  Biso   1.000  C
  C109     1.0000 0.64110  0.84790  0.90430  Biso   1.000  C
  C110     1.0000 0.15210  0.79320  0.90430  Biso   1.000  C
  C111     1.0000 0.20680  0.35890  0.90430  Biso   1.000  C
  C112     1.0000 0.84790  0.64110  0.59570  Biso   1.000  C
  C113     1.0000 0.79320  0.15210  0.59570  Biso   1.000  C
  C114     1.0000 0.35890  0.20680  0.59570  Biso   1.000  C
  C115     1.0000 0.30777  0.18123  0.23763  Biso   1.000  C
  C116     1.0000 0.81877  0.12653  0.23763  Biso   1.000  C
  C117     1.0000 0.87347  0.69223  0.23763  Biso   1.000  C
  C118     1.0000 0.51457  0.97443  0.92903  Biso   1.000  C
  C119     1.0000 0.45987  0.48543  0.92903  Biso   1.000  C
  C120     1.0000 0.02557  0.54013  0.92903  Biso   1.000  C
  C121     1.0000 0.97443  0.51457  0.57097  Biso   1.000  C
  C122     1.0000 0.48543  0.45987  0.57097  Biso   1.000  C
  C123     1.0000 0.54013  0.02557  0.57097  Biso   1.000  C
  C124     1.0000 0.18123  0.30777  0.26237  Biso   1.000  C
  C125     1.0000 0.12653  0.81877  0.26237  Biso   1.000  C
  C126     1.0000 0.69223  0.87347  0.26237  Biso   1.000  C
  C127     1.0000 0.35890  0.15210  0.09570  Biso   1.000  C
  C128     1.0000 0.84790  0.20680  0.09570  Biso   1.000  C
  C129     1.0000 0.79320  0.64110  0.09570  Biso   1.000  C
  C130     1.0000 0.15210  0.35890  0.40430  Biso   1.000  C
  C131     1.0000 0.20680  0.84790  0.40430  Biso   1.000  C
  C132     1.0000 0.64110  0.79320  0.40430  Biso   1.000  C
  C133     1.0000 0.02557  0.48543  0.42903  Biso   1.000  C
  C134     1.0000 0.51457  0.54013  0.42903  Biso   1.000  C
  C135     1.0000 0.45987  0.97443  0.42903  Biso   1.000  C
  C136     1.0000 0.81877  0.69223  0.73763  Biso   1.000  C
  C137     1.0000 0.87347  0.18123  0.73763  Biso   1.000  C
  C138     1.0000 0.30777  0.12653  0.73763  Biso   1.000  C
  C139     1.0000 0.69223  0.81877  0.76237  Biso   1.000  C
  C140     1.0000 0.18123  0.87347  0.76237  Biso   1.000  C
  C141     1.0000 0.12653  0.30777  0.76237  Biso   1.000  C
  C142     1.0000 0.48543  0.02557  0.07097  Biso   1.000  C
  C143     1.0000 0.54013  0.51457  0.07097  Biso   1.000  C
  C144     1.0000 0.97443  0.45987  0.07097  Biso   1.000  C
  H73      1.0000 0.57020  0.82000  0.89940  Biso   1.000  H
  H74      1.0000 0.18000  0.75020  0.89940  Biso   1.000  H
  H75      1.0000 0.24980  0.42980  0.89940  Biso   1.000  H
  H76      1.0000 0.82000  0.57020  0.60060  Biso   1.000  H
  H77      1.0000 0.75020  0.18000  0.60060  Biso   1.000  H
  H78      1.0000 0.42980  0.24980  0.60060  Biso   1.000  H
  H79      1.0000 0.23687  0.15333  0.23273  Biso   1.000  H
  H80      1.0000 0.84667  0.08353  0.23273  Biso   1.000  H
  H81      1.0000 0.91647  0.76313  0.23273  Biso   1.000  H
  H82      1.0000 0.48667  0.90353  0.93393  Biso   1.000  H
  H83      1.0000 0.41687  0.51333  0.93393  Biso   1.000  H
  H84      1.0000 0.09647  0.58313  0.93393  Biso   1.000  H
  H85      1.0000 0.90353  0.48667  0.56607  Biso   1.000  H
  H86      1.0000 0.51333  0.41687  0.56607  Biso   1.000  H
  H87      1.0000 0.58313  0.09647  0.56607  Biso   1.000  H
  H88      1.0000 0.15333  0.23687  0.26727  Biso   1.000  H
  H89      1.0000 0.08353  0.84667  0.26727  Biso   1.000  H
  H90      1.0000 0.76313  0.91647  0.26727  Biso   1.000  H
  H91      1.0000 0.42980  0.18000  0.10060  Biso   1.000  H
  H92      1.0000 0.82000  0.24980  0.10060  Biso   1.000  H
  H93      1.0000 0.75020  0.57020  0.10060  Biso   1.000  H
  H94      1.0000 0.18000  0.42980  0.39940  Biso   1.000  H
  H95      1.0000 0.24980  0.82000  0.39940  Biso   1.000  H
  H96      1.0000 0.57020  0.75020  0.39940  Biso   1.000  H
  H97      1.0000 0.09647  0.51333  0.43393  Biso   1.000  H
  H98      1.0000 0.48667  0.58313  0.43393  Biso   1.000  H
  H99      1.0000 0.41687  0.90353  0.43393  Biso   1.000  H
  H100     1.0000 0.84667  0.76313  0.73273  Biso   1.000  H
  H101     1.0000 0.91647  0.15333  0.73273  Biso   1.000  H
  H102     1.0000 0.23687  0.08353  0.73273  Biso   1.000  H
  H103     1.0000 0.76313  0.84667  0.76727  Biso   1.000  H
  H104     1.0000 0.15333  0.91647  0.76727  Biso   1.000  H
  H105     1.0000 0.08353  0.23687  0.76727  Biso   1.000  H
  H106     1.0000 0.51333  0.09647  0.06607  Biso   1.000  H
  H107     1.0000 0.58313  0.48667  0.06607  Biso   1.000  H
  H108     1.0000 0.90353  0.41687  0.06607  Biso   1.000  H
  C145     1.0000 0.94040  0.81560  0.96926  Biso   1.000  C
  C146     1.0000 0.18440  0.12480  0.96926  Biso   1.000  C
  C147     1.0000 0.87520  0.05960  0.96926  Biso   1.000  C
  C148     1.0000 0.81560  0.94040  0.53074  Biso   1.000  C
  C149     1.0000 0.12480  0.18440  0.53074  Biso   1.000  C
  C150     1.0000 0.05960  0.87520  0.53074  Biso   1.000  C
  C151     1.0000 0.60707  0.14893  0.30259  Biso   1.000  C
  C152     1.0000 0.85107  0.45813  0.30259  Biso   1.000  C
  C153     1.0000 0.54187  0.39293  0.30259  Biso   1.000  C
  C154     1.0000 0.48227  0.27373  0.86407  Biso   1.000  C
  C155     1.0000 0.79147  0.51773  0.86407  Biso   1.000  C
  C156     1.0000 0.72627  0.20853  0.86407  Biso   1.000  C
  C157     1.0000 0.27373  0.48227  0.63593  Biso   1.000  C
  C158     1.0000 0.51773  0.79147  0.63593  Biso   1.000  C
  C159     1.0000 0.20853  0.72627  0.63593  Biso   1.000  C
  C160     1.0000 0.14893  0.60707  0.19741  Biso   1.000  C
  C161     1.0000 0.45813  0.85107  0.19741  Biso   1.000  C
  C162     1.0000 0.39293  0.54187  0.19741  Biso   1.000  C
  C163     1.0000 0.05960  0.18440  0.03074  Biso   1.000  C
  C164     1.0000 0.81560  0.87520  0.03074  Biso   1.000  C
  C165     1.0000 0.12480  0.94040  0.03074  Biso   1.000  C
  C166     1.0000 0.18440  0.05960  0.46926  Biso   1.000  C
  C167     1.0000 0.87520  0.81560  0.46926  Biso   1.000  C
  C168     1.0000 0.94040  0.12480  0.46926  Biso   1.000  C
  C169     1.0000 0.72627  0.51773  0.36407  Biso   1.000  C
  C170     1.0000 0.48227  0.20853  0.36407  Biso   1.000  C
  C171     1.0000 0.79147  0.27373  0.36407  Biso   1.000  C
  C172     1.0000 0.85107  0.39293  0.80259  Biso   1.000  C
  C173     1.0000 0.54187  0.14893  0.80259  Biso   1.000  C
  C174     1.0000 0.60707  0.45813  0.80259  Biso   1.000  C
  C175     1.0000 0.39293  0.85107  0.69741  Biso   1.000  C
  C176     1.0000 0.14893  0.54187  0.69741  Biso   1.000  C
  C177     1.0000 0.45813  0.60707  0.69741  Biso   1.000  C
  C178     1.0000 0.51773  0.72627  0.13593  Biso   1.000  C
  C179     1.0000 0.20853  0.48227  0.13593  Biso   1.000  C
  C180     1.0000 0.27373  0.79147  0.13593  Biso   1.000  C
  H109     1.0000 0.01200  0.85720  0.97390  Biso   1.000  H
  H110     1.0000 0.14280  0.15480  0.97390  Biso   1.000  H
  H111     1.0000 0.84520  0.98800  0.97390  Biso   1.000  H
  H112     1.0000 0.85720  0.01200  0.52610  Biso   1.000  H
  H113     1.0000 0.15480  0.14280  0.52610  Biso   1.000  H
  H114     1.0000 0.98800  0.84520  0.52610  Biso   1.000  H
  H115     1.0000 0.67867  0.19053  0.30723  Biso   1.000  H
  H116     1.0000 0.80947  0.48813  0.30723  Biso   1.000  H
  H117     1.0000 0.51187  0.32133  0.30723  Biso   1.000  H
  H118     1.0000 0.52387  0.34533  0.85943  Biso   1.000  H
  H119     1.0000 0.82147  0.47613  0.85943  Biso   1.000  H
  H120     1.0000 0.65467  0.17853  0.85943  Biso   1.000  H
  H121     1.0000 0.34533  0.52387  0.64057  Biso   1.000  H
  H122     1.0000 0.47613  0.82147  0.64057  Biso   1.000  H
  H123     1.0000 0.17853  0.65467  0.64057  Biso   1.000  H
  H124     1.0000 0.19053  0.67867  0.19277  Biso   1.000  H
  H125     1.0000 0.48813  0.80947  0.19277  Biso   1.000  H
  H126     1.0000 0.32133  0.51187  0.19277  Biso   1.000  H
  H127     1.0000 0.98800  0.14280  0.02610  Biso   1.000  H
  H128     1.0000 0.85720  0.84520  0.02610  Biso   1.000  H
  H129     1.0000 0.15480  0.01200  0.02610  Biso   1.000  H
  H130     1.0000 0.14280  0.98800  0.47390  Biso   1.000  H
  H131     1.0000 0.84520  0.85720  0.47390  Biso   1.000  H
  H132     1.0000 0.01200  0.15480  0.47390  Biso   1.000  H
  H133     1.0000 0.65467  0.47613  0.35943  Biso   1.000  H
  H134     1.0000 0.52387  0.17853  0.35943  Biso   1.000  H
  H135     1.0000 0.82147  0.34533  0.35943  Biso   1.000  H
  H136     1.0000 0.80947  0.32133  0.80723  Biso   1.000  H
  H137     1.0000 0.51187  0.19053  0.80723  Biso   1.000  H
  H138     1.0000 0.67867  0.48813  0.80723  Biso   1.000  H
  H139     1.0000 0.32133  0.80947  0.69277  Biso   1.000  H
  H140     1.0000 0.19053  0.51187  0.69277  Biso   1.000  H
  H141     1.0000 0.48813  0.67867  0.69277  Biso   1.000  H
  H142     1.0000 0.47613  0.65467  0.14057  Biso   1.000  H
  H143     1.0000 0.17853  0.52387  0.14057  Biso   1.000  H
  H144     1.0000 0.34533  0.82147  0.14057  Biso   1.000  H
  C181     1.0000 0.72560  0.93550  0.89415  Biso   1.000  C
  C182     1.0000 0.06450  0.79010  0.89415  Biso   1.000  C
  C183     1.0000 0.20990  0.27440  0.89415  Biso   1.000  C
  C184     1.0000 0.93550  0.72560  0.60585  Biso   1.000  C
  C185     1.0000 0.79010  0.06450  0.60585  Biso   1.000  C
  C186     1.0000 0.27440  0.20990  0.60585  Biso   1.000  C
  C187     1.0000 0.39227  0.26883  0.22748  Biso   1.000  C
  C188     1.0000 0.73117  0.12343  0.22748  Biso   1.000  C
  C189     1.0000 0.87657  0.60773  0.22748  Biso   1.000  C
  C190     1.0000 0.60217  0.05893  0.93918  Biso   1.000  C
  C191     1.0000 0.45677  0.39783  0.93918  Biso   1.000  C
  C192     1.0000 0.94107  0.54323  0.93918  Biso   1.000  C
  C193     1.0000 0.05893  0.60217  0.56082  Biso   1.000  C
  C194     1.0000 0.39783  0.45677  0.56082  Biso   1.000  C
  C195     1.0000 0.54323  0.94107  0.56082  Biso   1.000  C
  C196     1.0000 0.26883  0.39227  0.27252  Biso   1.000  C
  C197     1.0000 0.12343  0.73117  0.27252  Biso   1.000  C
  C198     1.0000 0.60773  0.87657  0.27252  Biso   1.000  C
  C199     1.0000 0.27440  0.06450  0.10585  Biso   1.000  C
  C200     1.0000 0.93550  0.20990  0.10585  Biso   1.000  C
  C201     1.0000 0.79010  0.72560  0.10585  Biso   1.000  C
  C202     1.0000 0.06450  0.27440  0.39415  Biso   1.000  C
  C203     1.0000 0.20990  0.93550  0.39415  Biso   1.000  C
  C204     1.0000 0.72560  0.79010  0.39415  Biso   1.000  C
  C205     1.0000 0.94107  0.39783  0.43918  Biso   1.000  C
  C206     1.0000 0.60217  0.54323  0.43918  Biso   1.000  C
  C207     1.0000 0.45677  0.05893  0.43918  Biso   1.000  C
  C208     1.0000 0.73117  0.60773  0.72748  Biso   1.000  C
  C209     1.0000 0.87657  0.26883  0.72748  Biso   1.000  C
  C210     1.0000 0.39227  0.12343  0.72748  Biso   1.000  C
  C211     1.0000 0.60773  0.73117  0.77252  Biso   1.000  C
  C212     1.0000 0.26883  0.87657  0.77252  Biso   1.000  C
  C213     1.0000 0.12343  0.39227  0.77252  Biso   1.000  C
  C214     1.0000 0.39783  0.94107  0.06082  Biso   1.000  C
  C215     1.0000 0.54323  0.60217  0.06082  Biso   1.000  C
  C216     1.0000 0.05893  0.45677  0.06082  Biso   1.000  C
  H145     1.0000 0.71310  0.96710  0.88210  Biso   1.000  H
  H146     1.0000 0.03290  0.74600  0.88210  Biso   1.000  H
  H147     1.0000 0.25400  0.28690  0.88210  Biso   1.000  H
  H148     1.0000 0.96710  0.71310  0.61790  Biso   1.000  H
  H149     1.0000 0.74600  0.03290  0.61790  Biso   1.000  H
  H150     1.0000 0.28690  0.25400  0.61790  Biso   1.000  H
  H151     1.0000 0.37977  0.30043  0.21543  Biso   1.000  H
  H152     1.0000 0.69957  0.07933  0.21543  Biso   1.000  H
  H153     1.0000 0.92067  0.62023  0.21543  Biso   1.000  H
  H154     1.0000 0.63377  0.04643  0.95123  Biso   1.000  H
  H155     1.0000 0.41267  0.36623  0.95123  Biso   1.000  H
  H156     1.0000 0.95357  0.58733  0.95123  Biso   1.000  H
  H157     1.0000 0.04643  0.63377  0.54877  Biso   1.000  H
  H158     1.0000 0.36623  0.41267  0.54877  Biso   1.000  H
  H159     1.0000 0.58733  0.95357  0.54877  Biso   1.000  H
  H160     1.0000 0.30043  0.37977  0.28457  Biso   1.000  H
  H161     1.0000 0.07933  0.69957  0.28457  Biso   1.000  H
  H162     1.0000 0.62023  0.92067  0.28457  Biso   1.000  H
  H163     1.0000 0.28690  0.03290  0.11790  Biso   1.000  H
  H164     1.0000 0.96710  0.25400  0.11790  Biso   1.000  H
  H165     1.0000 0.74600  0.71310  0.11790  Biso   1.000  H
  H166     1.0000 0.03290  0.28690  0.38210  Biso   1.000  H
  H167     1.0000 0.25400  0.96710  0.38210  Biso   1.000  H
  H168     1.0000 0.71310  0.74600  0.38210  Biso   1.000  H
  H169     1.0000 0.95357  0.36623  0.45123  Biso   1.000  H
  H170     1.0000 0.63377  0.58733  0.45123  Biso   1.000  H
  H171     1.0000 0.41267  0.04643  0.45123  Biso   1.000  H
  H172     1.0000 0.69957  0.62023  0.71543  Biso   1.000  H
  H173     1.0000 0.92067  0.30043  0.71543  Biso   1.000  H
  H174     1.0000 0.37977  0.07933  0.71543  Biso   1.000  H
  H175     1.0000 0.62023  0.69957  0.78457  Biso   1.000  H
  H176     1.0000 0.30043  0.92067  0.78457  Biso   1.000  H
  H177     1.0000 0.07933  0.37977  0.78457  Biso   1.000  H
  H178     1.0000 0.36623  0.95357  0.04877  Biso   1.000  H
  H179     1.0000 0.58733  0.63377  0.04877  Biso   1.000  H
  H180     1.0000 0.04643  0.41267  0.04877  Biso   1.000  H
  C217     1.0000 0.80100  0.79550  0.94692  Biso   1.000  C
  C218     1.0000 0.20450  0.00550  0.94692  Biso   1.000  C
  C219     1.0000 0.99450  0.19900  0.94692  Biso   1.000  C
  C220     1.0000 0.79550  0.80100  0.55308  Biso   1.000  C
  C221     1.0000 0.00550  0.20450  0.55308  Biso   1.000  C
  C222     1.0000 0.19900  0.99450  0.55308  Biso   1.000  C
  C223     1.0000 0.46767  0.12883  0.28025  Biso   1.000  C
  C224     1.0000 0.87117  0.33883  0.28025  Biso   1.000  C
  C225     1.0000 0.66117  0.53233  0.28025  Biso   1.000  C
  C226     1.0000 0.46217  0.13433  0.88641  Biso   1.000  C
  C227     1.0000 0.67217  0.53783  0.88641  Biso   1.000  C
  C228     1.0000 0.86567  0.32783  0.88641  Biso   1.000  C
  C229     1.0000 0.13433  0.46217  0.61359  Biso   1.000  C
  C230     1.0000 0.53783  0.67217  0.61359  Biso   1.000  C
  C231     1.0000 0.32783  0.86567  0.61359  Biso   1.000  C
  C232     1.0000 0.12883  0.46767  0.21975  Biso   1.000  C
  C233     1.0000 0.33883  0.87117  0.21975  Biso   1.000  C
  C234     1.0000 0.53233  0.66117  0.21975  Biso   1.000  C
  C235     1.0000 0.19900  0.20450  0.05308  Biso   1.000  C
  C236     1.0000 0.79550  0.99450  0.05308  Biso   1.000  C
  C237     1.0000 0.00550  0.80100  0.05308  Biso   1.000  C
  C238     1.0000 0.20450  0.19900  0.44692  Biso   1.000  C
  C239     1.0000 0.99450  0.79550  0.44692  Biso   1.000  C
  C240     1.0000 0.80100  0.00550  0.44692  Biso   1.000  C
  C241     1.0000 0.86567  0.53783  0.38641  Biso   1.000  C
  C242     1.0000 0.46217  0.32783  0.38641  Biso   1.000  C
  C243     1.0000 0.67217  0.13433  0.38641  Biso   1.000  C
  C244     1.0000 0.87117  0.53233  0.78025  Biso   1.000  C
  C245     1.0000 0.66117  0.12883  0.78025  Biso   1.000  C
  C246     1.0000 0.46767  0.33883  0.78025  Biso   1.000  C
  C247     1.0000 0.53233  0.87117  0.71975  Biso   1.000  C
  C248     1.0000 0.12883  0.66117  0.71975  Biso   1.000  C
  C249     1.0000 0.33883  0.46767  0.71975  Biso   1.000  C
  C250     1.0000 0.53783  0.86567  0.11359  Biso   1.000  C
  C251     1.0000 0.32783  0.46217  0.11359  Biso   1.000  C
  C252     1.0000 0.13433  0.67217  0.11359  Biso   1.000  C
  C253     1.0000 0.73060  0.69530  0.95638  Biso   1.000  C
  C254     1.0000 0.30470  0.03530  0.95638  Biso   1.000  C
  C255     1.0000 0.96470  0.26940  0.95638  Biso   1.000  C
  C256     1.0000 0.69530  0.73060  0.54362  Biso   1.000  C
  C257     1.0000 0.03530  0.30470  0.54362  Biso   1.000  C
  C258     1.0000 0.26940  0.96470  0.54362  Biso   1.000  C
  C259     1.0000 0.39727  0.02863  0.28971  Biso   1.000  C
  C260     1.0000 0.97137  0.36863  0.28971  Biso   1.000  C
  C261     1.0000 0.63137  0.60273  0.28971  Biso   1.000  C
  C262     1.0000 0.36197  0.06393  0.87695  Biso   1.000  C
  C263     1.0000 0.70197  0.63803  0.87695  Biso   1.000  C
  C264     1.0000 0.93607  0.29803  0.87695  Biso   1.000  C
  C265     1.0000 0.06393  0.36197  0.62305  Biso   1.000  C
  C266     1.0000 0.63803  0.70197  0.62305  Biso   1.000  C
  C267     1.0000 0.29803  0.93607  0.62305  Biso   1.000  C
  C268     1.0000 0.02863  0.39727  0.21029  Biso   1.000  C
  C269     1.0000 0.36863  0.97137  0.21029  Biso   1.000  C
  C270     1.0000 0.60273  0.63137  0.21029  Biso   1.000  C
  C271     1.0000 0.26940  0.30470  0.04362  Biso   1.000  C
  C272     1.0000 0.69530  0.96470  0.04362  Biso   1.000  C
  C273     1.0000 0.03530  0.73060  0.04362  Biso   1.000  C
  C274     1.0000 0.30470  0.26940  0.45638  Biso   1.000  C
  C275     1.0000 0.96470  0.69530  0.45638  Biso   1.000  C
  C276     1.0000 0.73060  0.03530  0.45638  Biso   1.000  C
  C277     1.0000 0.93607  0.63803  0.37695  Biso   1.000  C
  C278     1.0000 0.36197  0.29803  0.37695  Biso   1.000  C
  C279     1.0000 0.70197  0.06393  0.37695  Biso   1.000  C
  C280     1.0000 0.97137  0.60273  0.78971  Biso   1.000  C
  C281     1.0000 0.63137  0.02863  0.78971  Biso   1.000  C
  C282     1.0000 0.39727  0.36863  0.78971  Biso   1.000  C
  C283     1.0000 0.60273  0.97137  0.71029  Biso   1.000  C
  C284     1.0000 0.02863  0.63137  0.71029  Biso   1.000  C
  C285     1.0000 0.36863  0.39727  0.71029  Biso   1.000  C
  C286     1.0000 0.63803  0.93607  0.12305  Biso   1.000  C
  C287     1.0000 0.29803  0.36197  0.12305  Biso   1.000  C
  C288     1.0000 0.06393  0.70197  0.12305  Biso   1.000  C
  H181     1.0000 0.65880  0.65530  0.95180  Biso   1.000  H
  H182     1.0000 0.34470  0.00350  0.95180  Biso   1.000  H
  H183     1.0000 0.99650  0.34120  0.95180  Biso   1.000  H
  H184     1.0000 0.65530  0.65880  0.54820  Biso   1.000  H
  H185     1.0000 0.00350  0.34470  0.54820  Biso   1.000  H
  H186     1.0000 0.34120  0.99650  0.54820  Biso   1.000  H
  H187     1.0000 0.32547  0.98863  0.28513  Biso   1.000  H
  H188     1.0000 0.01137  0.33683  0.28513  Biso   1.000  H
  H189     1.0000 0.66317  0.67453  0.28513  Biso   1.000  H
  H190     1.0000 0.32197  0.99213  0.88153  Biso   1.000  H
  H191     1.0000 0.67017  0.67803  0.88153  Biso   1.000  H
  H192     1.0000 0.00787  0.32983  0.88153  Biso   1.000  H
  H193     1.0000 0.99213  0.32197  0.61847  Biso   1.000  H
  H194     1.0000 0.67803  0.67017  0.61847  Biso   1.000  H
  H195     1.0000 0.32983  0.00787  0.61847  Biso   1.000  H
  H196     1.0000 0.98863  0.32547  0.21487  Biso   1.000  H
  H197     1.0000 0.33683  0.01137  0.21487  Biso   1.000  H
  H198     1.0000 0.67453  0.66317  0.21487  Biso   1.000  H
  H199     1.0000 0.34120  0.34470  0.04820  Biso   1.000  H
  H200     1.0000 0.65530  0.99650  0.04820  Biso   1.000  H
  H201     1.0000 0.00350  0.65880  0.04820  Biso   1.000  H
  H202     1.0000 0.34470  0.34120  0.45180  Biso   1.000  H
  H203     1.0000 0.99650  0.65530  0.45180  Biso   1.000  H
  H204     1.0000 0.65880  0.00350  0.45180  Biso   1.000  H
  H205     1.0000 0.00787  0.67803  0.38153  Biso   1.000  H
  H206     1.0000 0.32197  0.32983  0.38153  Biso   1.000  H
  H207     1.0000 0.67017  0.99213  0.38153  Biso   1.000  H
  H208     1.0000 0.01137  0.67453  0.78513  Biso   1.000  H
  H209     1.0000 0.66317  0.98863  0.78513  Biso   1.000  H
  H210     1.0000 0.32547  0.33683  0.78513  Biso   1.000  H
  H211     1.0000 0.67453  0.01137  0.71487  Biso   1.000  H
  H212     1.0000 0.98863  0.66317  0.71487  Biso   1.000  H
  H213     1.0000 0.33683  0.32547  0.71487  Biso   1.000  H
  H214     1.0000 0.67803  0.00787  0.11847  Biso   1.000  H
  H215     1.0000 0.32983  0.32197  0.11847  Biso   1.000  H
  H216     1.0000 0.99213  0.67017  0.11847  Biso   1.000  H
  C289     1.0000 0.87500  0.71560  0.97889  Biso   1.000  C
  C290     1.0000 0.28440  0.15940  0.97889  Biso   1.000  C
  C291     1.0000 0.84060  0.12500  0.97889  Biso   1.000  C
  C292     1.0000 0.71560  0.87500  0.52111  Biso   1.000  C
  C293     1.0000 0.15940  0.28440  0.52111  Biso   1.000  C
  C294     1.0000 0.12500  0.84060  0.52111  Biso   1.000  C
  C295     1.0000 0.54167  0.04893  0.31222  Biso   1.000  C
  C296     1.0000 0.95107  0.49273  0.31222  Biso   1.000  C
  C297     1.0000 0.50727  0.45833  0.31222  Biso   1.000  C
  C298     1.0000 0.38227  0.20833  0.85444  Biso   1.000  C
  C299     1.0000 0.82607  0.61773  0.85444  Biso   1.000  C
  C300     1.0000 0.79167  0.17393  0.85444  Biso   1.000  C
  C301     1.0000 0.20833  0.38227  0.64556  Biso   1.000  C
  C302     1.0000 0.61773  0.82607  0.64556  Biso   1.000  C
  C303     1.0000 0.17393  0.79167  0.64556  Biso   1.000  C
  C304     1.0000 0.04893  0.54167  0.18778  Biso   1.000  C
  C305     1.0000 0.49273  0.95107  0.18778  Biso   1.000  C
  C306     1.0000 0.45833  0.50727  0.18778  Biso   1.000  C
  C307     1.0000 0.12500  0.28440  0.02111  Biso   1.000  C
  C308     1.0000 0.71560  0.84060  0.02111  Biso   1.000  C
  C309     1.0000 0.15940  0.87500  0.02111  Biso   1.000  C
  C310     1.0000 0.28440  0.12500  0.47889  Biso   1.000  C
  C311     1.0000 0.84060  0.71560  0.47889  Biso   1.000  C
  C312     1.0000 0.87500  0.15940  0.47889  Biso   1.000  C
  C313     1.0000 0.79167  0.61773  0.35444  Biso   1.000  C
  C314     1.0000 0.38227  0.17393  0.35444  Biso   1.000  C
  C315     1.0000 0.82607  0.20833  0.35444  Biso   1.000  C
  C316     1.0000 0.95107  0.45833  0.81222  Biso   1.000  C
  C317     1.0000 0.50727  0.04893  0.81222  Biso   1.000  C
  C318     1.0000 0.54167  0.49273  0.81222  Biso   1.000  C
  C319     1.0000 0.45833  0.95107  0.68778  Biso   1.000  C
  C320     1.0000 0.04893  0.50727  0.68778  Biso   1.000  C
  C321     1.0000 0.49273  0.54167  0.68778  Biso   1.000  C
  C322     1.0000 0.61773  0.79167  0.14556  Biso   1.000  C
  C323     1.0000 0.17393  0.38227  0.14556  Biso   1.000  C
  C324     1.0000 0.20833  0.82607  0.14556  Biso   1.000  C
  H217     1.0000 0.90280  0.68920  0.98940  Biso   1.000  H
  H218     1.0000 0.31080  0.21360  0.98940  Biso   1.000  H
  H219     1.0000 0.78640  0.09720  0.98940  Biso   1.000  H
  H220     1.0000 0.68920  0.90280  0.51060  Biso   1.000  H
  H221     1.0000 0.21360  0.31080  0.51060  Biso   1.000  H
  H222     1.0000 0.09720  0.78640  0.51060  Biso   1.000  H
  H223     1.0000 0.56947  0.02253  0.32273  Biso   1.000  H
  H224     1.0000 0.97747  0.54693  0.32273  Biso   1.000  H
  H225     1.0000 0.45307  0.43053  0.32273  Biso   1.000  H
  H226     1.0000 0.35587  0.23613  0.84393  Biso   1.000  H
  H227     1.0000 0.88027  0.64413  0.84393  Biso   1.000  H
  H228     1.0000 0.76387  0.11973  0.84393  Biso   1.000  H
  H229     1.0000 0.23613  0.35587  0.65607  Biso   1.000  H
  H230     1.0000 0.64413  0.88027  0.65607  Biso   1.000  H
  H231     1.0000 0.11973  0.76387  0.65607  Biso   1.000  H
  H232     1.0000 0.02253  0.56947  0.17727  Biso   1.000  H
  H233     1.0000 0.54693  0.97747  0.17727  Biso   1.000  H
  H234     1.0000 0.43053  0.45307  0.17727  Biso   1.000  H
  H235     1.0000 0.09720  0.31080  0.01060  Biso   1.000  H
  H236     1.0000 0.68920  0.78640  0.01060  Biso   1.000  H
  H237     1.0000 0.21360  0.90280  0.01060  Biso   1.000  H
  H238     1.0000 0.31080  0.09720  0.48940  Biso   1.000  H
  H239     1.0000 0.78640  0.68920  0.48940  Biso   1.000  H
  H240     1.0000 0.90280  0.21360  0.48940  Biso   1.000  H
  H241     1.0000 0.76387  0.64413  0.34393  Biso   1.000  H
  H242     1.0000 0.35587  0.11973  0.34393  Biso   1.000  H
  H243     1.0000 0.88027  0.23613  0.34393  Biso   1.000  H
  H244     1.0000 0.97747  0.43053  0.82273  Biso   1.000  H
  H245     1.0000 0.45307  0.02253  0.82273  Biso   1.000  H
  H246     1.0000 0.56947  0.54693  0.82273  Biso   1.000  H
  H247     1.0000 0.43053  0.97747  0.67727  Biso   1.000  H
  H248     1.0000 0.02253  0.45307  0.67727  Biso   1.000  H
  H249     1.0000 0.54693  0.56947  0.67727  Biso   1.000  H
  H250     1.0000 0.64413  0.76387  0.15607  Biso   1.000  H
  H251     1.0000 0.11973  0.35587  0.15607  Biso   1.000  H
  H252     1.0000 0.23613  0.88027  0.15607  Biso   1.000  H
  C325     1.0000 0.76840  0.65620  0.97259  Biso   1.000  C
  C326     1.0000 0.34380  0.11220  0.97259  Biso   1.000  C
  C327     1.0000 0.88780  0.23160  0.97259  Biso   1.000  C
  C328     1.0000 0.65620  0.76840  0.52741  Biso   1.000  C
  C329     1.0000 0.11220  0.34380  0.52741  Biso   1.000  C
  C330     1.0000 0.23160  0.88780  0.52741  Biso   1.000  C
  C331     1.0000 0.43507  0.98953  0.30592  Biso   1.000  C
  C332     1.0000 0.01047  0.44553  0.30592  Biso   1.000  C
  C333     1.0000 0.55447  0.56493  0.30592  Biso   1.000  C
  C334     1.0000 0.32287  0.10173  0.86074  Biso   1.000  C
  C335     1.0000 0.77887  0.67713  0.86074  Biso   1.000  C
  C336     1.0000 0.89827  0.22113  0.86074  Biso   1.000  C
  C337     1.0000 0.10173  0.32287  0.63926  Biso   1.000  C
  C338     1.0000 0.67713  0.77887  0.63926  Biso   1.000  C
  C339     1.0000 0.22113  0.89827  0.63926  Biso   1.000  C
  C340     1.0000 0.98953  0.43507  0.19408  Biso   1.000  C
  C341     1.0000 0.44553  0.01047  0.19408  Biso   1.000  C
  C342     1.0000 0.56493  0.55447  0.19408  Biso   1.000  C
  C343     1.0000 0.23160  0.34380  0.02741  Biso   1.000  C
  C344     1.0000 0.65620  0.88780  0.02741  Biso   1.000  C
  C345     1.0000 0.11220  0.76840  0.02741  Biso   1.000  C
  C346     1.0000 0.34380  0.23160  0.47259  Biso   1.000  C
  C347     1.0000 0.88780  0.65620  0.47259  Biso   1.000  C
  C348     1.0000 0.76840  0.11220  0.47259  Biso   1.000  C
  C349     1.0000 0.89827  0.67713  0.36074  Biso   1.000  C
  C350     1.0000 0.32287  0.22113  0.36074  Biso   1.000  C
  C351     1.0000 0.77887  0.10173  0.36074  Biso   1.000  C
  C352     1.0000 0.01047  0.56493  0.80592  Biso   1.000  C
  C353     1.0000 0.55447  0.98953  0.80592  Biso   1.000  C
  C354     1.0000 0.43507  0.44553  0.80592  Biso   1.000  C
  C355     1.0000 0.56493  0.01047  0.69408  Biso   1.000  C
  C356     1.0000 0.98953  0.55447  0.69408  Biso   1.000  C
  C357     1.0000 0.44553  0.43507  0.69408  Biso   1.000  C
  C358     1.0000 0.67713  0.89827  0.13926  Biso   1.000  C
  C359     1.0000 0.22113  0.32287  0.13926  Biso   1.000  C
  C360     1.0000 0.10173  0.77887  0.13926  Biso   1.000  C
  H253     1.0000 0.72200  0.59010  0.97920  Biso   1.000  H
  H254     1.0000 0.40990  0.13190  0.97920  Biso   1.000  H
  H255     1.0000 0.86810  0.27800  0.97920  Biso   1.000  H
  H256     1.0000 0.59010  0.72200  0.52080  Biso   1.000  H
  H257     1.0000 0.13190  0.40990  0.52080  Biso   1.000  H
  H258     1.0000 0.27800  0.86810  0.52080  Biso   1.000  H
  H259     1.0000 0.38867  0.92343  0.31253  Biso   1.000  H
  H260     1.0000 0.07657  0.46523  0.31253  Biso   1.000  H
  H261     1.0000 0.53477  0.61133  0.31253  Biso   1.000  H
  H262     1.0000 0.25677  0.05533  0.85413  Biso   1.000  H
  H263     1.0000 0.79857  0.74323  0.85413  Biso   1.000  H
  H264     1.0000 0.94467  0.20143  0.85413  Biso   1.000  H
  H265     1.0000 0.05533  0.25677  0.64587  Biso   1.000  H
  H266     1.0000 0.74323  0.79857  0.64587  Biso   1.000  H
  H267     1.0000 0.20143  0.94467  0.64587  Biso   1.000  H
  H268     1.0000 0.92343  0.38867  0.18747  Biso   1.000  H
  H269     1.0000 0.46523  0.07657  0.18747  Biso   1.000  H
  H270     1.0000 0.61133  0.53477  0.18747  Biso   1.000  H
  H271     1.0000 0.27800  0.40990  0.02080  Biso   1.000  H
  H272     1.0000 0.59010  0.86810  0.02080  Biso   1.000  H
  H273     1.0000 0.13190  0.72200  0.02080  Biso   1.000  H
  H274     1.0000 0.40990  0.27800  0.47920  Biso   1.000  H
  H275     1.0000 0.86810  0.59010  0.47920  Biso   1.000  H
  H276     1.0000 0.72200  0.13190  0.47920  Biso   1.000  H
  H277     1.0000 0.94467  0.74323  0.35413  Biso   1.000  H
  H278     1.0000 0.25677  0.20143  0.35413  Biso   1.000  H
  H279     1.0000 0.79857  0.05533  0.35413  Biso   1.000  H
  H280     1.0000 0.07657  0.61133  0.81253  Biso   1.000  H
  H281     1.0000 0.53477  0.92343  0.81253  Biso   1.000  H
  H282     1.0000 0.38867  0.46523  0.81253  Biso   1.000  H
  H283     1.0000 0.61133  0.07657  0.68747  Biso   1.000  H
  H284     1.0000 0.92343  0.53477  0.68747  Biso   1.000  H
  H285     1.0000 0.46523  0.38867  0.68747  Biso   1.000  H
  H286     1.0000 0.74323  0.94467  0.14587  Biso   1.000  H
  H287     1.0000 0.20143  0.25677  0.14587  Biso   1.000  H
  H288     1.0000 0.05533  0.79857  0.14587  Biso   1.000  H
