data_image0
_cell_length_a       19.505
_cell_length_b       19.505
_cell_length_c       19.505
_cell_angle_alpha    90
_cell_angle_beta     90
_cell_angle_gamma    90

_symmetry_space_group_name_H-M    "P 1"
_symmetry_int_tables_number       1

loop_
  _symmetry_equiv_pos_as_xyz
  'x, y, z'

loop_
  _atom_site_label
  _atom_site_occupancy
  _atom_site_fract_x
  _atom_site_fract_y
  _atom_site_fract_z
  _atom_site_thermal_displace_type
  _atom_site_B_iso_or_equiv
  _atom_site_type_symbol
  N1       1.0000 0.52890  0.33720  0.17530  Biso   1.000  N
  N2       1.0000 0.58720  0.22110  0.07470  Biso   1.000  N
  N3       1.0000 0.02890  0.16280  0.82470  Biso   1.000  N
  N4       1.0000 0.17530  0.52890  0.33720  Biso   1.000  N
  N5       1.0000 0.47110  0.16280  0.17530  Biso   1.000  N
  N6       1.0000 0.41280  0.72110  0.42530  Biso   1.000  N
  N7       1.0000 0.77890  0.57470  0.91280  Biso   1.000  N
  N8       1.0000 0.41280  0.27890  0.07470  Biso   1.000  N
  N9       1.0000 0.97110  0.33720  0.82470  Biso   1.000  N
  N10      1.0000 0.82470  0.97110  0.33720  Biso   1.000  N
  N11      1.0000 0.58720  0.77890  0.42530  Biso   1.000  N
  N12      1.0000 0.22110  0.92530  0.91280  Biso   1.000  N
  N13      1.0000 0.67530  0.97110  0.66280  Biso   1.000  N
  N14      1.0000 0.27890  0.92530  0.08720  Biso   1.000  N
  N15      1.0000 0.32470  0.52890  0.66280  Biso   1.000  N
  N16      1.0000 0.72110  0.57470  0.08720  Biso   1.000  N
  N17      1.0000 0.33720  0.17530  0.52890  Biso   1.000  N
  N18      1.0000 0.42530  0.41280  0.72110  Biso   1.000  N
  N19      1.0000 0.07470  0.41280  0.27890  Biso   1.000  N
  N20      1.0000 0.33720  0.82470  0.97110  Biso   1.000  N
  N21      1.0000 0.42530  0.58720  0.77890  Biso   1.000  N
  N22      1.0000 0.66280  0.67530  0.97110  Biso   1.000  N
  N23      1.0000 0.66280  0.32470  0.52890  Biso   1.000  N
  N24      1.0000 0.57470  0.08720  0.72110  Biso   1.000  N
  N25      1.0000 0.02890  0.83720  0.67530  Biso   1.000  N
  N26      1.0000 0.08720  0.72110  0.57470  Biso   1.000  N
  N27      1.0000 0.52890  0.66280  0.32470  Biso   1.000  N
  N28      1.0000 0.67530  0.02890  0.83720  Biso   1.000  N
  N29      1.0000 0.97110  0.66280  0.67530  Biso   1.000  N
  N30      1.0000 0.91280  0.22110  0.92530  Biso   1.000  N
  N31      1.0000 0.27890  0.07470  0.41280  Biso   1.000  N
  N32      1.0000 0.91280  0.77890  0.57470  Biso   1.000  N
  N33      1.0000 0.47110  0.83720  0.32470  Biso   1.000  N
  N34      1.0000 0.32470  0.47110  0.83720  Biso   1.000  N
  N35      1.0000 0.08720  0.27890  0.92530  Biso   1.000  N
  N36      1.0000 0.72110  0.42530  0.41280  Biso   1.000  N
  N37      1.0000 0.17530  0.47110  0.16280  Biso   1.000  N
  N38      1.0000 0.77890  0.42530  0.58720  Biso   1.000  N
  N39      1.0000 0.82470  0.02890  0.16280  Biso   1.000  N
  N40      1.0000 0.22110  0.07470  0.58720  Biso   1.000  N
  N41      1.0000 0.83720  0.67530  0.02890  Biso   1.000  N
  N42      1.0000 0.92530  0.91280  0.22110  Biso   1.000  N
  N43      1.0000 0.57470  0.91280  0.77890  Biso   1.000  N
  N44      1.0000 0.83720  0.32470  0.47110  Biso   1.000  N
  N45      1.0000 0.92530  0.08720  0.27890  Biso   1.000  N
  N46      1.0000 0.16280  0.17530  0.47110  Biso   1.000  N
  N47      1.0000 0.16280  0.82470  0.02890  Biso   1.000  N
  N48      1.0000 0.07470  0.58720  0.22110  Biso   1.000  N
  C1       1.0000 0.53190  0.39410  0.13700  Biso   1.000  C
  C2       1.0000 0.64410  0.21810  0.11300  Biso   1.000  C
  C3       1.0000 0.03190  0.10590  0.86300  Biso   1.000  C
  C4       1.0000 0.13700  0.53190  0.39410  Biso   1.000  C
  C5       1.0000 0.46810  0.10590  0.13700  Biso   1.000  C
  C6       1.0000 0.35590  0.71810  0.38700  Biso   1.000  C
  C7       1.0000 0.78190  0.61300  0.85590  Biso   1.000  C
  C8       1.0000 0.35590  0.28190  0.11300  Biso   1.000  C
  C9       1.0000 0.96810  0.39410  0.86300  Biso   1.000  C
  C10      1.0000 0.86300  0.96810  0.39410  Biso   1.000  C
  C11      1.0000 0.64410  0.78190  0.38700  Biso   1.000  C
  C12      1.0000 0.21810  0.88700  0.85590  Biso   1.000  C
  C13      1.0000 0.63700  0.96810  0.60590  Biso   1.000  C
  C14      1.0000 0.28190  0.88700  0.14410  Biso   1.000  C
  C15      1.0000 0.36300  0.53190  0.60590  Biso   1.000  C
  C16      1.0000 0.71810  0.61300  0.14410  Biso   1.000  C
  C17      1.0000 0.39410  0.13700  0.53190  Biso   1.000  C
  C18      1.0000 0.38700  0.35590  0.71810  Biso   1.000  C
  C19      1.0000 0.11300  0.35590  0.28190  Biso   1.000  C
  C20      1.0000 0.39410  0.86300  0.96810  Biso   1.000  C
  C21      1.0000 0.38700  0.64410  0.78190  Biso   1.000  C
  C22      1.0000 0.60590  0.63700  0.96810  Biso   1.000  C
  C23      1.0000 0.60590  0.36300  0.53190  Biso   1.000  C
  C24      1.0000 0.61300  0.14410  0.71810  Biso   1.000  C
  C25      1.0000 0.03190  0.89410  0.63700  Biso   1.000  C
  C26      1.0000 0.14410  0.71810  0.61300  Biso   1.000  C
  C27      1.0000 0.53190  0.60590  0.36300  Biso   1.000  C
  C28      1.0000 0.63700  0.03190  0.89410  Biso   1.000  C
  C29      1.0000 0.96810  0.60590  0.63700  Biso   1.000  C
  C30      1.0000 0.85590  0.21810  0.88700  Biso   1.000  C
  C31      1.0000 0.28190  0.11300  0.35590  Biso   1.000  C
  C32      1.0000 0.85590  0.78190  0.61300  Biso   1.000  C
  C33      1.0000 0.46810  0.89410  0.36300  Biso   1.000  C
  C34      1.0000 0.36300  0.46810  0.89410  Biso   1.000  C
  C35      1.0000 0.14410  0.28190  0.88700  Biso   1.000  C
  C36      1.0000 0.71810  0.38700  0.35590  Biso   1.000  C
  C37      1.0000 0.13700  0.46810  0.10590  Biso   1.000  C
  C38      1.0000 0.78190  0.38700  0.64410  Biso   1.000  C
  C39      1.0000 0.86300  0.03190  0.10590  Biso   1.000  C
  C40      1.0000 0.21810  0.11300  0.64410  Biso   1.000  C
  C41      1.0000 0.89410  0.63700  0.03190  Biso   1.000  C
  C42      1.0000 0.88700  0.85590  0.21810  Biso   1.000  C
  C43      1.0000 0.61300  0.85590  0.78190  Biso   1.000  C
  C44      1.0000 0.89410  0.36300  0.46810  Biso   1.000  C
  C45      1.0000 0.88700  0.14410  0.28190  Biso   1.000  C
  C46      1.0000 0.10590  0.13700  0.46810  Biso   1.000  C
  C47      1.0000 0.10590  0.86300  0.03190  Biso   1.000  C
  C48      1.0000 0.11300  0.64410  0.21810  Biso   1.000  C
  C49      1.0000 0.53640  0.45990  0.16210  Biso   1.000  C
  C50      1.0000 0.70990  0.21360  0.08790  Biso   1.000  C
  C51      1.0000 0.03640  0.04010  0.83790  Biso   1.000  C
  C52      1.0000 0.16210  0.53640  0.45990  Biso   1.000  C
  C53      1.0000 0.46360  0.04010  0.16210  Biso   1.000  C
  C54      1.0000 0.29010  0.71360  0.41210  Biso   1.000  C
  C55      1.0000 0.78640  0.58790  0.79010  Biso   1.000  C
  C56      1.0000 0.29010  0.28640  0.08790  Biso   1.000  C
  C57      1.0000 0.96360  0.45990  0.83790  Biso   1.000  C
  C58      1.0000 0.83790  0.96360  0.45990  Biso   1.000  C
  C59      1.0000 0.70990  0.78640  0.41210  Biso   1.000  C
  C60      1.0000 0.21360  0.91210  0.79010  Biso   1.000  C
  C61      1.0000 0.66210  0.96360  0.54010  Biso   1.000  C
  C62      1.0000 0.28640  0.91210  0.20990  Biso   1.000  C
  C63      1.0000 0.33790  0.53640  0.54010  Biso   1.000  C
  C64      1.0000 0.71360  0.58790  0.20990  Biso   1.000  C
  C65      1.0000 0.45990  0.16210  0.53640  Biso   1.000  C
  C66      1.0000 0.41210  0.29010  0.71360  Biso   1.000  C
  C67      1.0000 0.08790  0.29010  0.28640  Biso   1.000  C
  C68      1.0000 0.45990  0.83790  0.96360  Biso   1.000  C
  C69      1.0000 0.41210  0.70990  0.78640  Biso   1.000  C
  C70      1.0000 0.54010  0.66210  0.96360  Biso   1.000  C
  C71      1.0000 0.54010  0.33790  0.53640  Biso   1.000  C
  C72      1.0000 0.58790  0.20990  0.71360  Biso   1.000  C
  C73      1.0000 0.03640  0.95990  0.66210  Biso   1.000  C
  C74      1.0000 0.20990  0.71360  0.58790  Biso   1.000  C
  C75      1.0000 0.53640  0.54010  0.33790  Biso   1.000  C
  C76      1.0000 0.66210  0.03640  0.95990  Biso   1.000  C
  C77      1.0000 0.96360  0.54010  0.66210  Biso   1.000  C
  C78      1.0000 0.79010  0.21360  0.91210  Biso   1.000  C
  C79      1.0000 0.28640  0.08790  0.29010  Biso   1.000  C
  C80      1.0000 0.79010  0.78640  0.58790  Biso   1.000  C
  C81      1.0000 0.46360  0.95990  0.33790  Biso   1.000  C
  C82      1.0000 0.33790  0.46360  0.95990  Biso   1.000  C
  C83      1.0000 0.20990  0.28640  0.91210  Biso   1.000  C
  C84      1.0000 0.71360  0.41210  0.29010  Biso   1.000  C
  C85      1.0000 0.16210  0.46360  0.04010  Biso   1.000  C
  C86      1.0000 0.78640  0.41210  0.70990  Biso   1.000  C
  C87      1.0000 0.83790  0.03640  0.04010  Biso   1.000  C
  C88      1.0000 0.21360  0.08790  0.70990  Biso   1.000  C
  C89      1.0000 0.95990  0.66210  0.03640  Biso   1.000  C
  C90      1.0000 0.91210  0.79010  0.21360  Biso   1.000  C
  C91      1.0000 0.58790  0.79010  0.78640  Biso   1.000  C
  C92      1.0000 0.95990  0.33790  0.46360  Biso   1.000  C
  C93      1.0000 0.91210  0.20990  0.28640  Biso   1.000  C
  C94      1.0000 0.04010  0.16210  0.46360  Biso   1.000  C
  C95      1.0000 0.04010  0.83790  0.03640  Biso   1.000  C
  C96      1.0000 0.08790  0.70990  0.21360  Biso   1.000  C
  C97      1.0000 0.53710  0.46680  0.23410  Biso   1.000  C
  C98      1.0000 0.71680  0.21290  0.01590  Biso   1.000  C
  C99      1.0000 0.03710  0.03320  0.76590  Biso   1.000  C
  C100     1.0000 0.23410  0.53710  0.46680  Biso   1.000  C
  C101     1.0000 0.46290  0.03320  0.23410  Biso   1.000  C
  C102     1.0000 0.28320  0.71290  0.48410  Biso   1.000  C
  C103     1.0000 0.78710  0.51590  0.78320  Biso   1.000  C
  C104     1.0000 0.28320  0.28710  0.01590  Biso   1.000  C
  C105     1.0000 0.96290  0.46680  0.76590  Biso   1.000  C
  C106     1.0000 0.76590  0.96290  0.46680  Biso   1.000  C
  C107     1.0000 0.71680  0.78710  0.48410  Biso   1.000  C
  C108     1.0000 0.21290  0.98410  0.78320  Biso   1.000  C
  C109     1.0000 0.73410  0.96290  0.53320  Biso   1.000  C
  C110     1.0000 0.28710  0.98410  0.21680  Biso   1.000  C
  C111     1.0000 0.26590  0.53710  0.53320  Biso   1.000  C
  C112     1.0000 0.71290  0.51590  0.21680  Biso   1.000  C
  C113     1.0000 0.46680  0.23410  0.53710  Biso   1.000  C
  C114     1.0000 0.48410  0.28320  0.71290  Biso   1.000  C
  C115     1.0000 0.01590  0.28320  0.28710  Biso   1.000  C
  C116     1.0000 0.46680  0.76590  0.96290  Biso   1.000  C
  C117     1.0000 0.48410  0.71680  0.78710  Biso   1.000  C
  C118     1.0000 0.53320  0.73410  0.96290  Biso   1.000  C
  C119     1.0000 0.53320  0.26590  0.53710  Biso   1.000  C
  C120     1.0000 0.51590  0.21680  0.71290  Biso   1.000  C
  C121     1.0000 0.03710  0.96680  0.73410  Biso   1.000  C
  C122     1.0000 0.21680  0.71290  0.51590  Biso   1.000  C
  C123     1.0000 0.53710  0.53320  0.26590  Biso   1.000  C
  C124     1.0000 0.73410  0.03710  0.96680  Biso   1.000  C
  C125     1.0000 0.96290  0.53320  0.73410  Biso   1.000  C
  C126     1.0000 0.78320  0.21290  0.98410  Biso   1.000  C
  C127     1.0000 0.28710  0.01590  0.28320  Biso   1.000  C
  C128     1.0000 0.78320  0.78710  0.51590  Biso   1.000  C
  C129     1.0000 0.46290  0.96680  0.26590  Biso   1.000  C
  C130     1.0000 0.26590  0.46290  0.96680  Biso   1.000  C
  C131     1.0000 0.21680  0.28710  0.98410  Biso   1.000  C
  C132     1.0000 0.71290  0.48410  0.28320  Biso   1.000  C
  C133     1.0000 0.23410  0.46290  0.03320  Biso   1.000  C
  C134     1.0000 0.78710  0.48410  0.71680  Biso   1.000  C
  C135     1.0000 0.76590  0.03710  0.03320  Biso   1.000  C
  C136     1.0000 0.21290  0.01590  0.71680  Biso   1.000  C
  C137     1.0000 0.96680  0.73410  0.03710  Biso   1.000  C
  C138     1.0000 0.98410  0.78320  0.21290  Biso   1.000  C
  C139     1.0000 0.51590  0.78320  0.78710  Biso   1.000  C
  C140     1.0000 0.96680  0.26590  0.46290  Biso   1.000  C
  C141     1.0000 0.98410  0.21680  0.28710  Biso   1.000  C
  C142     1.0000 0.03320  0.23410  0.46290  Biso   1.000  C
  C143     1.0000 0.03320  0.76590  0.03710  Biso   1.000  C
  C144     1.0000 0.01590  0.71680  0.21290  Biso   1.000  C
  C145     1.0000 0.53610  0.40810  0.27590  Biso   1.000  C
  C146     1.0000 0.65810  0.21390  0.97410  Biso   1.000  C
  C147     1.0000 0.03610  0.09190  0.72410  Biso   1.000  C
  C148     1.0000 0.27590  0.53610  0.40810  Biso   1.000  C
  C149     1.0000 0.46390  0.09190  0.27590  Biso   1.000  C
  C150     1.0000 0.34190  0.71390  0.52590  Biso   1.000  C
  C151     1.0000 0.78610  0.47410  0.84190  Biso   1.000  C
  C152     1.0000 0.34190  0.28610  0.97410  Biso   1.000  C
  C153     1.0000 0.96390  0.40810  0.72410  Biso   1.000  C
  C154     1.0000 0.72410  0.96390  0.40810  Biso   1.000  C
  C155     1.0000 0.65810  0.78610  0.52590  Biso   1.000  C
  C156     1.0000 0.21390  0.02590  0.84190  Biso   1.000  C
  C157     1.0000 0.77590  0.96390  0.59190  Biso   1.000  C
  C158     1.0000 0.28610  0.02590  0.15810  Biso   1.000  C
  C159     1.0000 0.22410  0.53610  0.59190  Biso   1.000  C
  C160     1.0000 0.71390  0.47410  0.15810  Biso   1.000  C
  C161     1.0000 0.40810  0.27590  0.53610  Biso   1.000  C
  C162     1.0000 0.52590  0.34190  0.71390  Biso   1.000  C
  C163     1.0000 0.97410  0.34190  0.28610  Biso   1.000  C
  C164     1.0000 0.40810  0.72410  0.96390  Biso   1.000  C
  C165     1.0000 0.52590  0.65810  0.78610  Biso   1.000  C
  C166     1.0000 0.59190  0.77590  0.96390  Biso   1.000  C
  C167     1.0000 0.59190  0.22410  0.53610  Biso   1.000  C
  C168     1.0000 0.47410  0.15810  0.71390  Biso   1.000  C
  C169     1.0000 0.03610  0.90810  0.77590  Biso   1.000  C
  C170     1.0000 0.15810  0.71390  0.47410  Biso   1.000  C
  C171     1.0000 0.53610  0.59190  0.22410  Biso   1.000  C
  C172     1.0000 0.77590  0.03610  0.90810  Biso   1.000  C
  C173     1.0000 0.96390  0.59190  0.77590  Biso   1.000  C
  C174     1.0000 0.84190  0.21390  0.02590  Biso   1.000  C
  C175     1.0000 0.28610  0.97410  0.34190  Biso   1.000  C
  C176     1.0000 0.84190  0.78610  0.47410  Biso   1.000  C
  C177     1.0000 0.46390  0.90810  0.22410  Biso   1.000  C
  C178     1.0000 0.22410  0.46390  0.90810  Biso   1.000  C
  C179     1.0000 0.15810  0.28610  0.02590  Biso   1.000  C
  C180     1.0000 0.71390  0.52590  0.34190  Biso   1.000  C
  C181     1.0000 0.27590  0.46390  0.09190  Biso   1.000  C
  C182     1.0000 0.78610  0.52590  0.65810  Biso   1.000  C
  C183     1.0000 0.72410  0.03610  0.09190  Biso   1.000  C
  C184     1.0000 0.21390  0.97410  0.65810  Biso   1.000  C
  C185     1.0000 0.90810  0.77590  0.03610  Biso   1.000  C
  C186     1.0000 0.02590  0.84190  0.21390  Biso   1.000  C
  C187     1.0000 0.47410  0.84190  0.78610  Biso   1.000  C
  C188     1.0000 0.90810  0.22410  0.46390  Biso   1.000  C
  C189     1.0000 0.02590  0.15810  0.28610  Biso   1.000  C
  C190     1.0000 0.09190  0.27590  0.46390  Biso   1.000  C
  C191     1.0000 0.09190  0.72410  0.03610  Biso   1.000  C
  C192     1.0000 0.97410  0.65810  0.21390  Biso   1.000  C
  C193     1.0000 0.53250  0.34550  0.24400  Biso   1.000  C
  C194     1.0000 0.59550  0.21750  0.00600  Biso   1.000  C
  C195     1.0000 0.03250  0.15450  0.75600  Biso   1.000  C
  C196     1.0000 0.24400  0.53250  0.34550  Biso   1.000  C
  C197     1.0000 0.46750  0.15450  0.24400  Biso   1.000  C
  C198     1.0000 0.40450  0.71750  0.49400  Biso   1.000  C
  C199     1.0000 0.78250  0.50600  0.90450  Biso   1.000  C
  C200     1.0000 0.40450  0.28250  0.00600  Biso   1.000  C
  C201     1.0000 0.96750  0.34550  0.75600  Biso   1.000  C
  C202     1.0000 0.75600  0.96750  0.34550  Biso   1.000  C
  C203     1.0000 0.59550  0.78250  0.49400  Biso   1.000  C
  C204     1.0000 0.21750  0.99400  0.90450  Biso   1.000  C
  C205     1.0000 0.74400  0.96750  0.65450  Biso   1.000  C
  C206     1.0000 0.28250  0.99400  0.09550  Biso   1.000  C
  C207     1.0000 0.25600  0.53250  0.65450  Biso   1.000  C
  C208     1.0000 0.71750  0.50600  0.09550  Biso   1.000  C
  C209     1.0000 0.34550  0.24400  0.53250  Biso   1.000  C
  C210     1.0000 0.49400  0.40450  0.71750  Biso   1.000  C
  C211     1.0000 0.00600  0.40450  0.28250  Biso   1.000  C
  C212     1.0000 0.34550  0.75600  0.96750  Biso   1.000  C
  C213     1.0000 0.49400  0.59550  0.78250  Biso   1.000  C
  C214     1.0000 0.65450  0.74400  0.96750  Biso   1.000  C
  C215     1.0000 0.65450  0.25600  0.53250  Biso   1.000  C
  C216     1.0000 0.50600  0.09550  0.71750  Biso   1.000  C
  C217     1.0000 0.03250  0.84550  0.74400  Biso   1.000  C
  C218     1.0000 0.09550  0.71750  0.50600  Biso   1.000  C
  C219     1.0000 0.53250  0.65450  0.25600  Biso   1.000  C
  C220     1.0000 0.74400  0.03250  0.84550  Biso   1.000  C
  C221     1.0000 0.96750  0.65450  0.74400  Biso   1.000  C
  C222     1.0000 0.90450  0.21750  0.99400  Biso   1.000  C
  C223     1.0000 0.28250  0.00600  0.40450  Biso   1.000  C
  C224     1.0000 0.90450  0.78250  0.50600  Biso   1.000  C
  C225     1.0000 0.46750  0.84550  0.25600  Biso   1.000  C
  C226     1.0000 0.25600  0.46750  0.84550  Biso   1.000  C
  C227     1.0000 0.09550  0.28250  0.99400  Biso   1.000  C
  C228     1.0000 0.71750  0.49400  0.40450  Biso   1.000  C
  C229     1.0000 0.24400  0.46750  0.15450  Biso   1.000  C
  C230     1.0000 0.78250  0.49400  0.59550  Biso   1.000  C
  C231     1.0000 0.75600  0.03250  0.15450  Biso   1.000  C
  C232     1.0000 0.21750  0.00600  0.59550  Biso   1.000  C
  C233     1.0000 0.84550  0.74400  0.03250  Biso   1.000  C
  C234     1.0000 0.99400  0.90450  0.21750  Biso   1.000  C
  C235     1.0000 0.50600  0.90450  0.78250  Biso   1.000  C
  C236     1.0000 0.84550  0.25600  0.46750  Biso   1.000  C
  C237     1.0000 0.99400  0.09550  0.28250  Biso   1.000  C
  C238     1.0000 0.15450  0.24400  0.46750  Biso   1.000  C
  C239     1.0000 0.15450  0.75600  0.03250  Biso   1.000  C
  C240     1.0000 0.00600  0.59550  0.21750  Biso   1.000  C
  C241     1.0000 0.53940  0.52080  0.12080  Biso   1.000  C
  C242     1.0000 0.77080  0.21060  0.12920  Biso   1.000  C
  C243     1.0000 0.03940  0.97920  0.87920  Biso   1.000  C
  C244     1.0000 0.12080  0.53940  0.52080  Biso   1.000  C
  C245     1.0000 0.46060  0.97920  0.12080  Biso   1.000  C
  C246     1.0000 0.22920  0.71060  0.37080  Biso   1.000  C
  C247     1.0000 0.78940  0.62920  0.72920  Biso   1.000  C
  C248     1.0000 0.22920  0.28940  0.12920  Biso   1.000  C
  C249     1.0000 0.96060  0.52080  0.87920  Biso   1.000  C
  C250     1.0000 0.87920  0.96060  0.52080  Biso   1.000  C
  C251     1.0000 0.77080  0.78940  0.37080  Biso   1.000  C
  C252     1.0000 0.21060  0.87080  0.72920  Biso   1.000  C
  C253     1.0000 0.62080  0.96060  0.47920  Biso   1.000  C
  C254     1.0000 0.28940  0.87080  0.27080  Biso   1.000  C
  C255     1.0000 0.37920  0.53940  0.47920  Biso   1.000  C
  C256     1.0000 0.71060  0.62920  0.27080  Biso   1.000  C
  C257     1.0000 0.52080  0.12080  0.53940  Biso   1.000  C
  C258     1.0000 0.37080  0.22920  0.71060  Biso   1.000  C
  C259     1.0000 0.12920  0.22920  0.28940  Biso   1.000  C
  C260     1.0000 0.52080  0.87920  0.96060  Biso   1.000  C
  C261     1.0000 0.37080  0.77080  0.78940  Biso   1.000  C
  C262     1.0000 0.47920  0.62080  0.96060  Biso   1.000  C
  C263     1.0000 0.47920  0.37920  0.53940  Biso   1.000  C
  C264     1.0000 0.62920  0.27080  0.71060  Biso   1.000  C
  C265     1.0000 0.03940  0.02080  0.62080  Biso   1.000  C
  C266     1.0000 0.27080  0.71060  0.62920  Biso   1.000  C
  C267     1.0000 0.53940  0.47920  0.37920  Biso   1.000  C
  C268     1.0000 0.62080  0.03940  0.02080  Biso   1.000  C
  C269     1.0000 0.96060  0.47920  0.62080  Biso   1.000  C
  C270     1.0000 0.72920  0.21060  0.87080  Biso   1.000  C
  C271     1.0000 0.28940  0.12920  0.22920  Biso   1.000  C
  C272     1.0000 0.72920  0.78940  0.62920  Biso   1.000  C
  C273     1.0000 0.46060  0.02080  0.37920  Biso   1.000  C
  C274     1.0000 0.37920  0.46060  0.02080  Biso   1.000  C
  C275     1.0000 0.27080  0.28940  0.87080  Biso   1.000  C
  C276     1.0000 0.71060  0.37080  0.22920  Biso   1.000  C
  C277     1.0000 0.12080  0.46060  0.97920  Biso   1.000  C
  C278     1.0000 0.78940  0.37080  0.77080  Biso   1.000  C
  C279     1.0000 0.87920  0.03940  0.97920  Biso   1.000  C
  C280     1.0000 0.21060  0.12920  0.77080  Biso   1.000  C
  C281     1.0000 0.02080  0.62080  0.03940  Biso   1.000  C
  C282     1.0000 0.87080  0.72920  0.21060  Biso   1.000  C
  C283     1.0000 0.62920  0.72920  0.78940  Biso   1.000  C
  C284     1.0000 0.02080  0.37920  0.46060  Biso   1.000  C
  C285     1.0000 0.87080  0.27080  0.28940  Biso   1.000  C
  C286     1.0000 0.97920  0.12080  0.46060  Biso   1.000  C
  C287     1.0000 0.97920  0.87920  0.03940  Biso   1.000  C
  C288     1.0000 0.12920  0.77080  0.21060  Biso   1.000  C
  C289     1.0000 0.53830  0.41510  0.35020  Biso   1.000  C
  C290     1.0000 0.66510  0.21170  0.89980  Biso   1.000  C
  C291     1.0000 0.03830  0.08490  0.64980  Biso   1.000  C
  C292     1.0000 0.35020  0.53830  0.41510  Biso   1.000  C
  C293     1.0000 0.46170  0.08490  0.35020  Biso   1.000  C
  C294     1.0000 0.33490  0.71170  0.60020  Biso   1.000  C
  C295     1.0000 0.78830  0.39980  0.83490  Biso   1.000  C
  C296     1.0000 0.33490  0.28830  0.89980  Biso   1.000  C
  C297     1.0000 0.96170  0.41510  0.64980  Biso   1.000  C
  C298     1.0000 0.64980  0.96170  0.41510  Biso   1.000  C
  C299     1.0000 0.66510  0.78830  0.60020  Biso   1.000  C
  C300     1.0000 0.21170  0.10020  0.83490  Biso   1.000  C
  C301     1.0000 0.85020  0.96170  0.58490  Biso   1.000  C
  C302     1.0000 0.28830  0.10020  0.16510  Biso   1.000  C
  C303     1.0000 0.14980  0.53830  0.58490  Biso   1.000  C
  C304     1.0000 0.71170  0.39980  0.16510  Biso   1.000  C
  C305     1.0000 0.41510  0.35020  0.53830  Biso   1.000  C
  C306     1.0000 0.60020  0.33490  0.71170  Biso   1.000  C
  C307     1.0000 0.89980  0.33490  0.28830  Biso   1.000  C
  C308     1.0000 0.41510  0.64980  0.96170  Biso   1.000  C
  C309     1.0000 0.60020  0.66510  0.78830  Biso   1.000  C
  C310     1.0000 0.58490  0.85020  0.96170  Biso   1.000  C
  C311     1.0000 0.58490  0.14980  0.53830  Biso   1.000  C
  C312     1.0000 0.39980  0.16510  0.71170  Biso   1.000  C
  C313     1.0000 0.03830  0.91510  0.85020  Biso   1.000  C
  C314     1.0000 0.16510  0.71170  0.39980  Biso   1.000  C
  C315     1.0000 0.53830  0.58490  0.14980  Biso   1.000  C
  C316     1.0000 0.85020  0.03830  0.91510  Biso   1.000  C
  C317     1.0000 0.96170  0.58490  0.85020  Biso   1.000  C
  C318     1.0000 0.83490  0.21170  0.10020  Biso   1.000  C
  C319     1.0000 0.28830  0.89980  0.33490  Biso   1.000  C
  C320     1.0000 0.83490  0.78830  0.39980  Biso   1.000  C
  C321     1.0000 0.46170  0.91510  0.14980  Biso   1.000  C
  C322     1.0000 0.14980  0.46170  0.91510  Biso   1.000  C
  C323     1.0000 0.16510  0.28830  0.10020  Biso   1.000  C
  C324     1.0000 0.71170  0.60020  0.33490  Biso   1.000  C
  C325     1.0000 0.35020  0.46170  0.08490  Biso   1.000  C
  C326     1.0000 0.78830  0.60020  0.66510  Biso   1.000  C
  C327     1.0000 0.64980  0.03830  0.08490  Biso   1.000  C
  C328     1.0000 0.21170  0.89980  0.66510  Biso   1.000  C
  C329     1.0000 0.91510  0.85020  0.03830  Biso   1.000  C
  C330     1.0000 0.10020  0.83490  0.21170  Biso   1.000  C
  C331     1.0000 0.39980  0.83490  0.78830  Biso   1.000  C
  C332     1.0000 0.91510  0.14980  0.46170  Biso   1.000  C
  C333     1.0000 0.10020  0.16510  0.28830  Biso   1.000  C
  C334     1.0000 0.08490  0.35020  0.46170  Biso   1.000  C
  C335     1.0000 0.08490  0.64980  0.03830  Biso   1.000  C
  C336     1.0000 0.89980  0.66510  0.21170  Biso   1.000  C
  Cu1      1.0000 0.50000  0.25000  0.12500  Biso   1.000  Cu
  Cu2      1.0000 0.00000  0.25000  0.87500  Biso   1.000  Cu
  Cu3      1.0000 0.12500  0.50000  0.25000  Biso   1.000  Cu
  Cu4      1.0000 0.50000  0.75000  0.37500  Biso   1.000  Cu
  Cu5      1.0000 0.75000  0.62500  0.00000  Biso   1.000  Cu
  Cu6      1.0000 0.87500  0.00000  0.25000  Biso   1.000  Cu
  Cu7      1.0000 0.25000  0.87500  0.00000  Biso   1.000  Cu
  Cu8      1.0000 0.62500  0.00000  0.75000  Biso   1.000  Cu
  Cu9      1.0000 0.37500  0.50000  0.75000  Biso   1.000  Cu
  Cu10     1.0000 0.25000  0.12500  0.50000  Biso   1.000  Cu
  Cu11     1.0000 0.75000  0.37500  0.50000  Biso   1.000  Cu
  Cu12     1.0000 0.00000  0.75000  0.62500  Biso   1.000  Cu
  P1       1.0000 0.66470  0.16470  0.33530  Biso   1.000  P
  P2       1.0000 0.41470  0.08530  0.91470  Biso   1.000  P
  P3       1.0000 0.16470  0.33530  0.66470  Biso   1.000  P
  P4       1.0000 0.33530  0.66470  0.16470  Biso   1.000  P
  P5       1.0000 0.33530  0.33530  0.33530  Biso   1.000  P
  P6       1.0000 0.58530  0.58530  0.58530  Biso   1.000  P
  P7       1.0000 0.91470  0.41470  0.08530  Biso   1.000  P
  P8       1.0000 0.58530  0.41470  0.91470  Biso   1.000  P
  P9       1.0000 0.83530  0.16470  0.66470  Biso   1.000  P
  P10      1.0000 0.66470  0.83530  0.16470  Biso   1.000  P
  P11      1.0000 0.41470  0.91470  0.58530  Biso   1.000  P
  P12      1.0000 0.08530  0.08530  0.08530  Biso   1.000  P
  P13      1.0000 0.83530  0.83530  0.83530  Biso   1.000  P
  P14      1.0000 0.16470  0.66470  0.83530  Biso   1.000  P
  P15      1.0000 0.91470  0.58530  0.41470  Biso   1.000  P
  P16      1.0000 0.08530  0.91470  0.41470  Biso   1.000  P
  F1       1.0000 0.61900  0.11900  0.38100  Biso   1.000  F
  F2       1.0000 0.36900  0.13100  0.86900  Biso   1.000  F
  F3       1.0000 0.11900  0.38100  0.61900  Biso   1.000  F
  F4       1.0000 0.38100  0.61900  0.11900  Biso   1.000  F
  F5       1.0000 0.38100  0.38100  0.38100  Biso   1.000  F
  F6       1.0000 0.63100  0.63100  0.63100  Biso   1.000  F
  F7       1.0000 0.86900  0.36900  0.13100  Biso   1.000  F
  F8       1.0000 0.63100  0.36900  0.86900  Biso   1.000  F
  F9       1.0000 0.88100  0.11900  0.61900  Biso   1.000  F
  F10      1.0000 0.61900  0.88100  0.11900  Biso   1.000  F
  F11      1.0000 0.36900  0.86900  0.63100  Biso   1.000  F
  F12      1.0000 0.13100  0.13100  0.13100  Biso   1.000  F
  F13      1.0000 0.88100  0.88100  0.88100  Biso   1.000  F
  F14      1.0000 0.11900  0.61900  0.88100  Biso   1.000  F
  F15      1.0000 0.86900  0.63100  0.36900  Biso   1.000  F
  F16      1.0000 0.13100  0.86900  0.36900  Biso   1.000  F
  F17      1.0000 0.71070  0.21070  0.28930  Biso   1.000  F
  F18      1.0000 0.46070  0.03930  0.96070  Biso   1.000  F
  F19      1.0000 0.21070  0.28930  0.71070  Biso   1.000  F
  F20      1.0000 0.28930  0.71070  0.21070  Biso   1.000  F
  F21      1.0000 0.28930  0.28930  0.28930  Biso   1.000  F
  F22      1.0000 0.53930  0.53930  0.53930  Biso   1.000  F
  F23      1.0000 0.96070  0.46070  0.03930  Biso   1.000  F
  F24      1.0000 0.53930  0.46070  0.96070  Biso   1.000  F
  F25      1.0000 0.78930  0.21070  0.71070  Biso   1.000  F
  F26      1.0000 0.71070  0.78930  0.21070  Biso   1.000  F
  F27      1.0000 0.46070  0.96070  0.53930  Biso   1.000  F
  F28      1.0000 0.03930  0.03930  0.03930  Biso   1.000  F
  F29      1.0000 0.78930  0.78930  0.78930  Biso   1.000  F
  F30      1.0000 0.21070  0.71070  0.78930  Biso   1.000  F
  F31      1.0000 0.96070  0.53930  0.46070  Biso   1.000  F
  F32      1.0000 0.03930  0.96070  0.46070  Biso   1.000  F
  F33      1.0000 0.64680  0.23090  0.37570  Biso   1.000  F
  F34      1.0000 0.48090  0.10320  0.87430  Biso   1.000  F
  F35      1.0000 0.14680  0.26910  0.62430  Biso   1.000  F
  F36      1.0000 0.37570  0.64680  0.23090  Biso   1.000  F
  F37      1.0000 0.35320  0.26910  0.37570  Biso   1.000  F
  F38      1.0000 0.51910  0.60320  0.62570  Biso   1.000  F
  F39      1.0000 0.89680  0.37430  0.01910  Biso   1.000  F
  F40      1.0000 0.51910  0.39680  0.87430  Biso   1.000  F
  F41      1.0000 0.85320  0.23090  0.62430  Biso   1.000  F
  F42      1.0000 0.62430  0.85320  0.23090  Biso   1.000  F
  F43      1.0000 0.48090  0.89680  0.62570  Biso   1.000  F
  F44      1.0000 0.10320  0.12570  0.01910  Biso   1.000  F
  F45      1.0000 0.87570  0.85320  0.76910  Biso   1.000  F
  F46      1.0000 0.39680  0.12570  0.98090  Biso   1.000  F
  F47      1.0000 0.12430  0.64680  0.76910  Biso   1.000  F
  F48      1.0000 0.60320  0.37430  0.98090  Biso   1.000  F
  F49      1.0000 0.23090  0.37570  0.64680  Biso   1.000  F
  F50      1.0000 0.62570  0.51910  0.60320  Biso   1.000  F
  F51      1.0000 0.87430  0.51910  0.39680  Biso   1.000  F
  F52      1.0000 0.23090  0.62430  0.85320  Biso   1.000  F
  F53      1.0000 0.62570  0.48090  0.89680  Biso   1.000  F
  F54      1.0000 0.76910  0.87570  0.85320  Biso   1.000  F
  F55      1.0000 0.76910  0.12430  0.64680  Biso   1.000  F
  F56      1.0000 0.37430  0.98090  0.60320  Biso   1.000  F
  F57      1.0000 0.14680  0.73090  0.87570  Biso   1.000  F
  F58      1.0000 0.98090  0.60320  0.37430  Biso   1.000  F
  F59      1.0000 0.64680  0.76910  0.12430  Biso   1.000  F
  F60      1.0000 0.87570  0.14680  0.73090  Biso   1.000  F
  F61      1.0000 0.85320  0.76910  0.87570  Biso   1.000  F
  F62      1.0000 0.01910  0.10320  0.12570  Biso   1.000  F
  F63      1.0000 0.39680  0.87430  0.51910  Biso   1.000  F
  F64      1.0000 0.01910  0.89680  0.37430  Biso   1.000  F
  F65      1.0000 0.35320  0.73090  0.12430  Biso   1.000  F
  F66      1.0000 0.12430  0.35320  0.73090  Biso   1.000  F
  F67      1.0000 0.98090  0.39680  0.12570  Biso   1.000  F
  F68      1.0000 0.60320  0.62570  0.51910  Biso   1.000  F
  F69      1.0000 0.37570  0.35320  0.26910  Biso   1.000  F
  F70      1.0000 0.89680  0.62570  0.48090  Biso   1.000  F
  F71      1.0000 0.62430  0.14680  0.26910  Biso   1.000  F
  F72      1.0000 0.10320  0.87430  0.48090  Biso   1.000  F
  F73      1.0000 0.73090  0.87570  0.14680  Biso   1.000  F
  F74      1.0000 0.12570  0.01910  0.10320  Biso   1.000  F
  F75      1.0000 0.37430  0.01910  0.89680  Biso   1.000  F
  F76      1.0000 0.73090  0.12430  0.35320  Biso   1.000  F
  F77      1.0000 0.12570  0.98090  0.39680  Biso   1.000  F
  F78      1.0000 0.26910  0.37570  0.35320  Biso   1.000  F
  F79      1.0000 0.26910  0.62430  0.14680  Biso   1.000  F
  F80      1.0000 0.87430  0.48090  0.10320  Biso   1.000  F
  F81      1.0000 0.60640  0.21240  0.31030  Biso   1.000  F
  F82      1.0000 0.46240  0.14360  0.93970  Biso   1.000  F
  F83      1.0000 0.10640  0.28760  0.68970  Biso   1.000  F
  F84      1.0000 0.31030  0.60640  0.21240  Biso   1.000  F
  F85      1.0000 0.39360  0.28760  0.31030  Biso   1.000  F
  F86      1.0000 0.53760  0.64360  0.56030  Biso   1.000  F
  F87      1.0000 0.85640  0.43970  0.03760  Biso   1.000  F
  F88      1.0000 0.53760  0.35640  0.93970  Biso   1.000  F
  F89      1.0000 0.89360  0.21240  0.68970  Biso   1.000  F
  F90      1.0000 0.68970  0.89360  0.21240  Biso   1.000  F
  F91      1.0000 0.46240  0.85640  0.56030  Biso   1.000  F
  F92      1.0000 0.14360  0.06030  0.03760  Biso   1.000  F
  F93      1.0000 0.81030  0.89360  0.78760  Biso   1.000  F
  F94      1.0000 0.35640  0.06030  0.96240  Biso   1.000  F
  F95      1.0000 0.18970  0.60640  0.78760  Biso   1.000  F
  F96      1.0000 0.64360  0.43970  0.96240  Biso   1.000  F
  F97      1.0000 0.21240  0.31030  0.60640  Biso   1.000  F
  F98      1.0000 0.56030  0.53760  0.64360  Biso   1.000  F
  F99      1.0000 0.93970  0.53760  0.35640  Biso   1.000  F
  F100     1.0000 0.21240  0.68970  0.89360  Biso   1.000  F
  F101     1.0000 0.56030  0.46240  0.85640  Biso   1.000  F
  F102     1.0000 0.78760  0.81030  0.89360  Biso   1.000  F
  F103     1.0000 0.78760  0.18970  0.60640  Biso   1.000  F
  F104     1.0000 0.43970  0.96240  0.64360  Biso   1.000  F
  F105     1.0000 0.10640  0.71240  0.81030  Biso   1.000  F
  F106     1.0000 0.96240  0.64360  0.43970  Biso   1.000  F
  F107     1.0000 0.60640  0.78760  0.18970  Biso   1.000  F
  F108     1.0000 0.81030  0.10640  0.71240  Biso   1.000  F
  F109     1.0000 0.89360  0.78760  0.81030  Biso   1.000  F
  F110     1.0000 0.03760  0.14360  0.06030  Biso   1.000  F
  F111     1.0000 0.35640  0.93970  0.53760  Biso   1.000  F
  F112     1.0000 0.03760  0.85640  0.43970  Biso   1.000  F
  F113     1.0000 0.39360  0.71240  0.18970  Biso   1.000  F
  F114     1.0000 0.18970  0.39360  0.71240  Biso   1.000  F
  F115     1.0000 0.96240  0.35640  0.06030  Biso   1.000  F
  F116     1.0000 0.64360  0.56030  0.53760  Biso   1.000  F
  F117     1.0000 0.31030  0.39360  0.28760  Biso   1.000  F
  F118     1.0000 0.85640  0.56030  0.46240  Biso   1.000  F
  F119     1.0000 0.68970  0.10640  0.28760  Biso   1.000  F
  F120     1.0000 0.14360  0.93970  0.46240  Biso   1.000  F
  F121     1.0000 0.71240  0.81030  0.10640  Biso   1.000  F
  F122     1.0000 0.06030  0.03760  0.14360  Biso   1.000  F
  F123     1.0000 0.43970  0.03760  0.85640  Biso   1.000  F
  F124     1.0000 0.71240  0.18970  0.39360  Biso   1.000  F
  F125     1.0000 0.06030  0.96240  0.35640  Biso   1.000  F
  F126     1.0000 0.28760  0.31030  0.39360  Biso   1.000  F
  F127     1.0000 0.28760  0.68970  0.10640  Biso   1.000  F
  F128     1.0000 0.93970  0.46240  0.14360  Biso   1.000  F
  F129     1.0000 0.61070  0.18790  0.28170  Biso   1.000  F
  F130     1.0000 0.43790  0.13930  0.96830  Biso   1.000  F
  F131     1.0000 0.11070  0.31210  0.71830  Biso   1.000  F
  F132     1.0000 0.28170  0.61070  0.18790  Biso   1.000  F
  F133     1.0000 0.38930  0.31210  0.28170  Biso   1.000  F
  F134     1.0000 0.56210  0.63930  0.53170  Biso   1.000  F
  F135     1.0000 0.86070  0.46830  0.06210  Biso   1.000  F
  F136     1.0000 0.56210  0.36070  0.96830  Biso   1.000  F
  F137     1.0000 0.88930  0.18790  0.71830  Biso   1.000  F
  F138     1.0000 0.71830  0.88930  0.18790  Biso   1.000  F
  F139     1.0000 0.43790  0.86070  0.53170  Biso   1.000  F
  F140     1.0000 0.13930  0.03170  0.06210  Biso   1.000  F
  F141     1.0000 0.78170  0.88930  0.81210  Biso   1.000  F
  F142     1.0000 0.36070  0.03170  0.93790  Biso   1.000  F
  F143     1.0000 0.21830  0.61070  0.81210  Biso   1.000  F
  F144     1.0000 0.63930  0.46830  0.93790  Biso   1.000  F
  F145     1.0000 0.18790  0.28170  0.61070  Biso   1.000  F
  F146     1.0000 0.53170  0.56210  0.63930  Biso   1.000  F
  F147     1.0000 0.96830  0.56210  0.36070  Biso   1.000  F
  F148     1.0000 0.18790  0.71830  0.88930  Biso   1.000  F
  F149     1.0000 0.53170  0.43790  0.86070  Biso   1.000  F
  F150     1.0000 0.81210  0.78170  0.88930  Biso   1.000  F
  F151     1.0000 0.81210  0.21830  0.61070  Biso   1.000  F
  F152     1.0000 0.46830  0.93790  0.63930  Biso   1.000  F
  F153     1.0000 0.11070  0.68790  0.78170  Biso   1.000  F
  F154     1.0000 0.93790  0.63930  0.46830  Biso   1.000  F
  F155     1.0000 0.61070  0.81210  0.21830  Biso   1.000  F
  F156     1.0000 0.78170  0.11070  0.68790  Biso   1.000  F
  F157     1.0000 0.88930  0.81210  0.78170  Biso   1.000  F
  F158     1.0000 0.06210  0.13930  0.03170  Biso   1.000  F
  F159     1.0000 0.36070  0.96830  0.56210  Biso   1.000  F
  F160     1.0000 0.06210  0.86070  0.46830  Biso   1.000  F
  F161     1.0000 0.38930  0.68790  0.21830  Biso   1.000  F
  F162     1.0000 0.21830  0.38930  0.68790  Biso   1.000  F
  F163     1.0000 0.93790  0.36070  0.03170  Biso   1.000  F
  F164     1.0000 0.63930  0.53170  0.56210  Biso   1.000  F
  F165     1.0000 0.28170  0.38930  0.31210  Biso   1.000  F
  F166     1.0000 0.86070  0.53170  0.43790  Biso   1.000  F
  F167     1.0000 0.71830  0.11070  0.31210  Biso   1.000  F
  F168     1.0000 0.13930  0.96830  0.43790  Biso   1.000  F
  F169     1.0000 0.68790  0.78170  0.11070  Biso   1.000  F
  F170     1.0000 0.03170  0.06210  0.13930  Biso   1.000  F
  F171     1.0000 0.46830  0.06210  0.86070  Biso   1.000  F
  F172     1.0000 0.68790  0.21830  0.38930  Biso   1.000  F
  F173     1.0000 0.03170  0.93790  0.36070  Biso   1.000  F
  F174     1.0000 0.31210  0.28170  0.38930  Biso   1.000  F
  F175     1.0000 0.31210  0.71830  0.11070  Biso   1.000  F
  F176     1.0000 0.96830  0.43790  0.13930  Biso   1.000  F
  F177     1.0000 0.60760  0.21650  0.35610  Biso   1.000  F
  F178     1.0000 0.46650  0.14240  0.89390  Biso   1.000  F
  F179     1.0000 0.10760  0.28350  0.64390  Biso   1.000  F
  F180     1.0000 0.35610  0.60760  0.21650  Biso   1.000  F
  F181     1.0000 0.39240  0.28350  0.35610  Biso   1.000  F
  F182     1.0000 0.53350  0.64240  0.60610  Biso   1.000  F
  F183     1.0000 0.85760  0.39390  0.03350  Biso   1.000  F
  F184     1.0000 0.53350  0.35760  0.89390  Biso   1.000  F
  F185     1.0000 0.89240  0.21650  0.64390  Biso   1.000  F
  F186     1.0000 0.64390  0.89240  0.21650  Biso   1.000  F
  F187     1.0000 0.46650  0.85760  0.60610  Biso   1.000  F
  F188     1.0000 0.14240  0.10610  0.03350  Biso   1.000  F
  F189     1.0000 0.85610  0.89240  0.78350  Biso   1.000  F
  F190     1.0000 0.35760  0.10610  0.96650  Biso   1.000  F
  F191     1.0000 0.14390  0.60760  0.78350  Biso   1.000  F
  F192     1.0000 0.64240  0.39390  0.96650  Biso   1.000  F
  F193     1.0000 0.21650  0.35610  0.60760  Biso   1.000  F
  F194     1.0000 0.60610  0.53350  0.64240  Biso   1.000  F
  F195     1.0000 0.89390  0.53350  0.35760  Biso   1.000  F
  F196     1.0000 0.21650  0.64390  0.89240  Biso   1.000  F
  F197     1.0000 0.60610  0.46650  0.85760  Biso   1.000  F
  F198     1.0000 0.78350  0.85610  0.89240  Biso   1.000  F
  F199     1.0000 0.78350  0.14390  0.60760  Biso   1.000  F
  F200     1.0000 0.39390  0.96650  0.64240  Biso   1.000  F
  F201     1.0000 0.10760  0.71650  0.85610  Biso   1.000  F
  F202     1.0000 0.96650  0.64240  0.39390  Biso   1.000  F
  F203     1.0000 0.60760  0.78350  0.14390  Biso   1.000  F
  F204     1.0000 0.85610  0.10760  0.71650  Biso   1.000  F
  F205     1.0000 0.89240  0.78350  0.85610  Biso   1.000  F
  F206     1.0000 0.03350  0.14240  0.10610  Biso   1.000  F
  F207     1.0000 0.35760  0.89390  0.53350  Biso   1.000  F
  F208     1.0000 0.03350  0.85760  0.39390  Biso   1.000  F
  F209     1.0000 0.39240  0.71650  0.14390  Biso   1.000  F
  F210     1.0000 0.14390  0.39240  0.71650  Biso   1.000  F
  F211     1.0000 0.96650  0.35760  0.10610  Biso   1.000  F
  F212     1.0000 0.64240  0.60610  0.53350  Biso   1.000  F
  F213     1.0000 0.35610  0.39240  0.28350  Biso   1.000  F
  F214     1.0000 0.85760  0.60610  0.46650  Biso   1.000  F
  F215     1.0000 0.64390  0.10760  0.28350  Biso   1.000  F
  F216     1.0000 0.14240  0.89390  0.46650  Biso   1.000  F
  F217     1.0000 0.71650  0.85610  0.10760  Biso   1.000  F
  F218     1.0000 0.10610  0.03350  0.14240  Biso   1.000  F
  F219     1.0000 0.39390  0.03350  0.85760  Biso   1.000  F
  F220     1.0000 0.71650  0.14390  0.39240  Biso   1.000  F
  F221     1.0000 0.10610  0.96650  0.35760  Biso   1.000  F
  F222     1.0000 0.28350  0.35610  0.39240  Biso   1.000  F
  F223     1.0000 0.28350  0.64390  0.10760  Biso   1.000  F
  F224     1.0000 0.89390  0.46650  0.14240  Biso   1.000  F
  H1       1.0000 0.53090  0.38860  0.08860  Biso   1.000  H
  H2       1.0000 0.63860  0.21910  0.16140  Biso   1.000  H
  H3       1.0000 0.03090  0.11140  0.91140  Biso   1.000  H
  H4       1.0000 0.08860  0.53090  0.38860  Biso   1.000  H
  H5       1.0000 0.46910  0.11140  0.08860  Biso   1.000  H
  H6       1.0000 0.36140  0.71910  0.33860  Biso   1.000  H
  H7       1.0000 0.78090  0.66140  0.86140  Biso   1.000  H
  H8       1.0000 0.36140  0.28090  0.16140  Biso   1.000  H
  H9       1.0000 0.96910  0.38860  0.91140  Biso   1.000  H
  H10      1.0000 0.91140  0.96910  0.38860  Biso   1.000  H
  H11      1.0000 0.63860  0.78090  0.33860  Biso   1.000  H
  H12      1.0000 0.21910  0.83860  0.86140  Biso   1.000  H
  H13      1.0000 0.58860  0.96910  0.61140  Biso   1.000  H
  H14      1.0000 0.28090  0.83860  0.13860  Biso   1.000  H
  H15      1.0000 0.41140  0.53090  0.61140  Biso   1.000  H
  H16      1.0000 0.71910  0.66140  0.13860  Biso   1.000  H
  H17      1.0000 0.38860  0.08860  0.53090  Biso   1.000  H
  H18      1.0000 0.33860  0.36140  0.71910  Biso   1.000  H
  H19      1.0000 0.16140  0.36140  0.28090  Biso   1.000  H
  H20      1.0000 0.38860  0.91140  0.96910  Biso   1.000  H
  H21      1.0000 0.33860  0.63860  0.78090  Biso   1.000  H
  H22      1.0000 0.61140  0.58860  0.96910  Biso   1.000  H
  H23      1.0000 0.61140  0.41140  0.53090  Biso   1.000  H
  H24      1.0000 0.66140  0.13860  0.71910  Biso   1.000  H
  H25      1.0000 0.03090  0.88860  0.58860  Biso   1.000  H
  H26      1.0000 0.13860  0.71910  0.66140  Biso   1.000  H
  H27      1.0000 0.53090  0.61140  0.41140  Biso   1.000  H
  H28      1.0000 0.58860  0.03090  0.88860  Biso   1.000  H
  H29      1.0000 0.96910  0.61140  0.58860  Biso   1.000  H
  H30      1.0000 0.86140  0.21910  0.83860  Biso   1.000  H
  H31      1.0000 0.28090  0.16140  0.36140  Biso   1.000  H
  H32      1.0000 0.86140  0.78090  0.66140  Biso   1.000  H
  H33      1.0000 0.46910  0.88860  0.41140  Biso   1.000  H
  H34      1.0000 0.41140  0.46910  0.88860  Biso   1.000  H
  H35      1.0000 0.13860  0.28090  0.83860  Biso   1.000  H
  H36      1.0000 0.71910  0.33860  0.36140  Biso   1.000  H
  H37      1.0000 0.08860  0.46910  0.11140  Biso   1.000  H
  H38      1.0000 0.78090  0.33860  0.63860  Biso   1.000  H
  H39      1.0000 0.91140  0.03090  0.11140  Biso   1.000  H
  H40      1.0000 0.21910  0.16140  0.63860  Biso   1.000  H
  H41      1.0000 0.88860  0.58860  0.03090  Biso   1.000  H
  H42      1.0000 0.83860  0.86140  0.21910  Biso   1.000  H
  H43      1.0000 0.66140  0.86140  0.78090  Biso   1.000  H
  H44      1.0000 0.88860  0.41140  0.46910  Biso   1.000  H
  H45      1.0000 0.83860  0.13860  0.28090  Biso   1.000  H
  H46      1.0000 0.11140  0.08860  0.46910  Biso   1.000  H
  H47      1.0000 0.11140  0.91140  0.03090  Biso   1.000  H
  H48      1.0000 0.16140  0.63860  0.21910  Biso   1.000  H
  H49      1.0000 0.53250  0.30560  0.27190  Biso   1.000  H
  H50      1.0000 0.55560  0.21750  0.97810  Biso   1.000  H
  H51      1.0000 0.03250  0.19440  0.72810  Biso   1.000  H
  H52      1.0000 0.27190  0.53250  0.30560  Biso   1.000  H
  H53      1.0000 0.46750  0.19440  0.27190  Biso   1.000  H
  H54      1.0000 0.44440  0.71750  0.52190  Biso   1.000  H
  H55      1.0000 0.78250  0.47810  0.94440  Biso   1.000  H
  H56      1.0000 0.44440  0.28250  0.97810  Biso   1.000  H
  H57      1.0000 0.96750  0.30560  0.72810  Biso   1.000  H
  H58      1.0000 0.72810  0.96750  0.30560  Biso   1.000  H
  H59      1.0000 0.55560  0.78250  0.52190  Biso   1.000  H
  H60      1.0000 0.21750  0.02190  0.94440  Biso   1.000  H
  H61      1.0000 0.77190  0.96750  0.69440  Biso   1.000  H
  H62      1.0000 0.28250  0.02190  0.05560  Biso   1.000  H
  H63      1.0000 0.22810  0.53250  0.69440  Biso   1.000  H
  H64      1.0000 0.71750  0.47810  0.05560  Biso   1.000  H
  H65      1.0000 0.30560  0.27190  0.53250  Biso   1.000  H
  H66      1.0000 0.52190  0.44440  0.71750  Biso   1.000  H
  H67      1.0000 0.97810  0.44440  0.28250  Biso   1.000  H
  H68      1.0000 0.30560  0.72810  0.96750  Biso   1.000  H
  H69      1.0000 0.52190  0.55560  0.78250  Biso   1.000  H
  H70      1.0000 0.69440  0.77190  0.96750  Biso   1.000  H
  H71      1.0000 0.69440  0.22810  0.53250  Biso   1.000  H
  H72      1.0000 0.47810  0.05560  0.71750  Biso   1.000  H
  H73      1.0000 0.03250  0.80560  0.77190  Biso   1.000  H
  H74      1.0000 0.05560  0.71750  0.47810  Biso   1.000  H
  H75      1.0000 0.53250  0.69440  0.22810  Biso   1.000  H
  H76      1.0000 0.77190  0.03250  0.80560  Biso   1.000  H
  H77      1.0000 0.96750  0.69440  0.77190  Biso   1.000  H
  H78      1.0000 0.94440  0.21750  0.02190  Biso   1.000  H
  H79      1.0000 0.28250  0.97810  0.44440  Biso   1.000  H
  H80      1.0000 0.94440  0.78250  0.47810  Biso   1.000  H
  H81      1.0000 0.46750  0.80560  0.22810  Biso   1.000  H
  H82      1.0000 0.22810  0.46750  0.80560  Biso   1.000  H
  H83      1.0000 0.05560  0.28250  0.02190  Biso   1.000  H
  H84      1.0000 0.71750  0.52190  0.44440  Biso   1.000  H
  H85      1.0000 0.27190  0.46750  0.19440  Biso   1.000  H
  H86      1.0000 0.78250  0.52190  0.55560  Biso   1.000  H
  H87      1.0000 0.72810  0.03250  0.19440  Biso   1.000  H
  H88      1.0000 0.21750  0.97810  0.55560  Biso   1.000  H
  H89      1.0000 0.80560  0.77190  0.03250  Biso   1.000  H
  H90      1.0000 0.02190  0.94440  0.21750  Biso   1.000  H
  H91      1.0000 0.47810  0.94440  0.78250  Biso   1.000  H
  H92      1.0000 0.80560  0.22810  0.46750  Biso   1.000  H
  H93      1.0000 0.02190  0.05560  0.28250  Biso   1.000  H
  H94      1.0000 0.19440  0.27190  0.46750  Biso   1.000  H
  H95      1.0000 0.19440  0.72810  0.03250  Biso   1.000  H
  H96      1.0000 0.97810  0.55560  0.21750  Biso   1.000  H
  H97      1.0000 0.54230  0.51660  0.07240  Biso   1.000  H
  H98      1.0000 0.76660  0.20770  0.17760  Biso   1.000  H
  H99      1.0000 0.04230  0.98340  0.92760  Biso   1.000  H
  H100     1.0000 0.07240  0.54230  0.51660  Biso   1.000  H
  H101     1.0000 0.45770  0.98340  0.07240  Biso   1.000  H
  H102     1.0000 0.23340  0.70770  0.32240  Biso   1.000  H
  H103     1.0000 0.79230  0.67760  0.73340  Biso   1.000  H
  H104     1.0000 0.23340  0.29230  0.17760  Biso   1.000  H
  H105     1.0000 0.95770  0.51660  0.92760  Biso   1.000  H
  H106     1.0000 0.92760  0.95770  0.51660  Biso   1.000  H
  H107     1.0000 0.76660  0.79230  0.32240  Biso   1.000  H
  H108     1.0000 0.20770  0.82240  0.73340  Biso   1.000  H
  H109     1.0000 0.57240  0.95770  0.48340  Biso   1.000  H
  H110     1.0000 0.29230  0.82240  0.26660  Biso   1.000  H
  H111     1.0000 0.42760  0.54230  0.48340  Biso   1.000  H
  H112     1.0000 0.70770  0.67760  0.26660  Biso   1.000  H
  H113     1.0000 0.51660  0.07240  0.54230  Biso   1.000  H
  H114     1.0000 0.32240  0.23340  0.70770  Biso   1.000  H
  H115     1.0000 0.17760  0.23340  0.29230  Biso   1.000  H
  H116     1.0000 0.51660  0.92760  0.95770  Biso   1.000  H
  H117     1.0000 0.32240  0.76660  0.79230  Biso   1.000  H
  H118     1.0000 0.48340  0.57240  0.95770  Biso   1.000  H
  H119     1.0000 0.48340  0.42760  0.54230  Biso   1.000  H
  H120     1.0000 0.67760  0.26660  0.70770  Biso   1.000  H
  H121     1.0000 0.04230  0.01660  0.57240  Biso   1.000  H
  H122     1.0000 0.26660  0.70770  0.67760  Biso   1.000  H
  H123     1.0000 0.54230  0.48340  0.42760  Biso   1.000  H
  H124     1.0000 0.57240  0.04230  0.01660  Biso   1.000  H
  H125     1.0000 0.95770  0.48340  0.57240  Biso   1.000  H
  H126     1.0000 0.73340  0.20770  0.82240  Biso   1.000  H
  H127     1.0000 0.29230  0.17760  0.23340  Biso   1.000  H
  H128     1.0000 0.73340  0.79230  0.67760  Biso   1.000  H
  H129     1.0000 0.45770  0.01660  0.42760  Biso   1.000  H
  H130     1.0000 0.42760  0.45770  0.01660  Biso   1.000  H
  H131     1.0000 0.26660  0.29230  0.82240  Biso   1.000  H
  H132     1.0000 0.70770  0.32240  0.23340  Biso   1.000  H
  H133     1.0000 0.07240  0.45770  0.98340  Biso   1.000  H
  H134     1.0000 0.79230  0.32240  0.76660  Biso   1.000  H
  H135     1.0000 0.92760  0.04230  0.98340  Biso   1.000  H
  H136     1.0000 0.20770  0.17760  0.76660  Biso   1.000  H
  H137     1.0000 0.01660  0.57240  0.04230  Biso   1.000  H
  H138     1.0000 0.82240  0.73340  0.20770  Biso   1.000  H
  H139     1.0000 0.67760  0.73340  0.79230  Biso   1.000  H
  H140     1.0000 0.01660  0.42760  0.45770  Biso   1.000  H
  H141     1.0000 0.82240  0.26660  0.29230  Biso   1.000  H
  H142     1.0000 0.98340  0.07240  0.45770  Biso   1.000  H
  H143     1.0000 0.98340  0.92760  0.04230  Biso   1.000  H
  H144     1.0000 0.17760  0.76660  0.20770  Biso   1.000  H
  H145     1.0000 0.53900  0.37550  0.37850  Biso   1.000  H
  H146     1.0000 0.62550  0.21100  0.87150  Biso   1.000  H
  H147     1.0000 0.03900  0.12450  0.62150  Biso   1.000  H
  H148     1.0000 0.37850  0.53900  0.37550  Biso   1.000  H
  H149     1.0000 0.46100  0.12450  0.37850  Biso   1.000  H
  H150     1.0000 0.37450  0.71100  0.62850  Biso   1.000  H
  H151     1.0000 0.78900  0.37150  0.87450  Biso   1.000  H
  H152     1.0000 0.37450  0.28900  0.87150  Biso   1.000  H
  H153     1.0000 0.96100  0.37550  0.62150  Biso   1.000  H
  H154     1.0000 0.62150  0.96100  0.37550  Biso   1.000  H
  H155     1.0000 0.62550  0.78900  0.62850  Biso   1.000  H
  H156     1.0000 0.21100  0.12850  0.87450  Biso   1.000  H
  H157     1.0000 0.87850  0.96100  0.62450  Biso   1.000  H
  H158     1.0000 0.28900  0.12850  0.12550  Biso   1.000  H
  H159     1.0000 0.12150  0.53900  0.62450  Biso   1.000  H
  H160     1.0000 0.71100  0.37150  0.12550  Biso   1.000  H
  H161     1.0000 0.37550  0.37850  0.53900  Biso   1.000  H
  H162     1.0000 0.62850  0.37450  0.71100  Biso   1.000  H
  H163     1.0000 0.87150  0.37450  0.28900  Biso   1.000  H
  H164     1.0000 0.37550  0.62150  0.96100  Biso   1.000  H
  H165     1.0000 0.62850  0.62550  0.78900  Biso   1.000  H
  H166     1.0000 0.62450  0.87850  0.96100  Biso   1.000  H
  H167     1.0000 0.62450  0.12150  0.53900  Biso   1.000  H
  H168     1.0000 0.37150  0.12550  0.71100  Biso   1.000  H
  H169     1.0000 0.03900  0.87550  0.87850  Biso   1.000  H
  H170     1.0000 0.12550  0.71100  0.37150  Biso   1.000  H
  H171     1.0000 0.53900  0.62450  0.12150  Biso   1.000  H
  H172     1.0000 0.87850  0.03900  0.87550  Biso   1.000  H
  H173     1.0000 0.96100  0.62450  0.87850  Biso   1.000  H
  H174     1.0000 0.87450  0.21100  0.12850  Biso   1.000  H
  H175     1.0000 0.28900  0.87150  0.37450  Biso   1.000  H
  H176     1.0000 0.87450  0.78900  0.37150  Biso   1.000  H
  H177     1.0000 0.46100  0.87550  0.12150  Biso   1.000  H
  H178     1.0000 0.12150  0.46100  0.87550  Biso   1.000  H
  H179     1.0000 0.12550  0.28900  0.12850  Biso   1.000  H
  H180     1.0000 0.71100  0.62850  0.37450  Biso   1.000  H
  H181     1.0000 0.37850  0.46100  0.12450  Biso   1.000  H
  H182     1.0000 0.78900  0.62850  0.62550  Biso   1.000  H
  H183     1.0000 0.62150  0.03900  0.12450  Biso   1.000  H
  H184     1.0000 0.21100  0.87150  0.62550  Biso   1.000  H
  H185     1.0000 0.87550  0.87850  0.03900  Biso   1.000  H
  H186     1.0000 0.12850  0.87450  0.21100  Biso   1.000  H
  H187     1.0000 0.37150  0.87450  0.78900  Biso   1.000  H
  H188     1.0000 0.87550  0.12150  0.46100  Biso   1.000  H
  H189     1.0000 0.12850  0.12550  0.28900  Biso   1.000  H
  H190     1.0000 0.12450  0.37850  0.46100  Biso   1.000  H
  H191     1.0000 0.12450  0.62150  0.03900  Biso   1.000  H
  H192     1.0000 0.87150  0.62550  0.21100  Biso   1.000  H
