data_image0
_cell_length_a       19.2982
_cell_length_b       16.5661
_cell_length_c       25.3006
_cell_angle_alpha    90
_cell_angle_beta     90
_cell_angle_gamma    90

_symmetry_space_group_name_H-M    "P 1"
_symmetry_int_tables_number       1

loop_
  _symmetry_equiv_pos_as_xyz
  'x, y, z'

loop_
  _atom_site_label
  _atom_site_occupancy
  _atom_site_fract_x
  _atom_site_fract_y
  _atom_site_fract_z
  _atom_site_thermal_displace_type
  _atom_site_B_iso_or_equiv
  _atom_site_type_symbol
  I1       1.0000 0.95849  0.00742  0.41747  Biso   1.000  I
  I2       1.0000 0.54151  0.49258  0.91747  Biso   1.000  I
  I3       1.0000 0.45849  0.49258  0.58253  Biso   1.000  I
  I4       1.0000 0.04151  0.00742  0.08253  Biso   1.000  I
  I5       1.0000 0.04151  0.99258  0.58253  Biso   1.000  I
  I6       1.0000 0.45849  0.50742  0.08253  Biso   1.000  I
  I7       1.0000 0.54151  0.50742  0.41747  Biso   1.000  I
  I8       1.0000 0.95849  0.99258  0.91747  Biso   1.000  I
  Cu1      1.0000 0.98715  0.91572  0.49981  Biso   1.000  Cu
  Cu2      1.0000 0.51285  0.58428  0.99981  Biso   1.000  Cu
  Cu3      1.0000 0.48715  0.58428  0.50019  Biso   1.000  Cu
  Cu4      1.0000 0.01285  0.91572  0.00019  Biso   1.000  Cu
  Cu5      1.0000 0.01285  0.08428  0.50019  Biso   1.000  Cu
  Cu6      1.0000 0.48715  0.41572  0.00019  Biso   1.000  Cu
  Cu7      1.0000 0.51285  0.41572  0.49981  Biso   1.000  Cu
  Cu8      1.0000 0.98715  0.08428  0.99981  Biso   1.000  Cu
  S1       1.0000 0.07133  0.81946  0.47289  Biso   1.000  S
  S2       1.0000 0.42867  0.68054  0.97289  Biso   1.000  S
  S3       1.0000 0.57133  0.68054  0.52711  Biso   1.000  S
  S4       1.0000 0.92867  0.81946  0.02711  Biso   1.000  S
  S5       1.0000 0.92867  0.18054  0.52711  Biso   1.000  S
  S6       1.0000 0.57133  0.31946  0.02711  Biso   1.000  S
  S7       1.0000 0.42867  0.31946  0.47289  Biso   1.000  S
  S8       1.0000 0.07133  0.18054  0.97289  Biso   1.000  S
  S9       1.0000 0.38209  0.63724  0.47285  Biso   1.000  S
  S10      1.0000 0.11791  0.86276  0.97285  Biso   1.000  S
  S11      1.0000 0.88209  0.86276  0.52715  Biso   1.000  S
  S12      1.0000 0.61791  0.63724  0.02715  Biso   1.000  S
  S13      1.0000 0.61791  0.36276  0.52715  Biso   1.000  S
  S14      1.0000 0.88209  0.13724  0.02715  Biso   1.000  S
  S15      1.0000 0.11791  0.13724  0.47285  Biso   1.000  S
  S16      1.0000 0.38209  0.36276  0.97285  Biso   1.000  S
  C1       1.0000 0.11510  0.78860  0.53400  Biso   1.000  C
  C2       1.0000 0.38490  0.71140  0.03400  Biso   1.000  C
  C3       1.0000 0.61510  0.71140  0.46600  Biso   1.000  C
  C4       1.0000 0.88490  0.78860  0.96600  Biso   1.000  C
  C5       1.0000 0.88490  0.21140  0.46600  Biso   1.000  C
  C6       1.0000 0.61510  0.28860  0.96600  Biso   1.000  C
  C7       1.0000 0.38490  0.28860  0.53400  Biso   1.000  C
  C8       1.0000 0.11510  0.21140  0.03400  Biso   1.000  C
  H1       1.0000 0.15240  0.82660  0.54040  Biso   1.000  H
  H2       1.0000 0.34760  0.67340  0.04040  Biso   1.000  H
  H3       1.0000 0.65240  0.67340  0.45960  Biso   1.000  H
  H4       1.0000 0.84760  0.82660  0.95960  Biso   1.000  H
  H5       1.0000 0.84760  0.17340  0.45960  Biso   1.000  H
  H6       1.0000 0.65240  0.32660  0.95960  Biso   1.000  H
  H7       1.0000 0.34760  0.32660  0.54040  Biso   1.000  H
  H8       1.0000 0.15240  0.17340  0.04040  Biso   1.000  H
  H9       1.0000 0.08220  0.79490  0.56280  Biso   1.000  H
  H10      1.0000 0.41780  0.70510  0.06280  Biso   1.000  H
  H11      1.0000 0.58220  0.70510  0.43720  Biso   1.000  H
  H12      1.0000 0.91780  0.79490  0.93720  Biso   1.000  H
  H13      1.0000 0.91780  0.20510  0.43720  Biso   1.000  H
  H14      1.0000 0.58220  0.29490  0.93720  Biso   1.000  H
  H15      1.0000 0.41780  0.29490  0.56280  Biso   1.000  H
  H16      1.0000 0.08220  0.20510  0.06280  Biso   1.000  H
  C9       1.0000 0.14540  0.70400  0.53800  Biso   1.000  C
  C10      1.0000 0.35460  0.79600  0.03800  Biso   1.000  C
  C11      1.0000 0.64540  0.79600  0.46200  Biso   1.000  C
  C12      1.0000 0.85460  0.70400  0.96200  Biso   1.000  C
  C13      1.0000 0.85460  0.29600  0.46200  Biso   1.000  C
  C14      1.0000 0.64540  0.20400  0.96200  Biso   1.000  C
  C15      1.0000 0.35460  0.20400  0.53800  Biso   1.000  C
  C16      1.0000 0.14540  0.29600  0.03800  Biso   1.000  C
  H17      1.0000 0.10730  0.66640  0.54520  Biso   1.000  H
  H18      1.0000 0.39270  0.83360  0.04520  Biso   1.000  H
  H19      1.0000 0.60730  0.83360  0.45480  Biso   1.000  H
  H20      1.0000 0.89270  0.66640  0.95480  Biso   1.000  H
  H21      1.0000 0.89270  0.33360  0.45480  Biso   1.000  H
  H22      1.0000 0.60730  0.16640  0.95480  Biso   1.000  H
  H23      1.0000 0.39270  0.16640  0.54520  Biso   1.000  H
  H24      1.0000 0.10730  0.33360  0.04520  Biso   1.000  H
  C17      1.0000 0.19370  0.70240  0.58490  Biso   1.000  C
  C18      1.0000 0.30630  0.79760  0.08490  Biso   1.000  C
  C19      1.0000 0.69370  0.79760  0.41510  Biso   1.000  C
  C20      1.0000 0.80630  0.70240  0.91510  Biso   1.000  C
  C21      1.0000 0.80630  0.29760  0.41510  Biso   1.000  C
  C22      1.0000 0.69370  0.20240  0.91510  Biso   1.000  C
  C23      1.0000 0.30630  0.20240  0.58490  Biso   1.000  C
  C24      1.0000 0.19370  0.29760  0.08490  Biso   1.000  C
  H25      1.0000 0.16700  0.71300  0.61660  Biso   1.000  H
  H26      1.0000 0.33300  0.78700  0.11660  Biso   1.000  H
  H27      1.0000 0.66700  0.78700  0.38340  Biso   1.000  H
  H28      1.0000 0.83300  0.71300  0.88340  Biso   1.000  H
  H29      1.0000 0.83300  0.28700  0.38340  Biso   1.000  H
  H30      1.0000 0.66700  0.21300  0.88340  Biso   1.000  H
  H31      1.0000 0.33300  0.21300  0.61660  Biso   1.000  H
  H32      1.0000 0.16700  0.28700  0.11660  Biso   1.000  H
  H33      1.0000 0.22710  0.74570  0.58110  Biso   1.000  H
  H34      1.0000 0.27290  0.75430  0.08110  Biso   1.000  H
  H35      1.0000 0.72710  0.75430  0.41890  Biso   1.000  H
  H36      1.0000 0.77290  0.74570  0.91890  Biso   1.000  H
  H37      1.0000 0.77290  0.25430  0.41890  Biso   1.000  H
  H38      1.0000 0.72710  0.24570  0.91890  Biso   1.000  H
  H39      1.0000 0.27290  0.24570  0.58110  Biso   1.000  H
  H40      1.0000 0.22710  0.25430  0.08110  Biso   1.000  H
  C25      1.0000 0.23310  0.62290  0.59230  Biso   1.000  C
  C26      1.0000 0.26690  0.87710  0.09230  Biso   1.000  C
  C27      1.0000 0.73310  0.87710  0.40770  Biso   1.000  C
  C28      1.0000 0.76690  0.62290  0.90770  Biso   1.000  C
  C29      1.0000 0.76690  0.37710  0.40770  Biso   1.000  C
  C30      1.0000 0.73310  0.12290  0.90770  Biso   1.000  C
  C31      1.0000 0.26690  0.12290  0.59230  Biso   1.000  C
  C32      1.0000 0.23310  0.37710  0.09230  Biso   1.000  C
  H41      1.0000 0.20060  0.58040  0.60130  Biso   1.000  H
  H42      1.0000 0.29940  0.91960  0.10130  Biso   1.000  H
  H43      1.0000 0.70060  0.91960  0.39870  Biso   1.000  H
  H44      1.0000 0.79940  0.58040  0.89870  Biso   1.000  H
  H45      1.0000 0.79940  0.41960  0.39870  Biso   1.000  H
  H46      1.0000 0.70060  0.08040  0.89870  Biso   1.000  H
  H47      1.0000 0.29940  0.08040  0.60130  Biso   1.000  H
  H48      1.0000 0.20060  0.41960  0.10130  Biso   1.000  H
  H49      1.0000 0.26560  0.62840  0.62130  Biso   1.000  H
  H50      1.0000 0.23440  0.87160  0.12130  Biso   1.000  H
  H51      1.0000 0.76560  0.87160  0.37870  Biso   1.000  H
  H52      1.0000 0.73440  0.62840  0.87870  Biso   1.000  H
  H53      1.0000 0.73440  0.37160  0.37870  Biso   1.000  H
  H54      1.0000 0.76560  0.12840  0.87870  Biso   1.000  H
  H55      1.0000 0.23440  0.12840  0.62130  Biso   1.000  H
  H56      1.0000 0.26560  0.37160  0.12130  Biso   1.000  H
  C33      1.0000 0.27260  0.59950  0.54180  Biso   1.000  C
  C34      1.0000 0.22740  0.90050  0.04180  Biso   1.000  C
  C35      1.0000 0.77260  0.90050  0.45820  Biso   1.000  C
  C36      1.0000 0.72740  0.59950  0.95820  Biso   1.000  C
  C37      1.0000 0.72740  0.40050  0.45820  Biso   1.000  C
  C38      1.0000 0.77260  0.09950  0.95820  Biso   1.000  C
  C39      1.0000 0.22740  0.09950  0.54180  Biso   1.000  C
  C40      1.0000 0.27260  0.40050  0.04180  Biso   1.000  C
  H57      1.0000 0.29180  0.54540  0.54700  Biso   1.000  H
  H58      1.0000 0.20820  0.95460  0.04700  Biso   1.000  H
  H59      1.0000 0.79180  0.95460  0.45300  Biso   1.000  H
  H60      1.0000 0.70820  0.54540  0.95300  Biso   1.000  H
  H61      1.0000 0.70820  0.45460  0.45300  Biso   1.000  H
  H62      1.0000 0.79180  0.04540  0.95300  Biso   1.000  H
  H63      1.0000 0.20820  0.04540  0.54700  Biso   1.000  H
  H64      1.0000 0.29180  0.45460  0.04700  Biso   1.000  H
  C41      1.0000 0.22020  0.59500  0.49570  Biso   1.000  C
  C42      1.0000 0.27980  0.90500  0.99570  Biso   1.000  C
  C43      1.0000 0.72020  0.90500  0.50430  Biso   1.000  C
  C44      1.0000 0.77980  0.59500  0.00430  Biso   1.000  C
  C45      1.0000 0.77980  0.40500  0.50430  Biso   1.000  C
  C46      1.0000 0.72020  0.09500  0.00430  Biso   1.000  C
  C47      1.0000 0.27980  0.09500  0.49570  Biso   1.000  C
  C48      1.0000 0.22020  0.40500  0.99570  Biso   1.000  C
  H65      1.0000 0.24450  0.58140  0.46330  Biso   1.000  H
  H66      1.0000 0.25550  0.91860  0.96330  Biso   1.000  H
  H67      1.0000 0.74450  0.91860  0.53670  Biso   1.000  H
  H68      1.0000 0.75550  0.58140  0.03670  Biso   1.000  H
  H69      1.0000 0.75550  0.41860  0.53670  Biso   1.000  H
  H70      1.0000 0.74450  0.08140  0.03670  Biso   1.000  H
  H71      1.0000 0.25550  0.08140  0.46330  Biso   1.000  H
  H72      1.0000 0.24450  0.41860  0.96330  Biso   1.000  H
  H73      1.0000 0.18660  0.55280  0.50270  Biso   1.000  H
  H74      1.0000 0.31340  0.94720  0.00270  Biso   1.000  H
  H75      1.0000 0.68660  0.94720  0.49730  Biso   1.000  H
  H76      1.0000 0.81340  0.55280  0.99730  Biso   1.000  H
  H77      1.0000 0.81340  0.44720  0.49730  Biso   1.000  H
  H78      1.0000 0.68660  0.05280  0.99730  Biso   1.000  H
  H79      1.0000 0.31340  0.05280  0.50270  Biso   1.000  H
  H80      1.0000 0.18660  0.44720  0.00270  Biso   1.000  H
  C49      1.0000 0.18280  0.67490  0.48850  Biso   1.000  C
  C50      1.0000 0.31720  0.82510  0.98850  Biso   1.000  C
  C51      1.0000 0.68280  0.82510  0.51150  Biso   1.000  C
  C52      1.0000 0.81720  0.67490  0.01150  Biso   1.000  C
  C53      1.0000 0.81720  0.32510  0.51150  Biso   1.000  C
  C54      1.0000 0.68280  0.17490  0.01150  Biso   1.000  C
  C55      1.0000 0.31720  0.17490  0.48850  Biso   1.000  C
  C56      1.0000 0.18280  0.32510  0.98850  Biso   1.000  C
  H81      1.0000 0.14940  0.66950  0.46020  Biso   1.000  H
  H82      1.0000 0.35060  0.83050  0.96020  Biso   1.000  H
  H83      1.0000 0.64940  0.83050  0.53980  Biso   1.000  H
  H84      1.0000 0.85060  0.66950  0.03980  Biso   1.000  H
  H85      1.0000 0.85060  0.33050  0.53980  Biso   1.000  H
  H86      1.0000 0.64940  0.16950  0.03980  Biso   1.000  H
  H87      1.0000 0.35060  0.16950  0.46020  Biso   1.000  H
  H88      1.0000 0.14940  0.33050  0.96020  Biso   1.000  H
  H89      1.0000 0.21620  0.71560  0.47800  Biso   1.000  H
  H90      1.0000 0.28380  0.78440  0.97800  Biso   1.000  H
  H91      1.0000 0.71620  0.78440  0.52200  Biso   1.000  H
  H92      1.0000 0.78380  0.71560  0.02200  Biso   1.000  H
  H93      1.0000 0.78380  0.28440  0.52200  Biso   1.000  H
  H94      1.0000 0.71620  0.21560  0.02200  Biso   1.000  H
  H95      1.0000 0.28380  0.21560  0.47800  Biso   1.000  H
  H96      1.0000 0.21620  0.28440  0.97800  Biso   1.000  H
  C57      1.0000 0.33260  0.65710  0.53260  Biso   1.000  C
  C58      1.0000 0.16740  0.84290  0.03260  Biso   1.000  C
  C59      1.0000 0.83260  0.84290  0.46740  Biso   1.000  C
  C60      1.0000 0.66740  0.65710  0.96740  Biso   1.000  C
  C61      1.0000 0.66740  0.34290  0.46740  Biso   1.000  C
  C62      1.0000 0.83260  0.15710  0.96740  Biso   1.000  C
  C63      1.0000 0.16740  0.15710  0.53260  Biso   1.000  C
  C64      1.0000 0.33260  0.34290  0.03260  Biso   1.000  C
  H97      1.0000 0.36360  0.65420  0.56270  Biso   1.000  H
  H98      1.0000 0.13640  0.84580  0.06270  Biso   1.000  H
  H99      1.0000 0.86360  0.84580  0.43730  Biso   1.000  H
  H100     1.0000 0.63640  0.65420  0.93730  Biso   1.000  H
  H101     1.0000 0.63640  0.34580  0.43730  Biso   1.000  H
  H102     1.0000 0.86360  0.15420  0.93730  Biso   1.000  H
  H103     1.0000 0.13640  0.15420  0.56270  Biso   1.000  H
  H104     1.0000 0.36360  0.34580  0.06270  Biso   1.000  H
  H105     1.0000 0.31460  0.71170  0.53090  Biso   1.000  H
  H106     1.0000 0.18540  0.78830  0.03090  Biso   1.000  H
  H107     1.0000 0.81460  0.78830  0.46910  Biso   1.000  H
  H108     1.0000 0.68540  0.71170  0.96910  Biso   1.000  H
  H109     1.0000 0.68540  0.28830  0.46910  Biso   1.000  H
  H110     1.0000 0.81460  0.21170  0.96910  Biso   1.000  H
  H111     1.0000 0.18540  0.21170  0.53090  Biso   1.000  H
  H112     1.0000 0.31460  0.28830  0.03090  Biso   1.000  H
  C65      1.0000 0.40100  0.73870  0.44770  Biso   1.000  C
  C66      1.0000 0.09900  0.76130  0.94770  Biso   1.000  C
  C67      1.0000 0.90100  0.76130  0.55230  Biso   1.000  C
  C68      1.0000 0.59900  0.73870  0.05230  Biso   1.000  C
  C69      1.0000 0.59900  0.26130  0.55230  Biso   1.000  C
  C70      1.0000 0.90100  0.23870  0.05230  Biso   1.000  C
  C71      1.0000 0.09900  0.23870  0.44770  Biso   1.000  C
  C72      1.0000 0.40100  0.26130  0.94770  Biso   1.000  C
  H113     1.0000 0.43130  0.76640  0.47240  Biso   1.000  H
  H114     1.0000 0.06870  0.73360  0.97240  Biso   1.000  H
  H115     1.0000 0.93130  0.73360  0.52760  Biso   1.000  H
  H116     1.0000 0.56870  0.76640  0.02760  Biso   1.000  H
  H117     1.0000 0.56870  0.23360  0.52760  Biso   1.000  H
  H118     1.0000 0.93130  0.26640  0.02760  Biso   1.000  H
  H119     1.0000 0.06870  0.26640  0.47240  Biso   1.000  H
  H120     1.0000 0.43130  0.23360  0.97240  Biso   1.000  H
  H121     1.0000 0.42510  0.73440  0.41420  Biso   1.000  H
  H122     1.0000 0.07490  0.76560  0.91420  Biso   1.000  H
  H123     1.0000 0.92510  0.76560  0.58580  Biso   1.000  H
  H124     1.0000 0.57490  0.73440  0.08580  Biso   1.000  H
  H125     1.0000 0.57490  0.26560  0.58580  Biso   1.000  H
  H126     1.0000 0.92510  0.23440  0.08580  Biso   1.000  H
  H127     1.0000 0.07490  0.23440  0.41420  Biso   1.000  H
  H128     1.0000 0.42510  0.26560  0.91420  Biso   1.000  H
  C73      1.0000 0.33580  0.78750  0.44020  Biso   1.000  C
  C74      1.0000 0.16420  0.71250  0.94020  Biso   1.000  C
  C75      1.0000 0.83580  0.71250  0.55980  Biso   1.000  C
  C76      1.0000 0.66420  0.78750  0.05980  Biso   1.000  C
  C77      1.0000 0.66420  0.21250  0.55980  Biso   1.000  C
  C78      1.0000 0.83580  0.28750  0.05980  Biso   1.000  C
  C79      1.0000 0.16420  0.28750  0.44020  Biso   1.000  C
  C80      1.0000 0.33580  0.21250  0.94020  Biso   1.000  C
  C81      1.0000 0.31760  0.84380  0.47720  Biso   1.000  C
  C82      1.0000 0.18240  0.65620  0.97720  Biso   1.000  C
  C83      1.0000 0.81760  0.65620  0.52280  Biso   1.000  C
  C84      1.0000 0.68240  0.84380  0.02280  Biso   1.000  C
  C85      1.0000 0.68240  0.15620  0.52280  Biso   1.000  C
  C86      1.0000 0.81760  0.34380  0.02280  Biso   1.000  C
  C87      1.0000 0.18240  0.34380  0.47720  Biso   1.000  C
  C88      1.0000 0.31760  0.15620  0.97720  Biso   1.000  C
  H129     1.0000 0.34910  0.85850  0.50330  Biso   1.000  H
  H130     1.0000 0.15090  0.64150  0.00330  Biso   1.000  H
  H131     1.0000 0.84910  0.64150  0.49670  Biso   1.000  H
  H132     1.0000 0.65090  0.85850  0.99670  Biso   1.000  H
  H133     1.0000 0.65090  0.14150  0.49670  Biso   1.000  H
  H134     1.0000 0.84910  0.35850  0.99670  Biso   1.000  H
  H135     1.0000 0.15090  0.35850  0.50330  Biso   1.000  H
  H136     1.0000 0.34910  0.14150  0.00330  Biso   1.000  H
  C89      1.0000 0.25200  0.87920  0.47600  Biso   1.000  C
  C90      1.0000 0.24800  0.62080  0.97600  Biso   1.000  C
  C91      1.0000 0.75200  0.62080  0.52400  Biso   1.000  C
  C92      1.0000 0.74800  0.87920  0.02400  Biso   1.000  C
  C93      1.0000 0.74800  0.12080  0.52400  Biso   1.000  C
  C94      1.0000 0.75200  0.37920  0.02400  Biso   1.000  C
  C95      1.0000 0.24800  0.37920  0.47600  Biso   1.000  C
  C96      1.0000 0.25200  0.12080  0.97600  Biso   1.000  C
  H137     1.0000 0.23980  0.91670  0.50170  Biso   1.000  H
  H138     1.0000 0.26020  0.58330  0.00170  Biso   1.000  H
  H139     1.0000 0.73980  0.58330  0.49830  Biso   1.000  H
  H140     1.0000 0.76020  0.91670  0.99830  Biso   1.000  H
  H141     1.0000 0.76020  0.08330  0.49830  Biso   1.000  H
  H142     1.0000 0.73980  0.41670  0.99830  Biso   1.000  H
  H143     1.0000 0.26020  0.41670  0.50170  Biso   1.000  H
  H144     1.0000 0.23980  0.08330  0.00170  Biso   1.000  H
  C97      1.0000 0.20530  0.85940  0.43720  Biso   1.000  C
  C98      1.0000 0.29470  0.64060  0.93720  Biso   1.000  C
  C99      1.0000 0.70530  0.64060  0.56280  Biso   1.000  C
  C100     1.0000 0.79470  0.85940  0.06280  Biso   1.000  C
  C101     1.0000 0.79470  0.14060  0.56280  Biso   1.000  C
  C102     1.0000 0.70530  0.35940  0.06280  Biso   1.000  C
  C103     1.0000 0.29470  0.35940  0.43720  Biso   1.000  C
  C104     1.0000 0.20530  0.14060  0.93720  Biso   1.000  C
  C105     1.0000 0.22570  0.80720  0.39720  Biso   1.000  C
  C106     1.0000 0.27430  0.69280  0.89720  Biso   1.000  C
  C107     1.0000 0.72570  0.69280  0.60280  Biso   1.000  C
  C108     1.0000 0.77430  0.80720  0.10280  Biso   1.000  C
  C109     1.0000 0.77430  0.19280  0.60280  Biso   1.000  C
  C110     1.0000 0.72570  0.30720  0.10280  Biso   1.000  C
  C111     1.0000 0.27430  0.30720  0.39720  Biso   1.000  C
  C112     1.0000 0.22570  0.19280  0.89720  Biso   1.000  C
  H145     1.0000 0.19550  0.79590  0.36950  Biso   1.000  H
  H146     1.0000 0.30450  0.70410  0.86950  Biso   1.000  H
  H147     1.0000 0.69550  0.70410  0.63050  Biso   1.000  H
  H148     1.0000 0.80450  0.79590  0.13050  Biso   1.000  H
  H149     1.0000 0.80450  0.20410  0.63050  Biso   1.000  H
  H150     1.0000 0.69550  0.29590  0.13050  Biso   1.000  H
  H151     1.0000 0.30450  0.29590  0.36950  Biso   1.000  H
  H152     1.0000 0.19550  0.20410  0.86950  Biso   1.000  H
  C113     1.0000 0.29000  0.77230  0.39840  Biso   1.000  C
  C114     1.0000 0.21000  0.72770  0.89840  Biso   1.000  C
  C115     1.0000 0.79000  0.72770  0.60160  Biso   1.000  C
  C116     1.0000 0.71000  0.77230  0.10160  Biso   1.000  C
  C117     1.0000 0.71000  0.22770  0.60160  Biso   1.000  C
  C118     1.0000 0.79000  0.27230  0.10160  Biso   1.000  C
  C119     1.0000 0.21000  0.27230  0.39840  Biso   1.000  C
  C120     1.0000 0.29000  0.22770  0.89840  Biso   1.000  C
  H153     1.0000 0.30350  0.73820  0.37110  Biso   1.000  H
  H154     1.0000 0.19650  0.76180  0.87110  Biso   1.000  H
  H155     1.0000 0.80350  0.76180  0.62890  Biso   1.000  H
  H156     1.0000 0.69650  0.73820  0.12890  Biso   1.000  H
  H157     1.0000 0.69650  0.26180  0.62890  Biso   1.000  H
  H158     1.0000 0.80350  0.23820  0.12890  Biso   1.000  H
  H159     1.0000 0.19650  0.23820  0.37110  Biso   1.000  H
  H160     1.0000 0.30350  0.26180  0.87110  Biso   1.000  H
  C121     1.0000 0.13230  0.89030  0.44240  Biso   1.000  C
  C122     1.0000 0.36770  0.60970  0.94240  Biso   1.000  C
  C123     1.0000 0.63230  0.60970  0.55760  Biso   1.000  C
  C124     1.0000 0.86770  0.89030  0.05760  Biso   1.000  C
  C125     1.0000 0.86770  0.10970  0.55760  Biso   1.000  C
  C126     1.0000 0.63230  0.39030  0.05760  Biso   1.000  C
  C127     1.0000 0.36770  0.39030  0.44240  Biso   1.000  C
  C128     1.0000 0.13230  0.10970  0.94240  Biso   1.000  C
  H161     1.0000 0.11530  0.90410  0.40740  Biso   1.000  H
  H162     1.0000 0.38470  0.59590  0.90740  Biso   1.000  H
  H163     1.0000 0.61530  0.59590  0.59260  Biso   1.000  H
  H164     1.0000 0.88470  0.90410  0.09260  Biso   1.000  H
  H165     1.0000 0.88470  0.09590  0.59260  Biso   1.000  H
  H166     1.0000 0.61530  0.40410  0.09260  Biso   1.000  H
  H167     1.0000 0.38470  0.40410  0.40740  Biso   1.000  H
  H168     1.0000 0.11530  0.09590  0.90740  Biso   1.000  H
  H169     1.0000 0.13300  0.93940  0.46320  Biso   1.000  H
  H170     1.0000 0.36700  0.56060  0.96320  Biso   1.000  H
  H171     1.0000 0.63300  0.56060  0.53680  Biso   1.000  H
  H172     1.0000 0.86700  0.93940  0.03680  Biso   1.000  H
  H173     1.0000 0.86700  0.06060  0.53680  Biso   1.000  H
  H174     1.0000 0.63300  0.43940  0.03680  Biso   1.000  H
  H175     1.0000 0.36700  0.43940  0.46320  Biso   1.000  H
  H176     1.0000 0.13300  0.06060  0.96320  Biso   1.000  H
  I9       1.0000 0.47782  0.82269  0.16415  Biso   1.000  I
  I10      1.0000 0.02218  0.67731  0.66415  Biso   1.000  I
  I11      1.0000 0.97782  0.67731  0.83585  Biso   1.000  I
  I12      1.0000 0.52218  0.82269  0.33585  Biso   1.000  I
  I13      1.0000 0.52218  0.17731  0.83585  Biso   1.000  I
  I14      1.0000 0.97782  0.32269  0.33585  Biso   1.000  I
  I15      1.0000 0.02218  0.32269  0.16415  Biso   1.000  I
  I16      1.0000 0.47782  0.17731  0.66415  Biso   1.000  I
  Cu9      1.0000 0.50000  0.73633  0.25000  Biso   1.000  Cu
  Cu10     1.0000 0.00000  0.76367  0.75000  Biso   1.000  Cu
  Cu11     1.0000 0.50000  0.26367  0.75000  Biso   1.000  Cu
  Cu12     1.0000 0.00000  0.23633  0.25000  Biso   1.000  Cu
  Cu13     1.0000 0.50000  0.90997  0.25000  Biso   1.000  Cu
  Cu14     1.0000 0.00000  0.59003  0.75000  Biso   1.000  Cu
  Cu15     1.0000 0.50000  0.09003  0.75000  Biso   1.000  Cu
  Cu16     1.0000 0.00000  0.40997  0.25000  Biso   1.000  Cu
  S17      1.0000 0.90139  0.48312  0.23172  Biso   1.000  S
  S18      1.0000 0.59861  0.01688  0.73172  Biso   1.000  S
  S19      1.0000 0.40139  0.01688  0.76828  Biso   1.000  S
  S20      1.0000 0.09861  0.48312  0.26828  Biso   1.000  S
  S21      1.0000 0.09861  0.51688  0.76828  Biso   1.000  S
  S22      1.0000 0.40139  0.98312  0.26828  Biso   1.000  S
  S23      1.0000 0.59861  0.98312  0.23172  Biso   1.000  S
  S24      1.0000 0.90139  0.51688  0.73172  Biso   1.000  S
  S25      1.0000 0.60239  0.66770  0.23305  Biso   1.000  S
  S26      1.0000 0.89761  0.83230  0.73305  Biso   1.000  S
  S27      1.0000 0.10239  0.83230  0.76695  Biso   1.000  S
  S28      1.0000 0.39761  0.66770  0.26695  Biso   1.000  S
  S29      1.0000 0.39761  0.33230  0.76695  Biso   1.000  S
  S30      1.0000 0.10239  0.16770  0.26695  Biso   1.000  S
  S31      1.0000 0.89761  0.16770  0.23305  Biso   1.000  S
  S32      1.0000 0.60239  0.33230  0.73305  Biso   1.000  S
  C129     1.0000 0.85960  0.50850  0.29350  Biso   1.000  C
  C130     1.0000 0.64040  0.99150  0.79350  Biso   1.000  C
  C131     1.0000 0.35960  0.99150  0.70650  Biso   1.000  C
  C132     1.0000 0.14040  0.50850  0.20650  Biso   1.000  C
  C133     1.0000 0.14040  0.49150  0.70650  Biso   1.000  C
  C134     1.0000 0.35960  0.00850  0.20650  Biso   1.000  C
  C135     1.0000 0.64040  0.00850  0.29350  Biso   1.000  C
  C136     1.0000 0.85960  0.49150  0.79350  Biso   1.000  C
  H177     1.0000 0.88030  0.47620  0.32130  Biso   1.000  H
  H178     1.0000 0.61970  0.02380  0.82130  Biso   1.000  H
  H179     1.0000 0.38030  0.02380  0.67870  Biso   1.000  H
  H180     1.0000 0.11970  0.47620  0.17870  Biso   1.000  H
  H181     1.0000 0.11970  0.52380  0.67870  Biso   1.000  H
  H182     1.0000 0.38030  0.97620  0.17870  Biso   1.000  H
  H183     1.0000 0.61970  0.97620  0.32130  Biso   1.000  H
  H184     1.0000 0.88030  0.52380  0.82130  Biso   1.000  H
  H185     1.0000 0.81120  0.49340  0.29110  Biso   1.000  H
  H186     1.0000 0.68880  0.00660  0.79110  Biso   1.000  H
  H187     1.0000 0.31120  0.00660  0.70890  Biso   1.000  H
  H188     1.0000 0.18880  0.49340  0.20890  Biso   1.000  H
  H189     1.0000 0.18880  0.50660  0.70890  Biso   1.000  H
  H190     1.0000 0.31120  0.99340  0.20890  Biso   1.000  H
  H191     1.0000 0.68880  0.99340  0.29110  Biso   1.000  H
  H192     1.0000 0.81120  0.50660  0.79110  Biso   1.000  H
  C137     1.0000 0.86390  0.59710  0.30960  Biso   1.000  C
  C138     1.0000 0.63610  0.90290  0.80960  Biso   1.000  C
  C139     1.0000 0.36390  0.90290  0.69040  Biso   1.000  C
  C140     1.0000 0.13610  0.59710  0.19040  Biso   1.000  C
  C141     1.0000 0.13610  0.40290  0.69040  Biso   1.000  C
  C142     1.0000 0.36390  0.09710  0.19040  Biso   1.000  C
  C143     1.0000 0.63610  0.09710  0.30960  Biso   1.000  C
  C144     1.0000 0.86390  0.40290  0.80960  Biso   1.000  C
  H193     1.0000 0.91240  0.60980  0.31750  Biso   1.000  H
  H194     1.0000 0.58760  0.89020  0.81750  Biso   1.000  H
  H195     1.0000 0.41240  0.89020  0.68250  Biso   1.000  H
  H196     1.0000 0.08760  0.60980  0.18250  Biso   1.000  H
  H197     1.0000 0.08760  0.39020  0.68250  Biso   1.000  H
  H198     1.0000 0.41240  0.10980  0.18250  Biso   1.000  H
  H199     1.0000 0.58760  0.10980  0.31750  Biso   1.000  H
  H200     1.0000 0.91240  0.39020  0.81750  Biso   1.000  H
  C145     1.0000 0.82120  0.61190  0.35920  Biso   1.000  C
  C146     1.0000 0.67880  0.88810  0.85920  Biso   1.000  C
  C147     1.0000 0.32120  0.88810  0.64080  Biso   1.000  C
  C148     1.0000 0.17880  0.61190  0.14080  Biso   1.000  C
  C149     1.0000 0.17880  0.38810  0.64080  Biso   1.000  C
  C150     1.0000 0.32120  0.11190  0.14080  Biso   1.000  C
  C151     1.0000 0.67880  0.11190  0.35920  Biso   1.000  C
  C152     1.0000 0.82120  0.38810  0.85920  Biso   1.000  C
  H201     1.0000 0.83060  0.66590  0.37230  Biso   1.000  H
  H202     1.0000 0.66940  0.83410  0.87230  Biso   1.000  H
  H203     1.0000 0.33060  0.83410  0.62770  Biso   1.000  H
  H204     1.0000 0.16940  0.66590  0.12770  Biso   1.000  H
  H205     1.0000 0.16940  0.33410  0.62770  Biso   1.000  H
  H206     1.0000 0.33060  0.16590  0.12770  Biso   1.000  H
  H207     1.0000 0.66940  0.16590  0.37230  Biso   1.000  H
  H208     1.0000 0.83060  0.33410  0.87230  Biso   1.000  H
  H209     1.0000 0.83520  0.57380  0.38630  Biso   1.000  H
  H210     1.0000 0.66480  0.92620  0.88630  Biso   1.000  H
  H211     1.0000 0.33520  0.92620  0.61370  Biso   1.000  H
  H212     1.0000 0.16480  0.57380  0.11370  Biso   1.000  H
  H213     1.0000 0.16480  0.42620  0.61370  Biso   1.000  H
  H214     1.0000 0.33520  0.07380  0.11370  Biso   1.000  H
  H215     1.0000 0.66480  0.07380  0.38630  Biso   1.000  H
  H216     1.0000 0.83520  0.42620  0.88630  Biso   1.000  H
  C153     1.0000 0.74440  0.60320  0.34920  Biso   1.000  C
  C154     1.0000 0.75560  0.89680  0.84920  Biso   1.000  C
  C155     1.0000 0.24440  0.89680  0.65080  Biso   1.000  C
  C156     1.0000 0.25560  0.60320  0.15080  Biso   1.000  C
  C157     1.0000 0.25560  0.39680  0.65080  Biso   1.000  C
  C158     1.0000 0.24440  0.10320  0.15080  Biso   1.000  C
  C159     1.0000 0.75560  0.10320  0.34920  Biso   1.000  C
  C160     1.0000 0.74440  0.39680  0.84920  Biso   1.000  C
  H217     1.0000 0.73430  0.54700  0.34180  Biso   1.000  H
  H218     1.0000 0.76570  0.95300  0.84180  Biso   1.000  H
  H219     1.0000 0.23430  0.95300  0.65820  Biso   1.000  H
  H220     1.0000 0.26570  0.54700  0.15820  Biso   1.000  H
  H221     1.0000 0.26570  0.45300  0.65820  Biso   1.000  H
  H222     1.0000 0.23430  0.04700  0.15820  Biso   1.000  H
  H223     1.0000 0.76570  0.04700  0.34180  Biso   1.000  H
  H224     1.0000 0.73430  0.45300  0.84180  Biso   1.000  H
  H225     1.0000 0.71950  0.61800  0.38100  Biso   1.000  H
  H226     1.0000 0.78050  0.88200  0.88100  Biso   1.000  H
  H227     1.0000 0.21950  0.88200  0.61900  Biso   1.000  H
  H228     1.0000 0.28050  0.61800  0.11900  Biso   1.000  H
  H229     1.0000 0.28050  0.38200  0.61900  Biso   1.000  H
  H230     1.0000 0.21950  0.11800  0.11900  Biso   1.000  H
  H231     1.0000 0.78050  0.11800  0.38100  Biso   1.000  H
  H232     1.0000 0.71950  0.38200  0.88100  Biso   1.000  H
  C161     1.0000 0.71780  0.65460  0.30350  Biso   1.000  C
  C162     1.0000 0.78220  0.84540  0.80350  Biso   1.000  C
  C163     1.0000 0.21780  0.84540  0.69650  Biso   1.000  C
  C164     1.0000 0.28220  0.65460  0.19650  Biso   1.000  C
  C165     1.0000 0.28220  0.34540  0.69650  Biso   1.000  C
  C166     1.0000 0.21780  0.15460  0.19650  Biso   1.000  C
  C167     1.0000 0.78220  0.15460  0.30350  Biso   1.000  C
  C168     1.0000 0.71780  0.34540  0.80350  Biso   1.000  C
  H233     1.0000 0.72070  0.71120  0.31460  Biso   1.000  H
  H234     1.0000 0.77930  0.78880  0.81460  Biso   1.000  H
  H235     1.0000 0.22070  0.78880  0.68540  Biso   1.000  H
  H236     1.0000 0.27930  0.71120  0.18540  Biso   1.000  H
  H237     1.0000 0.27930  0.28880  0.68540  Biso   1.000  H
  H238     1.0000 0.22070  0.21120  0.18540  Biso   1.000  H
  H239     1.0000 0.77930  0.21120  0.31460  Biso   1.000  H
  H240     1.0000 0.72070  0.28880  0.81460  Biso   1.000  H
  C169     1.0000 0.76250  0.64510  0.25570  Biso   1.000  C
  C170     1.0000 0.73750  0.85490  0.75570  Biso   1.000  C
  C171     1.0000 0.26250  0.85490  0.74430  Biso   1.000  C
  C172     1.0000 0.23750  0.64510  0.24430  Biso   1.000  C
  C173     1.0000 0.23750  0.35490  0.74430  Biso   1.000  C
  C174     1.0000 0.26250  0.14510  0.24430  Biso   1.000  C
  C175     1.0000 0.73750  0.14510  0.25570  Biso   1.000  C
  C176     1.0000 0.76250  0.35490  0.75570  Biso   1.000  C
  H241     1.0000 0.75510  0.59180  0.24090  Biso   1.000  H
  H242     1.0000 0.74490  0.90820  0.74090  Biso   1.000  H
  H243     1.0000 0.25510  0.90820  0.75910  Biso   1.000  H
  H244     1.0000 0.24490  0.59180  0.25910  Biso   1.000  H
  H245     1.0000 0.24490  0.40820  0.75910  Biso   1.000  H
  H246     1.0000 0.25510  0.09180  0.25910  Biso   1.000  H
  H247     1.0000 0.74490  0.09180  0.24090  Biso   1.000  H
  H248     1.0000 0.75510  0.40820  0.74090  Biso   1.000  H
  H249     1.0000 0.74850  0.68450  0.22940  Biso   1.000  H
  H250     1.0000 0.75150  0.81550  0.72940  Biso   1.000  H
  H251     1.0000 0.24850  0.81550  0.77060  Biso   1.000  H
  H252     1.0000 0.25150  0.68450  0.27060  Biso   1.000  H
  H253     1.0000 0.25150  0.31550  0.77060  Biso   1.000  H
  H254     1.0000 0.24850  0.18450  0.27060  Biso   1.000  H
  H255     1.0000 0.75150  0.18450  0.22940  Biso   1.000  H
  H256     1.0000 0.74850  0.31550  0.72940  Biso   1.000  H
  C177     1.0000 0.83850  0.65570  0.26680  Biso   1.000  C
  C178     1.0000 0.66150  0.84430  0.76680  Biso   1.000  C
  C179     1.0000 0.33850  0.84430  0.73320  Biso   1.000  C
  C180     1.0000 0.16150  0.65570  0.23320  Biso   1.000  C
  C181     1.0000 0.16150  0.34430  0.73320  Biso   1.000  C
  C182     1.0000 0.33850  0.15570  0.23320  Biso   1.000  C
  C183     1.0000 0.66150  0.15570  0.26680  Biso   1.000  C
  C184     1.0000 0.83850  0.34430  0.76680  Biso   1.000  C
  H257     1.0000 0.86460  0.64670  0.23460  Biso   1.000  H
  H258     1.0000 0.63540  0.85330  0.73460  Biso   1.000  H
  H259     1.0000 0.36460  0.85330  0.76540  Biso   1.000  H
  H260     1.0000 0.13540  0.64670  0.26540  Biso   1.000  H
  H261     1.0000 0.13540  0.35330  0.76540  Biso   1.000  H
  H262     1.0000 0.36460  0.14670  0.26540  Biso   1.000  H
  H263     1.0000 0.63540  0.14670  0.23460  Biso   1.000  H
  H264     1.0000 0.86460  0.35330  0.73460  Biso   1.000  H
  H265     1.0000 0.84700  0.71070  0.27830  Biso   1.000  H
  H266     1.0000 0.65300  0.78930  0.77830  Biso   1.000  H
  H267     1.0000 0.34700  0.78930  0.72170  Biso   1.000  H
  H268     1.0000 0.15300  0.71070  0.22170  Biso   1.000  H
  H269     1.0000 0.15300  0.28930  0.72170  Biso   1.000  H
  H270     1.0000 0.34700  0.21070  0.22170  Biso   1.000  H
  H271     1.0000 0.65300  0.21070  0.27830  Biso   1.000  H
  H272     1.0000 0.84700  0.28930  0.77830  Biso   1.000  H
  C185     1.0000 0.64020  0.63460  0.29490  Biso   1.000  C
  C186     1.0000 0.85980  0.86540  0.79490  Biso   1.000  C
  C187     1.0000 0.14020  0.86540  0.70510  Biso   1.000  C
  C188     1.0000 0.35980  0.63460  0.20510  Biso   1.000  C
  C189     1.0000 0.35980  0.36540  0.70510  Biso   1.000  C
  C190     1.0000 0.14020  0.13460  0.20510  Biso   1.000  C
  C191     1.0000 0.85980  0.13460  0.29490  Biso   1.000  C
  C192     1.0000 0.64020  0.36540  0.79490  Biso   1.000  C
  H273     1.0000 0.63460  0.57650  0.29740  Biso   1.000  H
  H274     1.0000 0.86540  0.92350  0.79740  Biso   1.000  H
  H275     1.0000 0.13460  0.92350  0.70260  Biso   1.000  H
  H276     1.0000 0.36540  0.57650  0.20260  Biso   1.000  H
  H277     1.0000 0.36540  0.42350  0.70260  Biso   1.000  H
  H278     1.0000 0.13460  0.07650  0.20260  Biso   1.000  H
  H279     1.0000 0.86540  0.07650  0.29740  Biso   1.000  H
  H280     1.0000 0.63460  0.42350  0.79740  Biso   1.000  H
  H281     1.0000 0.61390  0.65860  0.32350  Biso   1.000  H
  H282     1.0000 0.88610  0.84140  0.82350  Biso   1.000  H
  H283     1.0000 0.11390  0.84140  0.67650  Biso   1.000  H
  H284     1.0000 0.38610  0.65860  0.17650  Biso   1.000  H
  H285     1.0000 0.38610  0.34140  0.67650  Biso   1.000  H
  H286     1.0000 0.11390  0.15860  0.17650  Biso   1.000  H
  H287     1.0000 0.88610  0.15860  0.32350  Biso   1.000  H
  H288     1.0000 0.61390  0.34140  0.82350  Biso   1.000  H
  C193     1.0000 0.58140  0.57200  0.20040  Biso   1.000  C
  C194     1.0000 0.91860  0.92800  0.70040  Biso   1.000  C
  C195     1.0000 0.08140  0.92800  0.79960  Biso   1.000  C
  C196     1.0000 0.41860  0.57200  0.29960  Biso   1.000  C
  C197     1.0000 0.41860  0.42800  0.79960  Biso   1.000  C
  C198     1.0000 0.08140  0.07200  0.29960  Biso   1.000  C
  C199     1.0000 0.91860  0.07200  0.20040  Biso   1.000  C
  C200     1.0000 0.58140  0.42800  0.70040  Biso   1.000  C
  H289     1.0000 0.56330  0.58300  0.16540  Biso   1.000  H
  H290     1.0000 0.93670  0.91700  0.66540  Biso   1.000  H
  H291     1.0000 0.06330  0.91700  0.83460  Biso   1.000  H
  H292     1.0000 0.43670  0.58300  0.33460  Biso   1.000  H
  H293     1.0000 0.43670  0.41700  0.83460  Biso   1.000  H
  H294     1.0000 0.06330  0.08300  0.33460  Biso   1.000  H
  H295     1.0000 0.93670  0.08300  0.16540  Biso   1.000  H
  H296     1.0000 0.56330  0.41700  0.66540  Biso   1.000  H
  H297     1.0000 0.54550  0.54460  0.22040  Biso   1.000  H
  H298     1.0000 0.95450  0.95540  0.72040  Biso   1.000  H
  H299     1.0000 0.04550  0.95540  0.77960  Biso   1.000  H
  H300     1.0000 0.45450  0.54460  0.27960  Biso   1.000  H
  H301     1.0000 0.45450  0.45540  0.77960  Biso   1.000  H
  H302     1.0000 0.04550  0.04460  0.27960  Biso   1.000  H
  H303     1.0000 0.95450  0.04460  0.22040  Biso   1.000  H
  H304     1.0000 0.54550  0.45540  0.72040  Biso   1.000  H
  C201     1.0000 0.64310  0.51730  0.19560  Biso   1.000  C
  C202     1.0000 0.85690  0.98270  0.69560  Biso   1.000  C
  C203     1.0000 0.14310  0.98270  0.80440  Biso   1.000  C
  C204     1.0000 0.35690  0.51730  0.30440  Biso   1.000  C
  C205     1.0000 0.35690  0.48270  0.80440  Biso   1.000  C
  C206     1.0000 0.14310  0.01730  0.30440  Biso   1.000  C
  C207     1.0000 0.85690  0.01730  0.19560  Biso   1.000  C
  C208     1.0000 0.64310  0.48270  0.69560  Biso   1.000  C
  C209     1.0000 0.69360  0.53110  0.15780  Biso   1.000  C
  C210     1.0000 0.80640  0.96890  0.65780  Biso   1.000  C
  C211     1.0000 0.19360  0.96890  0.84220  Biso   1.000  C
  C212     1.0000 0.30640  0.53110  0.34220  Biso   1.000  C
  C213     1.0000 0.30640  0.46890  0.84220  Biso   1.000  C
  C214     1.0000 0.19360  0.03110  0.34220  Biso   1.000  C
  C215     1.0000 0.80640  0.03110  0.15780  Biso   1.000  C
  C216     1.0000 0.69360  0.46890  0.65780  Biso   1.000  C
  H305     1.0000 0.68470  0.56720  0.13050  Biso   1.000  H
  H306     1.0000 0.81530  0.93280  0.63050  Biso   1.000  H
  H307     1.0000 0.18470  0.93280  0.86950  Biso   1.000  H
  H308     1.0000 0.31530  0.56720  0.36950  Biso   1.000  H
  H309     1.0000 0.31530  0.43280  0.86950  Biso   1.000  H
  H310     1.0000 0.18470  0.06720  0.36950  Biso   1.000  H
  H311     1.0000 0.81530  0.06720  0.13050  Biso   1.000  H
  H312     1.0000 0.68470  0.43280  0.63050  Biso   1.000  H
  C217     1.0000 0.75640  0.49250  0.15980  Biso   1.000  C
  C218     1.0000 0.74360  0.00750  0.65980  Biso   1.000  C
  C219     1.0000 0.25640  0.00750  0.84020  Biso   1.000  C
  C220     1.0000 0.24360  0.49250  0.34020  Biso   1.000  C
  C221     1.0000 0.24360  0.50750  0.84020  Biso   1.000  C
  C222     1.0000 0.25640  0.99250  0.34020  Biso   1.000  C
  C223     1.0000 0.74360  0.99250  0.15980  Biso   1.000  C
  C224     1.0000 0.75640  0.50750  0.65980  Biso   1.000  C
  H313     1.0000 0.78980  0.50380  0.13430  Biso   1.000  H
  H314     1.0000 0.71020  0.99620  0.63430  Biso   1.000  H
  H315     1.0000 0.28980  0.99620  0.86570  Biso   1.000  H
  H316     1.0000 0.21020  0.50380  0.36570  Biso   1.000  H
  H317     1.0000 0.21020  0.49620  0.86570  Biso   1.000  H
  H318     1.0000 0.28980  0.00380  0.36570  Biso   1.000  H
  H319     1.0000 0.71020  0.00380  0.13430  Biso   1.000  H
  H320     1.0000 0.78980  0.49620  0.63430  Biso   1.000  H
  C225     1.0000 0.77080  0.43720  0.19890  Biso   1.000  C
  C226     1.0000 0.72920  0.06280  0.69890  Biso   1.000  C
  C227     1.0000 0.27080  0.06280  0.80110  Biso   1.000  C
  C228     1.0000 0.22920  0.43720  0.30110  Biso   1.000  C
  C229     1.0000 0.22920  0.56280  0.80110  Biso   1.000  C
  C230     1.0000 0.27080  0.93720  0.30110  Biso   1.000  C
  C231     1.0000 0.72920  0.93720  0.19890  Biso   1.000  C
  C232     1.0000 0.77080  0.56280  0.69890  Biso   1.000  C
  C233     1.0000 0.71830  0.41690  0.23390  Biso   1.000  C
  C234     1.0000 0.78170  0.08310  0.73390  Biso   1.000  C
  C235     1.0000 0.21830  0.08310  0.76610  Biso   1.000  C
  C236     1.0000 0.28170  0.41690  0.26610  Biso   1.000  C
  C237     1.0000 0.28170  0.58310  0.76610  Biso   1.000  C
  C238     1.0000 0.21830  0.91690  0.26610  Biso   1.000  C
  C239     1.0000 0.78170  0.91690  0.23390  Biso   1.000  C
  C240     1.0000 0.71830  0.58310  0.73390  Biso   1.000  C
  H321     1.0000 0.72510  0.37620  0.25870  Biso   1.000  H
  H322     1.0000 0.77490  0.12380  0.75870  Biso   1.000  H
  H323     1.0000 0.22510  0.12380  0.74130  Biso   1.000  H
  H324     1.0000 0.27490  0.37620  0.24130  Biso   1.000  H
  H325     1.0000 0.27490  0.62380  0.74130  Biso   1.000  H
  H326     1.0000 0.22510  0.87620  0.24130  Biso   1.000  H
  H327     1.0000 0.77490  0.87620  0.25870  Biso   1.000  H
  H328     1.0000 0.72510  0.62380  0.75870  Biso   1.000  H
  C241     1.0000 0.65490  0.45800  0.23150  Biso   1.000  C
  C242     1.0000 0.84510  0.04200  0.73150  Biso   1.000  C
  C243     1.0000 0.15490  0.04200  0.76850  Biso   1.000  C
  C244     1.0000 0.34510  0.45800  0.26850  Biso   1.000  C
  C245     1.0000 0.34510  0.54200  0.76850  Biso   1.000  C
  C246     1.0000 0.15490  0.95800  0.26850  Biso   1.000  C
  C247     1.0000 0.84510  0.95800  0.23150  Biso   1.000  C
  C248     1.0000 0.65490  0.54200  0.73150  Biso   1.000  C
  H329     1.0000 0.62000  0.44420  0.25520  Biso   1.000  H
  H330     1.0000 0.88000  0.05580  0.75520  Biso   1.000  H
  H331     1.0000 0.12000  0.05580  0.74480  Biso   1.000  H
  H332     1.0000 0.38000  0.44420  0.24480  Biso   1.000  H
  H333     1.0000 0.38000  0.55580  0.74480  Biso   1.000  H
  H334     1.0000 0.12000  0.94420  0.24480  Biso   1.000  H
  H335     1.0000 0.88000  0.94420  0.25520  Biso   1.000  H
  H336     1.0000 0.62000  0.55580  0.75520  Biso   1.000  H
  C249     1.0000 0.84290  0.40640  0.20600  Biso   1.000  C
  C250     1.0000 0.65710  0.09360  0.70600  Biso   1.000  C
  C251     1.0000 0.34290  0.09360  0.79400  Biso   1.000  C
  C252     1.0000 0.15710  0.40640  0.29400  Biso   1.000  C
  C253     1.0000 0.15710  0.59360  0.79400  Biso   1.000  C
  C254     1.0000 0.34290  0.90640  0.29400  Biso   1.000  C
  C255     1.0000 0.65710  0.90640  0.20600  Biso   1.000  C
  C256     1.0000 0.84290  0.59360  0.70600  Biso   1.000  C
  H337     1.0000 0.84210  0.36090  0.23010  Biso   1.000  H
  H338     1.0000 0.65790  0.13910  0.73010  Biso   1.000  H
  H339     1.0000 0.34210  0.13910  0.76990  Biso   1.000  H
  H340     1.0000 0.15790  0.36090  0.26990  Biso   1.000  H
  H341     1.0000 0.15790  0.63910  0.76990  Biso   1.000  H
  H342     1.0000 0.34210  0.86090  0.26990  Biso   1.000  H
  H343     1.0000 0.65790  0.86090  0.23010  Biso   1.000  H
  H344     1.0000 0.84210  0.63910  0.73010  Biso   1.000  H
  H345     1.0000 0.86020  0.38740  0.17230  Biso   1.000  H
  H346     1.0000 0.63980  0.11260  0.67230  Biso   1.000  H
  H347     1.0000 0.36020  0.11260  0.82770  Biso   1.000  H
  H348     1.0000 0.13980  0.38740  0.32770  Biso   1.000  H
  H349     1.0000 0.13980  0.61260  0.82770  Biso   1.000  H
  H350     1.0000 0.36020  0.88740  0.32770  Biso   1.000  H
  H351     1.0000 0.63980  0.88740  0.17230  Biso   1.000  H
  H352     1.0000 0.86020  0.61260  0.67230  Biso   1.000  H
  O1       1.0000 0.46200  0.98700  0.45500  Biso   1.000  O
  O2       1.0000 0.03800  0.51300  0.95500  Biso   1.000  O
  O3       1.0000 0.96200  0.51300  0.54500  Biso   1.000  O
  O4       1.0000 0.53800  0.98700  0.04500  Biso   1.000  O
  O5       1.0000 0.53800  0.01300  0.54500  Biso   1.000  O
  O6       1.0000 0.96200  0.48700  0.04500  Biso   1.000  O
  O7       1.0000 0.03800  0.48700  0.45500  Biso   1.000  O
  O8       1.0000 0.46200  0.01300  0.95500  Biso   1.000  O
  O9       1.0000 0.47620  0.93300  0.54810  Biso   1.000  O
  O10      1.0000 0.02380  0.56700  0.04810  Biso   1.000  O
  O11      1.0000 0.97620  0.56700  0.45190  Biso   1.000  O
  O12      1.0000 0.52380  0.93300  0.95190  Biso   1.000  O
  O13      1.0000 0.52380  0.06700  0.45190  Biso   1.000  O
  O14      1.0000 0.97620  0.43300  0.95190  Biso   1.000  O
  O15      1.0000 0.02380  0.43300  0.54810  Biso   1.000  O
  O16      1.0000 0.47620  0.06700  0.04810  Biso   1.000  O
