data_image0
_cell_length_a       15.3844
_cell_length_b       15.3844
_cell_length_c       93.975
_cell_angle_alpha    90
_cell_angle_beta     90
_cell_angle_gamma    120

_symmetry_space_group_name_H-M    "P 1"
_symmetry_int_tables_number       1

loop_
  _symmetry_equiv_pos_as_xyz
  'x, y, z'

loop_
  _atom_site_label
  _atom_site_occupancy
  _atom_site_fract_x
  _atom_site_fract_y
  _atom_site_fract_z
  _atom_site_thermal_displace_type
  _atom_site_B_iso_or_equiv
  _atom_site_type_symbol
  O1       1.0000 0.80290  0.33330  0.58330  Biso   1.000  O
  O2       1.0000 0.66670  0.46960  0.58330  Biso   1.000  O
  O3       1.0000 0.53040  0.19710  0.58330  Biso   1.000  O
  O4       1.0000 0.33330  0.80290  0.91670  Biso   1.000  O
  O5       1.0000 0.46957  0.66663  0.91663  Biso   1.000  O
  O6       1.0000 0.19707  0.53043  0.91663  Biso   1.000  O
  O7       1.0000 0.99997  0.13623  0.25003  Biso   1.000  O
  O8       1.0000 0.13623  0.99997  0.24997  Biso   1.000  O
  O9       1.0000 0.86373  0.86377  0.24997  Biso   1.000  O
  O10      1.0000 0.19710  0.66670  0.41670  Biso   1.000  O
  O11      1.0000 0.33330  0.53040  0.41670  Biso   1.000  O
  O12      1.0000 0.46960  0.80290  0.41670  Biso   1.000  O
  O13      1.0000 0.66670  0.19710  0.08330  Biso   1.000  O
  O14      1.0000 0.86377  0.00003  0.75003  Biso   1.000  O
  O15      1.0000 0.99997  0.86373  0.75003  Biso   1.000  O
  O16      1.0000 0.13627  0.13623  0.75003  Biso   1.000  O
  O17      1.0000 0.53043  0.33337  0.08337  Biso   1.000  O
  O18      1.0000 0.80290  0.46960  0.08330  Biso   1.000  O
  Nd1      1.0000 0.91645  0.09338  0.67746  Biso   1.000  Nd
  Nd2      1.0000 0.90662  0.82307  0.67746  Biso   1.000  Nd
  Nd3      1.0000 0.17693  0.08355  0.67746  Biso   1.000  Nd
  Nd4      1.0000 0.09338  0.91645  0.82254  Biso   1.000  Nd
  Nd5      1.0000 0.58312  0.42671  0.01079  Biso   1.000  Nd
  Nd6      1.0000 0.57329  0.15640  0.01079  Biso   1.000  Nd
  Nd7      1.0000 0.84360  0.41688  0.01079  Biso   1.000  Nd
  Nd8      1.0000 0.76005  0.24978  0.15587  Biso   1.000  Nd
  Nd9      1.0000 0.24978  0.76005  0.34413  Biso   1.000  Nd
  Nd10     1.0000 0.42671  0.58312  0.48921  Biso   1.000  Nd
  Nd11     1.0000 0.82307  0.90662  0.82254  Biso   1.000  Nd
  Nd12     1.0000 0.08355  0.17693  0.82254  Biso   1.000  Nd
  Nd13     1.0000 0.23995  0.48974  0.34413  Biso   1.000  Nd
  Nd14     1.0000 0.51026  0.75022  0.34413  Biso   1.000  Nd
  Nd15     1.0000 0.15640  0.57329  0.48921  Biso   1.000  Nd
  Nd16     1.0000 0.41688  0.84360  0.48921  Biso   1.000  Nd
  Nd17     1.0000 0.48974  0.23995  0.15587  Biso   1.000  Nd
  Nd18     1.0000 0.75022  0.51026  0.15587  Biso   1.000  Nd
  Nd19     1.0000 0.08355  0.90662  0.32254  Biso   1.000  Nd
  Nd20     1.0000 0.09338  0.17693  0.32254  Biso   1.000  Nd
  Nd21     1.0000 0.82307  0.91645  0.32254  Biso   1.000  Nd
  Nd22     1.0000 0.90662  0.08355  0.17746  Biso   1.000  Nd
  Nd23     1.0000 0.75022  0.23995  0.65587  Biso   1.000  Nd
  Nd24     1.0000 0.76005  0.51026  0.65587  Biso   1.000  Nd
  Nd25     1.0000 0.48974  0.24978  0.65587  Biso   1.000  Nd
  Nd26     1.0000 0.57329  0.41688  0.51079  Biso   1.000  Nd
  Nd27     1.0000 0.41688  0.57329  0.98921  Biso   1.000  Nd
  Nd28     1.0000 0.23995  0.75022  0.84413  Biso   1.000  Nd
  Nd29     1.0000 0.17693  0.09338  0.17746  Biso   1.000  Nd
  Nd30     1.0000 0.91645  0.82307  0.17746  Biso   1.000  Nd
  Nd31     1.0000 0.42671  0.84360  0.98921  Biso   1.000  Nd
  Nd32     1.0000 0.15640  0.58312  0.98921  Biso   1.000  Nd
  Nd33     1.0000 0.51026  0.76005  0.84413  Biso   1.000  Nd
  Nd34     1.0000 0.24978  0.48974  0.84413  Biso   1.000  Nd
  Nd35     1.0000 0.84360  0.42671  0.51079  Biso   1.000  Nd
  Nd36     1.0000 0.58312  0.15640  0.51079  Biso   1.000  Nd
  Cu1      1.0000 0.33330  0.66670  0.62553  Biso   1.000  Cu
  Cu2      1.0000 0.66670  0.33330  0.87447  Biso   1.000  Cu
  Cu3      1.0000 0.99997  0.00003  0.95886  Biso   1.000  Cu
  Cu4      1.0000 0.33337  0.66663  0.20780  Biso   1.000  Cu
  Cu5      1.0000 0.66663  0.33337  0.29220  Biso   1.000  Cu
  Cu6      1.0000 0.00003  0.99997  0.54114  Biso   1.000  Cu
  Cu7      1.0000 0.66670  0.33330  0.37447  Biso   1.000  Cu
  Cu8      1.0000 0.33330  0.66670  0.12553  Biso   1.000  Cu
  Cu9      1.0000 0.33337  0.66663  0.70780  Biso   1.000  Cu
  Cu10     1.0000 0.99997  0.00003  0.45886  Biso   1.000  Cu
  Cu11     1.0000 0.00003  0.99997  0.04114  Biso   1.000  Cu
  Cu12     1.0000 0.66663  0.33337  0.79220  Biso   1.000  Cu
  Cu13     1.0000 0.30425  0.82308  0.58739  Biso   1.000  Cu
  Cu14     1.0000 0.17692  0.48117  0.58739  Biso   1.000  Cu
  Cu15     1.0000 0.51883  0.69575  0.58739  Biso   1.000  Cu
  Cu16     1.0000 0.82308  0.30425  0.91261  Biso   1.000  Cu
  Cu17     1.0000 0.97092  0.15641  0.92072  Biso   1.000  Cu
  Cu18     1.0000 0.84359  0.81450  0.92072  Biso   1.000  Cu
  Cu19     1.0000 0.18550  0.02908  0.92072  Biso   1.000  Cu
  Cu20     1.0000 0.48975  0.63758  0.24594  Biso   1.000  Cu
  Cu21     1.0000 0.63758  0.48975  0.25406  Biso   1.000  Cu
  Cu22     1.0000 0.15641  0.97092  0.57928  Biso   1.000  Cu
  Cu23     1.0000 0.48117  0.17692  0.91261  Biso   1.000  Cu
  Cu24     1.0000 0.69575  0.51883  0.91261  Biso   1.000  Cu
  Cu25     1.0000 0.51025  0.14784  0.25406  Biso   1.000  Cu
  Cu26     1.0000 0.85216  0.36242  0.25406  Biso   1.000  Cu
  Cu27     1.0000 0.81450  0.84359  0.57928  Biso   1.000  Cu
  Cu28     1.0000 0.02908  0.18550  0.57928  Biso   1.000  Cu
  Cu29     1.0000 0.14784  0.51025  0.24594  Biso   1.000  Cu
  Cu30     1.0000 0.36242  0.85216  0.24594  Biso   1.000  Cu
  Cu31     1.0000 0.69575  0.17692  0.41261  Biso   1.000  Cu
  Cu32     1.0000 0.82308  0.51883  0.41261  Biso   1.000  Cu
  Cu33     1.0000 0.48117  0.30425  0.41261  Biso   1.000  Cu
  Cu34     1.0000 0.17692  0.69575  0.08739  Biso   1.000  Cu
  Cu35     1.0000 0.36242  0.51025  0.74594  Biso   1.000  Cu
  Cu36     1.0000 0.48975  0.85216  0.74594  Biso   1.000  Cu
  Cu37     1.0000 0.14784  0.63758  0.74594  Biso   1.000  Cu
  Cu38     1.0000 0.84359  0.02908  0.42072  Biso   1.000  Cu
  Cu39     1.0000 0.02908  0.84359  0.07928  Biso   1.000  Cu
  Cu40     1.0000 0.51025  0.36242  0.75406  Biso   1.000  Cu
  Cu41     1.0000 0.51883  0.82308  0.08739  Biso   1.000  Cu
  Cu42     1.0000 0.30425  0.48117  0.08739  Biso   1.000  Cu
  Cu43     1.0000 0.15641  0.18550  0.07928  Biso   1.000  Cu
  Cu44     1.0000 0.81450  0.97092  0.07928  Biso   1.000  Cu
  Cu45     1.0000 0.85216  0.48975  0.75406  Biso   1.000  Cu
  Cu46     1.0000 0.63758  0.14784  0.75406  Biso   1.000  Cu
  Cu47     1.0000 0.18550  0.15641  0.42072  Biso   1.000  Cu
  Cu48     1.0000 0.97092  0.81450  0.42072  Biso   1.000  Cu
  I1       1.0000 0.33330  0.66670  0.59771  Biso   1.000  I
  I2       1.0000 0.66670  0.33330  0.90229  Biso   1.000  I
  I3       1.0000 0.99997  0.00003  0.93104  Biso   1.000  I
  I4       1.0000 0.33337  0.66663  0.23562  Biso   1.000  I
  I5       1.0000 0.66663  0.33337  0.26438  Biso   1.000  I
  I6       1.0000 0.00003  0.99997  0.56896  Biso   1.000  I
  I7       1.0000 0.66670  0.33330  0.40229  Biso   1.000  I
  I8       1.0000 0.33330  0.66670  0.09771  Biso   1.000  I
  I9       1.0000 0.33337  0.66663  0.73562  Biso   1.000  I
  I10      1.0000 0.99997  0.00003  0.43104  Biso   1.000  I
  I11      1.0000 0.00003  0.99997  0.06896  Biso   1.000  I
  I12      1.0000 0.66663  0.33337  0.76438  Biso   1.000  I
  I13      1.0000 0.12001  0.78670  0.58340  Biso   1.000  I
  I14      1.0000 0.21330  0.33331  0.58340  Biso   1.000  I
  I15      1.0000 0.66669  0.87999  0.58340  Biso   1.000  I
  I16      1.0000 0.78670  0.12001  0.91660  Biso   1.000  I
  I17      1.0000 0.87997  0.66664  0.91673  Biso   1.000  I
  I18      1.0000 0.33336  0.21332  0.91673  Biso   1.000  I
  I19      1.0000 0.45337  0.45334  0.24993  Biso   1.000  I
  I20      1.0000 0.54663  0.99998  0.25007  Biso   1.000  I
  I21      1.0000 0.00002  0.54666  0.25007  Biso   1.000  I
  I22      1.0000 0.87999  0.21330  0.41660  Biso   1.000  I
  I23      1.0000 0.78670  0.66669  0.41660  Biso   1.000  I
  I24      1.0000 0.33331  0.12001  0.41660  Biso   1.000  I
  I25      1.0000 0.21330  0.87999  0.08340  Biso   1.000  I
  I26      1.0000 0.54666  0.54663  0.74993  Biso   1.000  I
  I27      1.0000 0.45337  0.00002  0.74993  Biso   1.000  I
  I28      1.0000 0.99998  0.45334  0.74993  Biso   1.000  I
  I29      1.0000 0.66669  0.78670  0.08340  Biso   1.000  I
  I30      1.0000 0.12001  0.33331  0.08340  Biso   1.000  I
  C1       1.0000 0.72700  0.87030  0.66432  Biso   1.000  C
  C2       1.0000 0.12970  0.85670  0.66432  Biso   1.000  C
  C3       1.0000 0.14330  0.27300  0.66432  Biso   1.000  C
  C4       1.0000 0.87030  0.72700  0.83568  Biso   1.000  C
  C5       1.0000 0.39367  0.20363  0.99765  Biso   1.000  C
  C6       1.0000 0.79637  0.19003  0.99765  Biso   1.000  C
  C7       1.0000 0.80997  0.60633  0.99765  Biso   1.000  C
  C8       1.0000 0.53697  0.06033  0.16901  Biso   1.000  C
  C9       1.0000 0.06033  0.53697  0.33099  Biso   1.000  C
  C10      1.0000 0.20363  0.39367  0.50235  Biso   1.000  C
  C11      1.0000 0.85670  0.12970  0.83568  Biso   1.000  C
  C12      1.0000 0.27300  0.14330  0.83568  Biso   1.000  C
  C13      1.0000 0.46303  0.52337  0.33099  Biso   1.000  C
  C14      1.0000 0.47663  0.93967  0.33099  Biso   1.000  C
  C15      1.0000 0.19003  0.79637  0.50235  Biso   1.000  C
  C16      1.0000 0.60633  0.80997  0.50235  Biso   1.000  C
  C17      1.0000 0.52337  0.46303  0.16901  Biso   1.000  C
  C18      1.0000 0.93967  0.47663  0.16901  Biso   1.000  C
  C19      1.0000 0.27300  0.12970  0.33568  Biso   1.000  C
  C20      1.0000 0.87030  0.14330  0.33568  Biso   1.000  C
  C21      1.0000 0.85670  0.72700  0.33568  Biso   1.000  C
  C22      1.0000 0.12970  0.27300  0.16432  Biso   1.000  C
  C23      1.0000 0.93967  0.46303  0.66901  Biso   1.000  C
  C24      1.0000 0.53697  0.47663  0.66901  Biso   1.000  C
  C25      1.0000 0.52337  0.06033  0.66901  Biso   1.000  C
  C26      1.0000 0.79637  0.60633  0.49765  Biso   1.000  C
  C27      1.0000 0.60633  0.79637  0.00235  Biso   1.000  C
  C28      1.0000 0.46303  0.93967  0.83099  Biso   1.000  C
  C29      1.0000 0.14330  0.87030  0.16432  Biso   1.000  C
  C30      1.0000 0.72700  0.85670  0.16432  Biso   1.000  C
  C31      1.0000 0.20363  0.80997  0.00235  Biso   1.000  C
  C32      1.0000 0.19003  0.39367  0.00235  Biso   1.000  C
  C33      1.0000 0.47663  0.53697  0.83099  Biso   1.000  C
  C34      1.0000 0.06033  0.52337  0.83099  Biso   1.000  C
  C35      1.0000 0.80997  0.20363  0.49765  Biso   1.000  C
  C36      1.0000 0.39367  0.19003  0.49765  Biso   1.000  C
  C37      1.0000 0.64140  0.82140  0.65365  Biso   1.000  C
  C38      1.0000 0.17860  0.82000  0.65365  Biso   1.000  C
  C39      1.0000 0.18000  0.35860  0.65365  Biso   1.000  C
  C40      1.0000 0.82140  0.64140  0.84635  Biso   1.000  C
  C41      1.0000 0.30807  0.15473  0.98698  Biso   1.000  C
  C42      1.0000 0.84527  0.15333  0.98698  Biso   1.000  C
  C43      1.0000 0.84667  0.69193  0.98698  Biso   1.000  C
  C44      1.0000 0.48807  0.97473  0.17968  Biso   1.000  C
  C45      1.0000 0.97473  0.48807  0.32032  Biso   1.000  C
  C46      1.0000 0.15473  0.30807  0.51302  Biso   1.000  C
  C47      1.0000 0.82000  0.17860  0.84635  Biso   1.000  C
  C48      1.0000 0.35860  0.18000  0.84635  Biso   1.000  C
  C49      1.0000 0.51193  0.48667  0.32032  Biso   1.000  C
  C50      1.0000 0.51333  0.02527  0.32032  Biso   1.000  C
  C51      1.0000 0.15333  0.84527  0.51302  Biso   1.000  C
  C52      1.0000 0.69193  0.84667  0.51302  Biso   1.000  C
  C53      1.0000 0.48667  0.51193  0.17968  Biso   1.000  C
  C54      1.0000 0.02527  0.51333  0.17968  Biso   1.000  C
  C55      1.0000 0.35860  0.17860  0.34635  Biso   1.000  C
  C56      1.0000 0.82140  0.18000  0.34635  Biso   1.000  C
  C57      1.0000 0.82000  0.64140  0.34635  Biso   1.000  C
  C58      1.0000 0.17860  0.35860  0.15365  Biso   1.000  C
  C59      1.0000 0.02527  0.51193  0.67968  Biso   1.000  C
  C60      1.0000 0.48807  0.51333  0.67968  Biso   1.000  C
  C61      1.0000 0.48667  0.97473  0.67968  Biso   1.000  C
  C62      1.0000 0.84527  0.69193  0.48698  Biso   1.000  C
  C63      1.0000 0.69193  0.84527  0.01302  Biso   1.000  C
  C64      1.0000 0.51193  0.02527  0.82032  Biso   1.000  C
  C65      1.0000 0.18000  0.82140  0.15365  Biso   1.000  C
  C66      1.0000 0.64140  0.82000  0.15365  Biso   1.000  C
  C67      1.0000 0.15473  0.84667  0.01302  Biso   1.000  C
  C68      1.0000 0.15333  0.30807  0.01302  Biso   1.000  C
  C69      1.0000 0.51333  0.48807  0.82032  Biso   1.000  C
  C70      1.0000 0.97473  0.48667  0.82032  Biso   1.000  C
  C71      1.0000 0.84667  0.15473  0.48698  Biso   1.000  C
  C72      1.0000 0.30807  0.15333  0.48698  Biso   1.000  C
  C73      1.0000 0.57590  0.72020  0.65429  Biso   1.000  C
  C74      1.0000 0.27980  0.85570  0.65429  Biso   1.000  C
  C75      1.0000 0.14430  0.42410  0.65429  Biso   1.000  C
  C76      1.0000 0.72020  0.57590  0.84571  Biso   1.000  C
  C77      1.0000 0.24257  0.05353  0.98762  Biso   1.000  C
  C78      1.0000 0.94647  0.18903  0.98762  Biso   1.000  C
  C79      1.0000 0.81097  0.75743  0.98762  Biso   1.000  C
  C80      1.0000 0.38687  0.90923  0.17904  Biso   1.000  C
  C81      1.0000 0.90923  0.38687  0.32096  Biso   1.000  C
  C82      1.0000 0.05353  0.24257  0.51238  Biso   1.000  C
  C83      1.0000 0.85570  0.27980  0.84571  Biso   1.000  C
  C84      1.0000 0.42410  0.14430  0.84571  Biso   1.000  C
  C85      1.0000 0.61313  0.52237  0.32096  Biso   1.000  C
  C86      1.0000 0.47763  0.09077  0.32096  Biso   1.000  C
  C87      1.0000 0.18903  0.94647  0.51238  Biso   1.000  C
  C88      1.0000 0.75743  0.81097  0.51238  Biso   1.000  C
  C89      1.0000 0.52237  0.61313  0.17904  Biso   1.000  C
  C90      1.0000 0.09077  0.47763  0.17904  Biso   1.000  C
  C91      1.0000 0.42410  0.27980  0.34571  Biso   1.000  C
  C92      1.0000 0.72020  0.14430  0.34571  Biso   1.000  C
  C93      1.0000 0.85570  0.57590  0.34571  Biso   1.000  C
  C94      1.0000 0.27980  0.42410  0.15429  Biso   1.000  C
  C95      1.0000 0.09077  0.61313  0.67904  Biso   1.000  C
  C96      1.0000 0.38687  0.47763  0.67904  Biso   1.000  C
  C97      1.0000 0.52237  0.90923  0.67904  Biso   1.000  C
  C98      1.0000 0.94647  0.75743  0.48762  Biso   1.000  C
  C99      1.0000 0.75743  0.94647  0.01238  Biso   1.000  C
  C100     1.0000 0.61313  0.09077  0.82096  Biso   1.000  C
  C101     1.0000 0.14430  0.72020  0.15429  Biso   1.000  C
  C102     1.0000 0.57590  0.85570  0.15429  Biso   1.000  C
  C103     1.0000 0.05353  0.81097  0.01238  Biso   1.000  C
  C104     1.0000 0.18903  0.24257  0.01238  Biso   1.000  C
  C105     1.0000 0.47763  0.38687  0.82096  Biso   1.000  C
  C106     1.0000 0.90923  0.52237  0.82096  Biso   1.000  C
  C107     1.0000 0.81097  0.05353  0.48762  Biso   1.000  C
  C108     1.0000 0.24257  0.18903  0.48762  Biso   1.000  C
  H1       1.0000 0.58670  0.68050  0.66070  Biso   1.000  H
  H2       1.0000 0.31950  0.90620  0.66070  Biso   1.000  H
  H3       1.0000 0.09380  0.41330  0.66070  Biso   1.000  H
  H4       1.0000 0.68050  0.58670  0.83930  Biso   1.000  H
  H5       1.0000 0.25337  0.01383  0.99403  Biso   1.000  H
  H6       1.0000 0.98617  0.23953  0.99403  Biso   1.000  H
  H7       1.0000 0.76047  0.74663  0.99403  Biso   1.000  H
  H8       1.0000 0.34717  0.92003  0.17263  Biso   1.000  H
  H9       1.0000 0.92003  0.34717  0.32737  Biso   1.000  H
  H10      1.0000 0.01383  0.25337  0.50597  Biso   1.000  H
  H11      1.0000 0.90620  0.31950  0.83930  Biso   1.000  H
  H12      1.0000 0.41330  0.09380  0.83930  Biso   1.000  H
  H13      1.0000 0.65283  0.57287  0.32737  Biso   1.000  H
  H14      1.0000 0.42713  0.07997  0.32737  Biso   1.000  H
  H15      1.0000 0.23953  0.98617  0.50597  Biso   1.000  H
  H16      1.0000 0.74663  0.76047  0.50597  Biso   1.000  H
  H17      1.0000 0.57287  0.65283  0.17263  Biso   1.000  H
  H18      1.0000 0.07997  0.42713  0.17263  Biso   1.000  H
  H19      1.0000 0.41330  0.31950  0.33930  Biso   1.000  H
  H20      1.0000 0.68050  0.09380  0.33930  Biso   1.000  H
  H21      1.0000 0.90620  0.58670  0.33930  Biso   1.000  H
  H22      1.0000 0.31950  0.41330  0.16070  Biso   1.000  H
  H23      1.0000 0.07997  0.65283  0.67263  Biso   1.000  H
  H24      1.0000 0.34717  0.42713  0.67263  Biso   1.000  H
  H25      1.0000 0.57287  0.92003  0.67263  Biso   1.000  H
  H26      1.0000 0.98617  0.74663  0.49403  Biso   1.000  H
  H27      1.0000 0.74663  0.98617  0.00597  Biso   1.000  H
  H28      1.0000 0.65283  0.07997  0.82737  Biso   1.000  H
  H29      1.0000 0.09380  0.68050  0.16070  Biso   1.000  H
  H30      1.0000 0.58670  0.90620  0.16070  Biso   1.000  H
  H31      1.0000 0.01383  0.76047  0.00597  Biso   1.000  H
  H32      1.0000 0.23953  0.25337  0.00597  Biso   1.000  H
  H33      1.0000 0.42713  0.34717  0.82737  Biso   1.000  H
  H34      1.0000 0.92003  0.57287  0.82737  Biso   1.000  H
  H35      1.0000 0.76047  0.01383  0.49403  Biso   1.000  H
  H36      1.0000 0.25337  0.23953  0.49403  Biso   1.000  H
  C109     1.0000 0.49370  0.67750  0.64532  Biso   1.000  C
  C110     1.0000 0.32250  0.81620  0.64532  Biso   1.000  C
  C111     1.0000 0.18380  0.50630  0.64532  Biso   1.000  C
  C112     1.0000 0.67750  0.49370  0.85468  Biso   1.000  C
  C113     1.0000 0.16037  0.01083  0.97865  Biso   1.000  C
  C114     1.0000 0.98917  0.14953  0.97865  Biso   1.000  C
  C115     1.0000 0.85047  0.83963  0.97865  Biso   1.000  C
  C116     1.0000 0.34417  0.82703  0.18801  Biso   1.000  C
  C117     1.0000 0.82703  0.34417  0.31199  Biso   1.000  C
  C118     1.0000 0.01083  0.16037  0.52135  Biso   1.000  C
  C119     1.0000 0.81620  0.32250  0.85468  Biso   1.000  C
  C120     1.0000 0.50630  0.18380  0.85468  Biso   1.000  C
  C121     1.0000 0.65583  0.48287  0.31199  Biso   1.000  C
  C122     1.0000 0.51713  0.17297  0.31199  Biso   1.000  C
  C123     1.0000 0.14953  0.98917  0.52135  Biso   1.000  C
  C124     1.0000 0.83963  0.85047  0.52135  Biso   1.000  C
  C125     1.0000 0.48287  0.65583  0.18801  Biso   1.000  C
  C126     1.0000 0.17297  0.51713  0.18801  Biso   1.000  C
  C127     1.0000 0.50630  0.32250  0.35468  Biso   1.000  C
  C128     1.0000 0.67750  0.18380  0.35468  Biso   1.000  C
  C129     1.0000 0.81620  0.49370  0.35468  Biso   1.000  C
  C130     1.0000 0.32250  0.50630  0.14532  Biso   1.000  C
  C131     1.0000 0.17297  0.65583  0.68801  Biso   1.000  C
  C132     1.0000 0.34417  0.51713  0.68801  Biso   1.000  C
  C133     1.0000 0.48287  0.82703  0.68801  Biso   1.000  C
  C134     1.0000 0.98917  0.83963  0.47865  Biso   1.000  C
  C135     1.0000 0.83963  0.98917  0.02135  Biso   1.000  C
  C136     1.0000 0.65583  0.17297  0.81199  Biso   1.000  C
  C137     1.0000 0.18380  0.67750  0.14532  Biso   1.000  C
  C138     1.0000 0.49370  0.81620  0.14532  Biso   1.000  C
  C139     1.0000 0.01083  0.85047  0.02135  Biso   1.000  C
  C140     1.0000 0.14953  0.16037  0.02135  Biso   1.000  C
  C141     1.0000 0.51713  0.34417  0.81199  Biso   1.000  C
  C142     1.0000 0.82703  0.48287  0.81199  Biso   1.000  C
  C143     1.0000 0.85047  0.01083  0.47865  Biso   1.000  C
  C144     1.0000 0.16037  0.14953  0.47865  Biso   1.000  C
  H37      1.0000 0.44830  0.60940  0.64630  Biso   1.000  H
  H38      1.0000 0.39060  0.83890  0.64630  Biso   1.000  H
  H39      1.0000 0.16110  0.55170  0.64630  Biso   1.000  H
  H40      1.0000 0.60940  0.44830  0.85370  Biso   1.000  H
  H41      1.0000 0.11497  0.94273  0.97963  Biso   1.000  H
  H42      1.0000 0.05727  0.17223  0.97963  Biso   1.000  H
  H43      1.0000 0.82777  0.88503  0.97963  Biso   1.000  H
  H44      1.0000 0.27607  0.78163  0.18703  Biso   1.000  H
  H45      1.0000 0.78163  0.27607  0.31297  Biso   1.000  H
  H46      1.0000 0.94273  0.11497  0.52037  Biso   1.000  H
  H47      1.0000 0.83890  0.39060  0.85370  Biso   1.000  H
  H48      1.0000 0.55170  0.16110  0.85370  Biso   1.000  H
  H49      1.0000 0.72393  0.50557  0.31297  Biso   1.000  H
  H50      1.0000 0.49443  0.21837  0.31297  Biso   1.000  H
  H51      1.0000 0.17223  0.05727  0.52037  Biso   1.000  H
  H52      1.0000 0.88503  0.82777  0.52037  Biso   1.000  H
  H53      1.0000 0.50557  0.72393  0.18703  Biso   1.000  H
  H54      1.0000 0.21837  0.49443  0.18703  Biso   1.000  H
  H55      1.0000 0.55170  0.39060  0.35370  Biso   1.000  H
  H56      1.0000 0.60940  0.16110  0.35370  Biso   1.000  H
  H57      1.0000 0.83890  0.44830  0.35370  Biso   1.000  H
  H58      1.0000 0.39060  0.55170  0.14630  Biso   1.000  H
  H59      1.0000 0.21837  0.72393  0.68703  Biso   1.000  H
  H60      1.0000 0.27607  0.49443  0.68703  Biso   1.000  H
  H61      1.0000 0.50557  0.78163  0.68703  Biso   1.000  H
  H62      1.0000 0.05727  0.88503  0.47963  Biso   1.000  H
  H63      1.0000 0.88503  0.05727  0.02037  Biso   1.000  H
  H64      1.0000 0.72393  0.21837  0.81297  Biso   1.000  H
  H65      1.0000 0.16110  0.60940  0.14630  Biso   1.000  H
  H66      1.0000 0.44830  0.83890  0.14630  Biso   1.000  H
  H67      1.0000 0.94273  0.82777  0.02037  Biso   1.000  H
  H68      1.0000 0.17223  0.11497  0.02037  Biso   1.000  H
  H69      1.0000 0.49443  0.27607  0.81297  Biso   1.000  H
  H70      1.0000 0.78163  0.50557  0.81297  Biso   1.000  H
  H71      1.0000 0.82777  0.94273  0.47963  Biso   1.000  H
  H72      1.0000 0.11497  0.17223  0.47963  Biso   1.000  H
  C145     1.0000 0.54350  0.82560  0.63418  Biso   1.000  C
  C146     1.0000 0.17440  0.71790  0.63418  Biso   1.000  C
  C147     1.0000 0.28210  0.45650  0.63418  Biso   1.000  C
  C148     1.0000 0.82560  0.54350  0.86582  Biso   1.000  C
  C149     1.0000 0.21017  0.15893  0.96751  Biso   1.000  C
  C150     1.0000 0.84107  0.05123  0.96751  Biso   1.000  C
  C151     1.0000 0.94877  0.78983  0.96751  Biso   1.000  C
  C152     1.0000 0.49227  0.87683  0.19915  Biso   1.000  C
  C153     1.0000 0.87683  0.49227  0.30085  Biso   1.000  C
  C154     1.0000 0.15893  0.21017  0.53249  Biso   1.000  C
  C155     1.0000 0.71790  0.17440  0.86582  Biso   1.000  C
  C156     1.0000 0.45650  0.28210  0.86582  Biso   1.000  C
  C157     1.0000 0.50773  0.38457  0.30085  Biso   1.000  C
  C158     1.0000 0.61543  0.12317  0.30085  Biso   1.000  C
  C159     1.0000 0.05123  0.84107  0.53249  Biso   1.000  C
  C160     1.0000 0.78983  0.94877  0.53249  Biso   1.000  C
  C161     1.0000 0.38457  0.50773  0.19915  Biso   1.000  C
  C162     1.0000 0.12317  0.61543  0.19915  Biso   1.000  C
  C163     1.0000 0.45650  0.17440  0.36582  Biso   1.000  C
  C164     1.0000 0.82560  0.28210  0.36582  Biso   1.000  C
  C165     1.0000 0.71790  0.54350  0.36582  Biso   1.000  C
  C166     1.0000 0.17440  0.45650  0.13418  Biso   1.000  C
  C167     1.0000 0.12317  0.50773  0.69915  Biso   1.000  C
  C168     1.0000 0.49227  0.61543  0.69915  Biso   1.000  C
  C169     1.0000 0.38457  0.87683  0.69915  Biso   1.000  C
  C170     1.0000 0.84107  0.78983  0.46751  Biso   1.000  C
  C171     1.0000 0.78983  0.84107  0.03249  Biso   1.000  C
  C172     1.0000 0.50773  0.12317  0.80085  Biso   1.000  C
  C173     1.0000 0.28210  0.82560  0.13418  Biso   1.000  C
  C174     1.0000 0.54350  0.71790  0.13418  Biso   1.000  C
  C175     1.0000 0.15893  0.94877  0.03249  Biso   1.000  C
  C176     1.0000 0.05123  0.21017  0.03249  Biso   1.000  C
  C177     1.0000 0.61543  0.49227  0.80085  Biso   1.000  C
  C178     1.0000 0.87683  0.38457  0.80085  Biso   1.000  C
  C179     1.0000 0.94877  0.15893  0.46751  Biso   1.000  C
  C180     1.0000 0.21017  0.05123  0.46751  Biso   1.000  C
  H73      1.0000 0.53590  0.86200  0.62690  Biso   1.000  H
  H74      1.0000 0.13800  0.67390  0.62690  Biso   1.000  H
  H75      1.0000 0.32610  0.46410  0.62690  Biso   1.000  H
  H76      1.0000 0.86200  0.53590  0.87310  Biso   1.000  H
  H77      1.0000 0.20257  0.19533  0.96023  Biso   1.000  H
  H78      1.0000 0.80467  0.00723  0.96023  Biso   1.000  H
  H79      1.0000 0.99277  0.79743  0.96023  Biso   1.000  H
  H80      1.0000 0.52867  0.86923  0.20643  Biso   1.000  H
  H81      1.0000 0.86923  0.52867  0.29357  Biso   1.000  H
  H82      1.0000 0.19533  0.20257  0.53977  Biso   1.000  H
  H83      1.0000 0.67390  0.13800  0.87310  Biso   1.000  H
  H84      1.0000 0.46410  0.32610  0.87310  Biso   1.000  H
  H85      1.0000 0.47133  0.34057  0.29357  Biso   1.000  H
  H86      1.0000 0.65943  0.13077  0.29357  Biso   1.000  H
  H87      1.0000 0.00723  0.80467  0.53977  Biso   1.000  H
  H88      1.0000 0.79743  0.99277  0.53977  Biso   1.000  H
  H89      1.0000 0.34057  0.47133  0.20643  Biso   1.000  H
  H90      1.0000 0.13077  0.65943  0.20643  Biso   1.000  H
  H91      1.0000 0.46410  0.13800  0.37310  Biso   1.000  H
  H92      1.0000 0.86200  0.32610  0.37310  Biso   1.000  H
  H93      1.0000 0.67390  0.53590  0.37310  Biso   1.000  H
  H94      1.0000 0.13800  0.46410  0.12690  Biso   1.000  H
  H95      1.0000 0.13077  0.47133  0.70643  Biso   1.000  H
  H96      1.0000 0.52867  0.65943  0.70643  Biso   1.000  H
  H97      1.0000 0.34057  0.86923  0.70643  Biso   1.000  H
  H98      1.0000 0.80467  0.79743  0.46023  Biso   1.000  H
  H99      1.0000 0.79743  0.80467  0.03977  Biso   1.000  H
  H100     1.0000 0.47133  0.13077  0.79357  Biso   1.000  H
  H101     1.0000 0.32610  0.86200  0.12690  Biso   1.000  H
  H102     1.0000 0.53590  0.67390  0.12690  Biso   1.000  H
  H103     1.0000 0.19533  0.99277  0.03977  Biso   1.000  H
  H104     1.0000 0.00723  0.20257  0.03977  Biso   1.000  H
  H105     1.0000 0.65943  0.52867  0.79357  Biso   1.000  H
  H106     1.0000 0.86923  0.34057  0.79357  Biso   1.000  H
  H107     1.0000 0.99277  0.19533  0.46023  Biso   1.000  H
  H108     1.0000 0.20257  0.00723  0.46023  Biso   1.000  H
  C181     1.0000 0.62430  0.87490  0.64322  Biso   1.000  C
  C182     1.0000 0.12510  0.74940  0.64322  Biso   1.000  C
  C183     1.0000 0.25060  0.37570  0.64322  Biso   1.000  C
  C184     1.0000 0.87490  0.62430  0.85678  Biso   1.000  C
  C185     1.0000 0.29097  0.20823  0.97655  Biso   1.000  C
  C186     1.0000 0.79177  0.08273  0.97655  Biso   1.000  C
  C187     1.0000 0.91727  0.70903  0.97655  Biso   1.000  C
  C188     1.0000 0.54157  0.95763  0.19011  Biso   1.000  C
  C189     1.0000 0.95763  0.54157  0.30989  Biso   1.000  C
  C190     1.0000 0.20823  0.29097  0.52345  Biso   1.000  C
  C191     1.0000 0.74940  0.12510  0.85678  Biso   1.000  C
  C192     1.0000 0.37570  0.25060  0.85678  Biso   1.000  C
  C193     1.0000 0.45843  0.41607  0.30989  Biso   1.000  C
  C194     1.0000 0.58393  0.04237  0.30989  Biso   1.000  C
  C195     1.0000 0.08273  0.79177  0.52345  Biso   1.000  C
  C196     1.0000 0.70903  0.91727  0.52345  Biso   1.000  C
  C197     1.0000 0.41607  0.45843  0.19011  Biso   1.000  C
  C198     1.0000 0.04237  0.58393  0.19011  Biso   1.000  C
  C199     1.0000 0.37570  0.12510  0.35678  Biso   1.000  C
  C200     1.0000 0.87490  0.25060  0.35678  Biso   1.000  C
  C201     1.0000 0.74940  0.62430  0.35678  Biso   1.000  C
  C202     1.0000 0.12510  0.37570  0.14322  Biso   1.000  C
  C203     1.0000 0.04237  0.45843  0.69011  Biso   1.000  C
  C204     1.0000 0.54157  0.58393  0.69011  Biso   1.000  C
  C205     1.0000 0.41607  0.95763  0.69011  Biso   1.000  C
  C206     1.0000 0.79177  0.70903  0.47655  Biso   1.000  C
  C207     1.0000 0.70903  0.79177  0.02345  Biso   1.000  C
  C208     1.0000 0.45843  0.04237  0.80989  Biso   1.000  C
  C209     1.0000 0.25060  0.87490  0.14322  Biso   1.000  C
  C210     1.0000 0.62430  0.74940  0.14322  Biso   1.000  C
  C211     1.0000 0.20823  0.91727  0.02345  Biso   1.000  C
  C212     1.0000 0.08273  0.29097  0.02345  Biso   1.000  C
  C213     1.0000 0.58393  0.54157  0.80989  Biso   1.000  C
  C214     1.0000 0.95763  0.41607  0.80989  Biso   1.000  C
  C215     1.0000 0.91727  0.20823  0.47655  Biso   1.000  C
  C216     1.0000 0.29097  0.08273  0.47655  Biso   1.000  C
  H109     1.0000 0.66710  0.94370  0.64240  Biso   1.000  H
  H110     1.0000 0.05630  0.72340  0.64240  Biso   1.000  H
  H111     1.0000 0.27660  0.33290  0.64240  Biso   1.000  H
  H112     1.0000 0.94370  0.66710  0.85760  Biso   1.000  H
  H113     1.0000 0.33377  0.27703  0.97573  Biso   1.000  H
  H114     1.0000 0.72297  0.05673  0.97573  Biso   1.000  H
  H115     1.0000 0.94327  0.66623  0.97573  Biso   1.000  H
  H116     1.0000 0.61037  0.00043  0.19093  Biso   1.000  H
  H117     1.0000 0.00043  0.61037  0.30907  Biso   1.000  H
  H118     1.0000 0.27703  0.33377  0.52427  Biso   1.000  H
  H119     1.0000 0.72340  0.05630  0.85760  Biso   1.000  H
  H120     1.0000 0.33290  0.27660  0.85760  Biso   1.000  H
  H121     1.0000 0.38963  0.39007  0.30907  Biso   1.000  H
  H122     1.0000 0.60993  0.99957  0.30907  Biso   1.000  H
  H123     1.0000 0.05673  0.72297  0.52427  Biso   1.000  H
  H124     1.0000 0.66623  0.94327  0.52427  Biso   1.000  H
  H125     1.0000 0.39007  0.38963  0.19093  Biso   1.000  H
  H126     1.0000 0.99957  0.60993  0.19093  Biso   1.000  H
  H127     1.0000 0.33290  0.05630  0.35760  Biso   1.000  H
  H128     1.0000 0.94370  0.27660  0.35760  Biso   1.000  H
  H129     1.0000 0.72340  0.66710  0.35760  Biso   1.000  H
  H130     1.0000 0.05630  0.33290  0.14240  Biso   1.000  H
  H131     1.0000 0.99957  0.38963  0.69093  Biso   1.000  H
  H132     1.0000 0.61037  0.60993  0.69093  Biso   1.000  H
  H133     1.0000 0.39007  0.00043  0.69093  Biso   1.000  H
  H134     1.0000 0.72297  0.66623  0.47573  Biso   1.000  H
  H135     1.0000 0.66623  0.72297  0.02427  Biso   1.000  H
  H136     1.0000 0.38963  0.99957  0.80907  Biso   1.000  H
  H137     1.0000 0.27660  0.94370  0.14240  Biso   1.000  H
  H138     1.0000 0.66710  0.72340  0.14240  Biso   1.000  H
  H139     1.0000 0.27703  0.94327  0.02427  Biso   1.000  H
  H140     1.0000 0.05673  0.33377  0.02427  Biso   1.000  H
  H141     1.0000 0.60993  0.61037  0.80907  Biso   1.000  H
  H142     1.0000 0.00043  0.39007  0.80907  Biso   1.000  H
  H143     1.0000 0.94327  0.27703  0.47573  Biso   1.000  H
  H144     1.0000 0.33377  0.05673  0.47573  Biso   1.000  H
  C217     1.0000 0.59340  0.13870  0.63225  Biso   1.000  C
  C218     1.0000 0.86130  0.45470  0.63225  Biso   1.000  C
  C219     1.0000 0.54530  0.40660  0.63225  Biso   1.000  C
  C220     1.0000 0.13870  0.59340  0.86775  Biso   1.000  C
  C221     1.0000 0.26007  0.47203  0.96558  Biso   1.000  C
  C222     1.0000 0.52797  0.78803  0.96558  Biso   1.000  C
  C223     1.0000 0.21197  0.73993  0.96558  Biso   1.000  C
  C224     1.0000 0.80537  0.92673  0.20108  Biso   1.000  C
  C225     1.0000 0.92673  0.80537  0.29892  Biso   1.000  C
  C226     1.0000 0.47203  0.26007  0.53442  Biso   1.000  C
  C227     1.0000 0.45470  0.86130  0.86775  Biso   1.000  C
  C228     1.0000 0.40660  0.54530  0.86775  Biso   1.000  C
  C229     1.0000 0.19463  0.12137  0.29892  Biso   1.000  C
  C230     1.0000 0.87863  0.07327  0.29892  Biso   1.000  C
  C231     1.0000 0.78803  0.52797  0.53442  Biso   1.000  C
  C232     1.0000 0.73993  0.21197  0.53442  Biso   1.000  C
  C233     1.0000 0.12137  0.19463  0.20108  Biso   1.000  C
  C234     1.0000 0.07327  0.87863  0.20108  Biso   1.000  C
  C235     1.0000 0.40660  0.86130  0.36775  Biso   1.000  C
  C236     1.0000 0.13870  0.54530  0.36775  Biso   1.000  C
  C237     1.0000 0.45470  0.59340  0.36775  Biso   1.000  C
  C238     1.0000 0.86130  0.40660  0.13225  Biso   1.000  C
  C239     1.0000 0.07327  0.19463  0.70108  Biso   1.000  C
  C240     1.0000 0.80537  0.87863  0.70108  Biso   1.000  C
  C241     1.0000 0.12137  0.92673  0.70108  Biso   1.000  C
  C242     1.0000 0.52797  0.73993  0.46558  Biso   1.000  C
  C243     1.0000 0.73993  0.52797  0.03442  Biso   1.000  C
  C244     1.0000 0.19463  0.07327  0.79892  Biso   1.000  C
  C245     1.0000 0.54530  0.13870  0.13225  Biso   1.000  C
  C246     1.0000 0.59340  0.45470  0.13225  Biso   1.000  C
  C247     1.0000 0.47203  0.21197  0.03442  Biso   1.000  C
  C248     1.0000 0.78803  0.26007  0.03442  Biso   1.000  C
  C249     1.0000 0.87863  0.80537  0.79892  Biso   1.000  C
  C250     1.0000 0.92673  0.12137  0.79892  Biso   1.000  C
  C251     1.0000 0.21197  0.47203  0.46558  Biso   1.000  C
  C252     1.0000 0.26007  0.78803  0.46558  Biso   1.000  C
  C253     1.0000 0.52200  0.06420  0.62166  Biso   1.000  C
  C254     1.0000 0.93580  0.45780  0.62166  Biso   1.000  C
  C255     1.0000 0.54220  0.47800  0.62166  Biso   1.000  C
  C256     1.0000 0.06420  0.52200  0.87834  Biso   1.000  C
  C257     1.0000 0.18867  0.39753  0.95499  Biso   1.000  C
  C258     1.0000 0.60247  0.79113  0.95499  Biso   1.000  C
  C259     1.0000 0.20887  0.81133  0.95499  Biso   1.000  C
  C260     1.0000 0.73087  0.85533  0.21167  Biso   1.000  C
  C261     1.0000 0.85533  0.73087  0.28833  Biso   1.000  C
  C262     1.0000 0.39753  0.18867  0.54501  Biso   1.000  C
  C263     1.0000 0.45780  0.93580  0.87834  Biso   1.000  C
  C264     1.0000 0.47800  0.54220  0.87834  Biso   1.000  C
  C265     1.0000 0.26913  0.12447  0.28833  Biso   1.000  C
  C266     1.0000 0.87553  0.14467  0.28833  Biso   1.000  C
  C267     1.0000 0.79113  0.60247  0.54501  Biso   1.000  C
  C268     1.0000 0.81133  0.20887  0.54501  Biso   1.000  C
  C269     1.0000 0.12447  0.26913  0.21167  Biso   1.000  C
  C270     1.0000 0.14467  0.87553  0.21167  Biso   1.000  C
  C271     1.0000 0.47800  0.93580  0.37834  Biso   1.000  C
  C272     1.0000 0.06420  0.54220  0.37834  Biso   1.000  C
  C273     1.0000 0.45780  0.52200  0.37834  Biso   1.000  C
  C274     1.0000 0.93580  0.47800  0.12166  Biso   1.000  C
  C275     1.0000 0.14467  0.26913  0.71167  Biso   1.000  C
  C276     1.0000 0.73087  0.87553  0.71167  Biso   1.000  C
  C277     1.0000 0.12447  0.85533  0.71167  Biso   1.000  C
  C278     1.0000 0.60247  0.81133  0.45499  Biso   1.000  C
  C279     1.0000 0.81133  0.60247  0.04501  Biso   1.000  C
  C280     1.0000 0.26913  0.14467  0.78833  Biso   1.000  C
  C281     1.0000 0.54220  0.06420  0.12166  Biso   1.000  C
  C282     1.0000 0.52200  0.45780  0.12166  Biso   1.000  C
  C283     1.0000 0.39753  0.20887  0.04501  Biso   1.000  C
  C284     1.0000 0.79113  0.18867  0.04501  Biso   1.000  C
  C285     1.0000 0.87553  0.73087  0.78833  Biso   1.000  C
  C286     1.0000 0.85533  0.12447  0.78833  Biso   1.000  C
  C287     1.0000 0.20887  0.39753  0.45499  Biso   1.000  C
  C288     1.0000 0.18867  0.79113  0.45499  Biso   1.000  C
  C289     1.0000 0.41980  0.02580  0.62272  Biso   1.000  C
  C290     1.0000 0.97420  0.39400  0.62272  Biso   1.000  C
  C291     1.0000 0.60600  0.58020  0.62272  Biso   1.000  C
  C292     1.0000 0.02580  0.41980  0.87728  Biso   1.000  C
  C293     1.0000 0.08647  0.35913  0.95605  Biso   1.000  C
  C294     1.0000 0.64087  0.72733  0.95605  Biso   1.000  C
  C295     1.0000 0.27267  0.91353  0.95605  Biso   1.000  C
  C296     1.0000 0.69247  0.75313  0.21061  Biso   1.000  C
  C297     1.0000 0.75313  0.69247  0.28939  Biso   1.000  C
  C298     1.0000 0.35913  0.08647  0.54395  Biso   1.000  C
  C299     1.0000 0.39400  0.97420  0.87728  Biso   1.000  C
  C300     1.0000 0.58020  0.60600  0.87728  Biso   1.000  C
  C301     1.0000 0.30753  0.06067  0.28939  Biso   1.000  C
  C302     1.0000 0.93933  0.24687  0.28939  Biso   1.000  C
  C303     1.0000 0.72733  0.64087  0.54395  Biso   1.000  C
  C304     1.0000 0.91353  0.27267  0.54395  Biso   1.000  C
  C305     1.0000 0.06067  0.30753  0.21061  Biso   1.000  C
  C306     1.0000 0.24687  0.93933  0.21061  Biso   1.000  C
  C307     1.0000 0.58020  0.97420  0.37728  Biso   1.000  C
  C308     1.0000 0.02580  0.60600  0.37728  Biso   1.000  C
  C309     1.0000 0.39400  0.41980  0.37728  Biso   1.000  C
  C310     1.0000 0.97420  0.58020  0.12272  Biso   1.000  C
  C311     1.0000 0.24687  0.30753  0.71061  Biso   1.000  C
  C312     1.0000 0.69247  0.93933  0.71061  Biso   1.000  C
  C313     1.0000 0.06067  0.75313  0.71061  Biso   1.000  C
  C314     1.0000 0.64087  0.91353  0.45605  Biso   1.000  C
  C315     1.0000 0.91353  0.64087  0.04395  Biso   1.000  C
  C316     1.0000 0.30753  0.24687  0.78939  Biso   1.000  C
  C317     1.0000 0.60600  0.02580  0.12272  Biso   1.000  C
  C318     1.0000 0.41980  0.39400  0.12272  Biso   1.000  C
  C319     1.0000 0.35913  0.27267  0.04395  Biso   1.000  C
  C320     1.0000 0.72733  0.08647  0.04395  Biso   1.000  C
  C321     1.0000 0.93933  0.69247  0.78939  Biso   1.000  C
  C322     1.0000 0.75313  0.06067  0.78939  Biso   1.000  C
  C323     1.0000 0.27267  0.35913  0.45605  Biso   1.000  C
  C324     1.0000 0.08647  0.72733  0.45605  Biso   1.000  C
  H145     1.0000 0.39330  0.04620  0.63010  Biso   1.000  H
  H146     1.0000 0.95380  0.34710  0.63010  Biso   1.000  H
  H147     1.0000 0.65290  0.60670  0.63010  Biso   1.000  H
  H148     1.0000 0.04620  0.39330  0.86990  Biso   1.000  H
  H149     1.0000 0.05997  0.37953  0.96343  Biso   1.000  H
  H150     1.0000 0.62047  0.68043  0.96343  Biso   1.000  H
  H151     1.0000 0.31957  0.94003  0.96343  Biso   1.000  H
  H152     1.0000 0.71287  0.72663  0.20323  Biso   1.000  H
  H153     1.0000 0.72663  0.71287  0.29677  Biso   1.000  H
  H154     1.0000 0.37953  0.05997  0.53657  Biso   1.000  H
  H155     1.0000 0.34710  0.95380  0.86990  Biso   1.000  H
  H156     1.0000 0.60670  0.65290  0.86990  Biso   1.000  H
  H157     1.0000 0.28713  0.01377  0.29677  Biso   1.000  H
  H158     1.0000 0.98623  0.27337  0.29677  Biso   1.000  H
  H159     1.0000 0.68043  0.62047  0.53657  Biso   1.000  H
  H160     1.0000 0.94003  0.31957  0.53657  Biso   1.000  H
  H161     1.0000 0.01377  0.28713  0.20323  Biso   1.000  H
  H162     1.0000 0.27337  0.98623  0.20323  Biso   1.000  H
  H163     1.0000 0.60670  0.95380  0.36990  Biso   1.000  H
  H164     1.0000 0.04620  0.65290  0.36990  Biso   1.000  H
  H165     1.0000 0.34710  0.39330  0.36990  Biso   1.000  H
  H166     1.0000 0.95380  0.60670  0.13010  Biso   1.000  H
  H167     1.0000 0.27337  0.28713  0.70323  Biso   1.000  H
  H168     1.0000 0.71287  0.98623  0.70323  Biso   1.000  H
  H169     1.0000 0.01377  0.72663  0.70323  Biso   1.000  H
  H170     1.0000 0.62047  0.94003  0.46343  Biso   1.000  H
  H171     1.0000 0.94003  0.62047  0.03657  Biso   1.000  H
  H172     1.0000 0.28713  0.27337  0.79677  Biso   1.000  H
  H173     1.0000 0.65290  0.04620  0.13010  Biso   1.000  H
  H174     1.0000 0.39330  0.34710  0.13010  Biso   1.000  H
  H175     1.0000 0.37953  0.31957  0.03657  Biso   1.000  H
  H176     1.0000 0.68043  0.05997  0.03657  Biso   1.000  H
  H177     1.0000 0.98623  0.71287  0.79677  Biso   1.000  H
  H178     1.0000 0.72663  0.01377  0.79677  Biso   1.000  H
  H179     1.0000 0.31957  0.37953  0.46343  Biso   1.000  H
  H180     1.0000 0.05997  0.68043  0.46343  Biso   1.000  H
  C325     1.0000 0.35760  0.95680  0.61280  Biso   1.000  C
  C326     1.0000 0.04320  0.40080  0.61280  Biso   1.000  C
  C327     1.0000 0.59920  0.64240  0.61280  Biso   1.000  C
  C328     1.0000 0.95680  0.35760  0.88720  Biso   1.000  C
  C329     1.0000 0.02427  0.29013  0.94613  Biso   1.000  C
  C330     1.0000 0.70987  0.73413  0.94613  Biso   1.000  C
  C331     1.0000 0.26587  0.97573  0.94613  Biso   1.000  C
  C332     1.0000 0.62347  0.69093  0.22053  Biso   1.000  C
  C333     1.0000 0.69093  0.62347  0.27947  Biso   1.000  C
  C334     1.0000 0.29013  0.02427  0.55387  Biso   1.000  C
  C335     1.0000 0.40080  0.04320  0.88720  Biso   1.000  C
  C336     1.0000 0.64240  0.59920  0.88720  Biso   1.000  C
  C337     1.0000 0.37653  0.06747  0.27947  Biso   1.000  C
  C338     1.0000 0.93253  0.30907  0.27947  Biso   1.000  C
  C339     1.0000 0.73413  0.70987  0.55387  Biso   1.000  C
  C340     1.0000 0.97573  0.26587  0.55387  Biso   1.000  C
  C341     1.0000 0.06747  0.37653  0.22053  Biso   1.000  C
  C342     1.0000 0.30907  0.93253  0.22053  Biso   1.000  C
  C343     1.0000 0.64240  0.04320  0.38720  Biso   1.000  C
  C344     1.0000 0.95680  0.59920  0.38720  Biso   1.000  C
  C345     1.0000 0.40080  0.35760  0.38720  Biso   1.000  C
  C346     1.0000 0.04320  0.64240  0.11280  Biso   1.000  C
  C347     1.0000 0.30907  0.37653  0.72053  Biso   1.000  C
  C348     1.0000 0.62347  0.93253  0.72053  Biso   1.000  C
  C349     1.0000 0.06747  0.69093  0.72053  Biso   1.000  C
  C350     1.0000 0.70987  0.97573  0.44613  Biso   1.000  C
  C351     1.0000 0.97573  0.70987  0.05387  Biso   1.000  C
  C352     1.0000 0.37653  0.30907  0.77947  Biso   1.000  C
  C353     1.0000 0.59920  0.95680  0.11280  Biso   1.000  C
  C354     1.0000 0.35760  0.40080  0.11280  Biso   1.000  C
  C355     1.0000 0.29013  0.26587  0.05387  Biso   1.000  C
  C356     1.0000 0.73413  0.02427  0.05387  Biso   1.000  C
  C357     1.0000 0.93253  0.62347  0.77947  Biso   1.000  C
  C358     1.0000 0.69093  0.06747  0.77947  Biso   1.000  C
  C359     1.0000 0.26587  0.29013  0.44613  Biso   1.000  C
  C360     1.0000 0.02427  0.73413  0.44613  Biso   1.000  C
  H181     1.0000 0.28880  0.93130  0.61360  Biso   1.000  H
  H182     1.0000 0.06870  0.35750  0.61360  Biso   1.000  H
  H183     1.0000 0.64250  0.71120  0.61360  Biso   1.000  H
  H184     1.0000 0.93130  0.28880  0.88640  Biso   1.000  H
  H185     1.0000 0.95547  0.26463  0.94693  Biso   1.000  H
  H186     1.0000 0.73537  0.69083  0.94693  Biso   1.000  H
  H187     1.0000 0.30917  0.04453  0.94693  Biso   1.000  H
  H188     1.0000 0.59797  0.62213  0.21973  Biso   1.000  H
  H189     1.0000 0.62213  0.59797  0.28027  Biso   1.000  H
  H190     1.0000 0.26463  0.95547  0.55307  Biso   1.000  H
  H191     1.0000 0.35750  0.06870  0.88640  Biso   1.000  H
  H192     1.0000 0.71120  0.64250  0.88640  Biso   1.000  H
  H193     1.0000 0.40203  0.02417  0.28027  Biso   1.000  H
  H194     1.0000 0.97583  0.37787  0.28027  Biso   1.000  H
  H195     1.0000 0.69083  0.73537  0.55307  Biso   1.000  H
  H196     1.0000 0.04453  0.30917  0.55307  Biso   1.000  H
  H197     1.0000 0.02417  0.40203  0.21973  Biso   1.000  H
  H198     1.0000 0.37787  0.97583  0.21973  Biso   1.000  H
  H199     1.0000 0.71120  0.06870  0.38640  Biso   1.000  H
  H200     1.0000 0.93130  0.64250  0.38640  Biso   1.000  H
  H201     1.0000 0.35750  0.28880  0.38640  Biso   1.000  H
  H202     1.0000 0.06870  0.71120  0.11360  Biso   1.000  H
  H203     1.0000 0.37787  0.40203  0.71973  Biso   1.000  H
  H204     1.0000 0.59797  0.97583  0.71973  Biso   1.000  H
  H205     1.0000 0.02417  0.62213  0.71973  Biso   1.000  H
  H206     1.0000 0.73537  0.04453  0.44693  Biso   1.000  H
  H207     1.0000 0.04453  0.73537  0.05307  Biso   1.000  H
  H208     1.0000 0.40203  0.37787  0.78027  Biso   1.000  H
  H209     1.0000 0.64250  0.93130  0.11360  Biso   1.000  H
  H210     1.0000 0.28880  0.35750  0.11360  Biso   1.000  H
  H211     1.0000 0.26463  0.30917  0.05307  Biso   1.000  H
  H212     1.0000 0.69083  0.95547  0.05307  Biso   1.000  H
  H213     1.0000 0.97583  0.59797  0.78027  Biso   1.000  H
  H214     1.0000 0.62213  0.02417  0.78027  Biso   1.000  H
  H215     1.0000 0.30917  0.26463  0.44693  Biso   1.000  H
  H216     1.0000 0.95547  0.69083  0.44693  Biso   1.000  H
  C361     1.0000 0.49010  0.96100  0.60141  Biso   1.000  C
  C362     1.0000 0.03900  0.52910  0.60141  Biso   1.000  C
  C363     1.0000 0.47090  0.50990  0.60141  Biso   1.000  C
  C364     1.0000 0.96100  0.49010  0.89859  Biso   1.000  C
  C365     1.0000 0.15677  0.29433  0.93474  Biso   1.000  C
  C366     1.0000 0.70567  0.86243  0.93474  Biso   1.000  C
  C367     1.0000 0.13757  0.84323  0.93474  Biso   1.000  C
  C368     1.0000 0.62767  0.82343  0.23192  Biso   1.000  C
  C369     1.0000 0.82343  0.62767  0.26808  Biso   1.000  C
  C370     1.0000 0.29433  0.15677  0.56526  Biso   1.000  C
  C371     1.0000 0.52910  0.03900  0.89859  Biso   1.000  C
  C372     1.0000 0.50990  0.47090  0.89859  Biso   1.000  C
  C373     1.0000 0.37233  0.19577  0.26808  Biso   1.000  C
  C374     1.0000 0.80423  0.17657  0.26808  Biso   1.000  C
  C375     1.0000 0.86243  0.70567  0.56526  Biso   1.000  C
  C376     1.0000 0.84323  0.13757  0.56526  Biso   1.000  C
  C377     1.0000 0.19577  0.37233  0.23192  Biso   1.000  C
  C378     1.0000 0.17657  0.80423  0.23192  Biso   1.000  C
  C379     1.0000 0.50990  0.03900  0.39859  Biso   1.000  C
  C380     1.0000 0.96100  0.47090  0.39859  Biso   1.000  C
  C381     1.0000 0.52910  0.49010  0.39859  Biso   1.000  C
  C382     1.0000 0.03900  0.50990  0.10141  Biso   1.000  C
  C383     1.0000 0.17657  0.37233  0.73192  Biso   1.000  C
  C384     1.0000 0.62767  0.80423  0.73192  Biso   1.000  C
  C385     1.0000 0.19577  0.82343  0.73192  Biso   1.000  C
  C386     1.0000 0.70567  0.84323  0.43474  Biso   1.000  C
  C387     1.0000 0.84323  0.70567  0.06526  Biso   1.000  C
  C388     1.0000 0.37233  0.17657  0.76808  Biso   1.000  C
  C389     1.0000 0.47090  0.96100  0.10141  Biso   1.000  C
  C390     1.0000 0.49010  0.52910  0.10141  Biso   1.000  C
  C391     1.0000 0.29433  0.13757  0.06526  Biso   1.000  C
  C392     1.0000 0.86243  0.15677  0.06526  Biso   1.000  C
  C393     1.0000 0.80423  0.62767  0.76808  Biso   1.000  C
  C394     1.0000 0.82343  0.19577  0.76808  Biso   1.000  C
  C395     1.0000 0.13757  0.29433  0.43474  Biso   1.000  C
  C396     1.0000 0.15677  0.86243  0.43474  Biso   1.000  C
  H217     1.0000 0.51480  0.93820  0.59420  Biso   1.000  H
  H218     1.0000 0.06180  0.57660  0.59420  Biso   1.000  H
  H219     1.0000 0.42340  0.48520  0.59420  Biso   1.000  H
  H220     1.0000 0.93820  0.51480  0.90580  Biso   1.000  H
  H221     1.0000 0.18147  0.27153  0.92753  Biso   1.000  H
  H222     1.0000 0.72847  0.90993  0.92753  Biso   1.000  H
  H223     1.0000 0.09007  0.81853  0.92753  Biso   1.000  H
  H224     1.0000 0.60487  0.84813  0.23913  Biso   1.000  H
  H225     1.0000 0.84813  0.60487  0.26087  Biso   1.000  H
  H226     1.0000 0.27153  0.18147  0.57247  Biso   1.000  H
  H227     1.0000 0.57660  0.06180  0.90580  Biso   1.000  H
  H228     1.0000 0.48520  0.42340  0.90580  Biso   1.000  H
  H229     1.0000 0.39513  0.24327  0.26087  Biso   1.000  H
  H230     1.0000 0.75673  0.15187  0.26087  Biso   1.000  H
  H231     1.0000 0.90993  0.72847  0.57247  Biso   1.000  H
  H232     1.0000 0.81853  0.09007  0.57247  Biso   1.000  H
  H233     1.0000 0.24327  0.39513  0.23913  Biso   1.000  H
  H234     1.0000 0.15187  0.75673  0.23913  Biso   1.000  H
  H235     1.0000 0.48520  0.06180  0.40580  Biso   1.000  H
  H236     1.0000 0.93820  0.42340  0.40580  Biso   1.000  H
  H237     1.0000 0.57660  0.51480  0.40580  Biso   1.000  H
  H238     1.0000 0.06180  0.48520  0.09420  Biso   1.000  H
  H239     1.0000 0.15187  0.39513  0.73913  Biso   1.000  H
  H240     1.0000 0.60487  0.75673  0.73913  Biso   1.000  H
  H241     1.0000 0.24327  0.84813  0.73913  Biso   1.000  H
  H242     1.0000 0.72847  0.81853  0.42753  Biso   1.000  H
  H243     1.0000 0.81853  0.72847  0.07247  Biso   1.000  H
  H244     1.0000 0.39513  0.15187  0.76087  Biso   1.000  H
  H245     1.0000 0.42340  0.93820  0.09420  Biso   1.000  H
  H246     1.0000 0.51480  0.57660  0.09420  Biso   1.000  H
  H247     1.0000 0.27153  0.09007  0.07247  Biso   1.000  H
  H248     1.0000 0.90993  0.18147  0.07247  Biso   1.000  H
  H249     1.0000 0.75673  0.60487  0.76087  Biso   1.000  H
  H250     1.0000 0.84813  0.24327  0.76087  Biso   1.000  H
  H251     1.0000 0.09007  0.27153  0.42753  Biso   1.000  H
  H252     1.0000 0.18147  0.90993  0.42753  Biso   1.000  H
  C397     1.0000 0.55750  0.02960  0.61079  Biso   1.000  C
  C398     1.0000 0.97040  0.52790  0.61079  Biso   1.000  C
  C399     1.0000 0.47210  0.44250  0.61079  Biso   1.000  C
  C400     1.0000 0.02960  0.55750  0.88921  Biso   1.000  C
  C401     1.0000 0.22417  0.36293  0.94412  Biso   1.000  C
  C402     1.0000 0.63707  0.86123  0.94412  Biso   1.000  C
  C403     1.0000 0.13877  0.77583  0.94412  Biso   1.000  C
  C404     1.0000 0.69627  0.89083  0.22254  Biso   1.000  C
  C405     1.0000 0.89083  0.69627  0.27746  Biso   1.000  C
  C406     1.0000 0.36293  0.22417  0.55588  Biso   1.000  C
  C407     1.0000 0.52790  0.97040  0.88921  Biso   1.000  C
  C408     1.0000 0.44250  0.47210  0.88921  Biso   1.000  C
  C409     1.0000 0.30373  0.19457  0.27746  Biso   1.000  C
  C410     1.0000 0.80543  0.10917  0.27746  Biso   1.000  C
  C411     1.0000 0.86123  0.63707  0.55588  Biso   1.000  C
  C412     1.0000 0.77583  0.13877  0.55588  Biso   1.000  C
  C413     1.0000 0.19457  0.30373  0.22254  Biso   1.000  C
  C414     1.0000 0.10917  0.80543  0.22254  Biso   1.000  C
  C415     1.0000 0.44250  0.97040  0.38921  Biso   1.000  C
  C416     1.0000 0.02960  0.47210  0.38921  Biso   1.000  C
  C417     1.0000 0.52790  0.55750  0.38921  Biso   1.000  C
  C418     1.0000 0.97040  0.44250  0.11079  Biso   1.000  C
  C419     1.0000 0.10917  0.30373  0.72254  Biso   1.000  C
  C420     1.0000 0.69627  0.80543  0.72254  Biso   1.000  C
  C421     1.0000 0.19457  0.89083  0.72254  Biso   1.000  C
  C422     1.0000 0.63707  0.77583  0.44412  Biso   1.000  C
  C423     1.0000 0.77583  0.63707  0.05588  Biso   1.000  C
  C424     1.0000 0.30373  0.10917  0.77746  Biso   1.000  C
  C425     1.0000 0.47210  0.02960  0.11079  Biso   1.000  C
  C426     1.0000 0.55750  0.52790  0.11079  Biso   1.000  C
  C427     1.0000 0.36293  0.13877  0.05588  Biso   1.000  C
  C428     1.0000 0.86123  0.22417  0.05588  Biso   1.000  C
  C429     1.0000 0.80543  0.69627  0.77746  Biso   1.000  C
  C430     1.0000 0.89083  0.19457  0.77746  Biso   1.000  C
  C431     1.0000 0.13877  0.36293  0.44412  Biso   1.000  C
  C432     1.0000 0.22417  0.86123  0.44412  Biso   1.000  C
  H253     1.0000 0.62580  0.05260  0.60990  Biso   1.000  H
  H254     1.0000 0.94740  0.57320  0.60990  Biso   1.000  H
  H255     1.0000 0.42680  0.37420  0.60990  Biso   1.000  H
  H256     1.0000 0.05260  0.62580  0.89010  Biso   1.000  H
  H257     1.0000 0.29247  0.38593  0.94323  Biso   1.000  H
  H258     1.0000 0.61407  0.90653  0.94323  Biso   1.000  H
  H259     1.0000 0.09347  0.70753  0.94323  Biso   1.000  H
  H260     1.0000 0.71927  0.95913  0.22343  Biso   1.000  H
  H261     1.0000 0.95913  0.71927  0.27657  Biso   1.000  H
  H262     1.0000 0.38593  0.29247  0.55677  Biso   1.000  H
  H263     1.0000 0.57320  0.94740  0.89010  Biso   1.000  H
  H264     1.0000 0.37420  0.42680  0.89010  Biso   1.000  H
  H265     1.0000 0.28073  0.23987  0.27657  Biso   1.000  H
  H266     1.0000 0.76013  0.04087  0.27657  Biso   1.000  H
  H267     1.0000 0.90653  0.61407  0.55677  Biso   1.000  H
  H268     1.0000 0.70753  0.09347  0.55677  Biso   1.000  H
  H269     1.0000 0.23987  0.28073  0.22343  Biso   1.000  H
  H270     1.0000 0.04087  0.76013  0.22343  Biso   1.000  H
  H271     1.0000 0.37420  0.94740  0.39010  Biso   1.000  H
  H272     1.0000 0.05260  0.42680  0.39010  Biso   1.000  H
  H273     1.0000 0.57320  0.62580  0.39010  Biso   1.000  H
  H274     1.0000 0.94740  0.37420  0.10990  Biso   1.000  H
  H275     1.0000 0.04087  0.28073  0.72343  Biso   1.000  H
  H276     1.0000 0.71927  0.76013  0.72343  Biso   1.000  H
  H277     1.0000 0.23987  0.95913  0.72343  Biso   1.000  H
  H278     1.0000 0.61407  0.70753  0.44323  Biso   1.000  H
  H279     1.0000 0.70753  0.61407  0.05677  Biso   1.000  H
  H280     1.0000 0.28073  0.04087  0.77657  Biso   1.000  H
  H281     1.0000 0.42680  0.05260  0.10990  Biso   1.000  H
  H282     1.0000 0.62580  0.57320  0.10990  Biso   1.000  H
  H283     1.0000 0.38593  0.09347  0.05677  Biso   1.000  H
  H284     1.0000 0.90653  0.29247  0.05677  Biso   1.000  H
  H285     1.0000 0.76013  0.71927  0.77657  Biso   1.000  H
  H286     1.0000 0.95913  0.23987  0.77657  Biso   1.000  H
  H287     1.0000 0.09347  0.38593  0.44323  Biso   1.000  H
  H288     1.0000 0.29247  0.90653  0.44323  Biso   1.000  H
  C433     1.0000 0.42780  0.89890  0.52248  Biso   1.000  C
  C434     1.0000 0.10110  0.52890  0.52248  Biso   1.000  C
  C435     1.0000 0.47110  0.57220  0.52248  Biso   1.000  C
  C436     1.0000 0.89890  0.42780  0.97752  Biso   1.000  C
  C437     1.0000 0.09447  0.23223  0.85581  Biso   1.000  C
  C438     1.0000 0.76777  0.86223  0.85581  Biso   1.000  C
  C439     1.0000 0.13777  0.90553  0.85581  Biso   1.000  C
  C440     1.0000 0.56557  0.76113  0.31085  Biso   1.000  C
  C441     1.0000 0.76113  0.56557  0.18915  Biso   1.000  C
  C442     1.0000 0.23223  0.09447  0.64419  Biso   1.000  C
  C443     1.0000 0.52890  0.10110  0.97752  Biso   1.000  C
  C444     1.0000 0.57220  0.47110  0.97752  Biso   1.000  C
  C445     1.0000 0.43443  0.19557  0.18915  Biso   1.000  C
  C446     1.0000 0.80443  0.23887  0.18915  Biso   1.000  C
  C447     1.0000 0.86223  0.76777  0.64419  Biso   1.000  C
  C448     1.0000 0.90553  0.13777  0.64419  Biso   1.000  C
  C449     1.0000 0.19557  0.43443  0.31085  Biso   1.000  C
  C450     1.0000 0.23887  0.80443  0.31085  Biso   1.000  C
  C451     1.0000 0.57220  0.10110  0.47752  Biso   1.000  C
  C452     1.0000 0.89890  0.47110  0.47752  Biso   1.000  C
  C453     1.0000 0.52890  0.42780  0.47752  Biso   1.000  C
  C454     1.0000 0.10110  0.57220  0.02248  Biso   1.000  C
  C455     1.0000 0.23887  0.43443  0.81085  Biso   1.000  C
  C456     1.0000 0.56557  0.80443  0.81085  Biso   1.000  C
  C457     1.0000 0.19557  0.76113  0.81085  Biso   1.000  C
  C458     1.0000 0.76777  0.90553  0.35581  Biso   1.000  C
  C459     1.0000 0.90553  0.76777  0.14419  Biso   1.000  C
  C460     1.0000 0.43443  0.23887  0.68915  Biso   1.000  C
  C461     1.0000 0.47110  0.89890  0.02248  Biso   1.000  C
  C462     1.0000 0.42780  0.52890  0.02248  Biso   1.000  C
  C463     1.0000 0.23223  0.13777  0.14419  Biso   1.000  C
  C464     1.0000 0.86223  0.09447  0.14419  Biso   1.000  C
  C465     1.0000 0.80443  0.56557  0.68915  Biso   1.000  C
  C466     1.0000 0.76113  0.19557  0.68915  Biso   1.000  C
  C467     1.0000 0.13777  0.23223  0.35581  Biso   1.000  C
  C468     1.0000 0.09447  0.86223  0.35581  Biso   1.000  C
  C469     1.0000 0.40560  0.88210  0.53800  Biso   1.000  C
  C470     1.0000 0.11790  0.52350  0.53800  Biso   1.000  C
  C471     1.0000 0.47650  0.59440  0.53800  Biso   1.000  C
  C472     1.0000 0.88210  0.40560  0.96200  Biso   1.000  C
  C473     1.0000 0.07227  0.21543  0.87133  Biso   1.000  C
  C474     1.0000 0.78457  0.85683  0.87133  Biso   1.000  C
  C475     1.0000 0.14317  0.92773  0.87133  Biso   1.000  C
  C476     1.0000 0.54877  0.73893  0.29533  Biso   1.000  C
  C477     1.0000 0.73893  0.54877  0.20467  Biso   1.000  C
  C478     1.0000 0.21543  0.07227  0.62867  Biso   1.000  C
  C479     1.0000 0.52350  0.11790  0.96200  Biso   1.000  C
  C480     1.0000 0.59440  0.47650  0.96200  Biso   1.000  C
  C481     1.0000 0.45123  0.19017  0.20467  Biso   1.000  C
  C482     1.0000 0.80983  0.26107  0.20467  Biso   1.000  C
  C483     1.0000 0.85683  0.78457  0.62867  Biso   1.000  C
  C484     1.0000 0.92773  0.14317  0.62867  Biso   1.000  C
  C485     1.0000 0.19017  0.45123  0.29533  Biso   1.000  C
  C486     1.0000 0.26107  0.80983  0.29533  Biso   1.000  C
  C487     1.0000 0.59440  0.11790  0.46200  Biso   1.000  C
  C488     1.0000 0.88210  0.47650  0.46200  Biso   1.000  C
  C489     1.0000 0.52350  0.40560  0.46200  Biso   1.000  C
  C490     1.0000 0.11790  0.59440  0.03800  Biso   1.000  C
  C491     1.0000 0.26107  0.45123  0.79533  Biso   1.000  C
  C492     1.0000 0.54877  0.80983  0.79533  Biso   1.000  C
  C493     1.0000 0.19017  0.73893  0.79533  Biso   1.000  C
  C494     1.0000 0.78457  0.92773  0.37133  Biso   1.000  C
  C495     1.0000 0.92773  0.78457  0.12867  Biso   1.000  C
  C496     1.0000 0.45123  0.26107  0.70467  Biso   1.000  C
  C497     1.0000 0.47650  0.88210  0.03800  Biso   1.000  C
  C498     1.0000 0.40560  0.52350  0.03800  Biso   1.000  C
  C499     1.0000 0.21543  0.14317  0.12867  Biso   1.000  C
  C500     1.0000 0.85683  0.07227  0.12867  Biso   1.000  C
  C501     1.0000 0.80983  0.54877  0.70467  Biso   1.000  C
  C502     1.0000 0.73893  0.19017  0.70467  Biso   1.000  C
  C503     1.0000 0.14317  0.21543  0.37133  Biso   1.000  C
  C504     1.0000 0.07227  0.85683  0.37133  Biso   1.000  C
  C505     1.0000 0.46760  0.94820  0.54830  Biso   1.000  C
  C506     1.0000 0.05180  0.51940  0.54830  Biso   1.000  C
  C507     1.0000 0.48060  0.53240  0.54830  Biso   1.000  C
  C508     1.0000 0.94820  0.46760  0.95170  Biso   1.000  C
  C509     1.0000 0.13427  0.28153  0.88163  Biso   1.000  C
  C510     1.0000 0.71847  0.85273  0.88163  Biso   1.000  C
  C511     1.0000 0.14727  0.86573  0.88163  Biso   1.000  C
  C512     1.0000 0.61487  0.80093  0.28503  Biso   1.000  C
  C513     1.0000 0.80093  0.61487  0.21497  Biso   1.000  C
  C514     1.0000 0.28153  0.13427  0.61837  Biso   1.000  C
  C515     1.0000 0.51940  0.05180  0.95170  Biso   1.000  C
  C516     1.0000 0.53240  0.48060  0.95170  Biso   1.000  C
  C517     1.0000 0.38513  0.18607  0.21497  Biso   1.000  C
  C518     1.0000 0.81393  0.19907  0.21497  Biso   1.000  C
  C519     1.0000 0.85273  0.71847  0.61837  Biso   1.000  C
  C520     1.0000 0.86573  0.14727  0.61837  Biso   1.000  C
  C521     1.0000 0.18607  0.38513  0.28503  Biso   1.000  C
  C522     1.0000 0.19907  0.81393  0.28503  Biso   1.000  C
  C523     1.0000 0.53240  0.05180  0.45170  Biso   1.000  C
  C524     1.0000 0.94820  0.48060  0.45170  Biso   1.000  C
  C525     1.0000 0.51940  0.46760  0.45170  Biso   1.000  C
  C526     1.0000 0.05180  0.53240  0.04830  Biso   1.000  C
  C527     1.0000 0.19907  0.38513  0.78503  Biso   1.000  C
  C528     1.0000 0.61487  0.81393  0.78503  Biso   1.000  C
  C529     1.0000 0.18607  0.80093  0.78503  Biso   1.000  C
  C530     1.0000 0.71847  0.86573  0.38163  Biso   1.000  C
  C531     1.0000 0.86573  0.71847  0.11837  Biso   1.000  C
  C532     1.0000 0.38513  0.19907  0.71497  Biso   1.000  C
  C533     1.0000 0.48060  0.94820  0.04830  Biso   1.000  C
  C534     1.0000 0.46760  0.51940  0.04830  Biso   1.000  C
  C535     1.0000 0.28153  0.14727  0.11837  Biso   1.000  C
  C536     1.0000 0.85273  0.13427  0.11837  Biso   1.000  C
  C537     1.0000 0.81393  0.61487  0.71497  Biso   1.000  C
  C538     1.0000 0.80093  0.18607  0.71497  Biso   1.000  C
  C539     1.0000 0.14727  0.28153  0.38163  Biso   1.000  C
  C540     1.0000 0.13427  0.85273  0.38163  Biso   1.000  C
  H289     1.0000 0.52660  0.00600  0.54580  Biso   1.000  H
  H290     1.0000 0.99400  0.52060  0.54580  Biso   1.000  H
  H291     1.0000 0.47940  0.47340  0.54580  Biso   1.000  H
  H292     1.0000 0.00600  0.52660  0.95420  Biso   1.000  H
  H293     1.0000 0.19327  0.33933  0.87913  Biso   1.000  H
  H294     1.0000 0.66067  0.85393  0.87913  Biso   1.000  H
  H295     1.0000 0.14607  0.80673  0.87913  Biso   1.000  H
  H296     1.0000 0.67267  0.85993  0.28753  Biso   1.000  H
  H297     1.0000 0.85993  0.67267  0.21247  Biso   1.000  H
  H298     1.0000 0.33933  0.19327  0.62087  Biso   1.000  H
  H299     1.0000 0.52060  0.99400  0.95420  Biso   1.000  H
  H300     1.0000 0.47340  0.47940  0.95420  Biso   1.000  H
  H301     1.0000 0.32733  0.18727  0.21247  Biso   1.000  H
  H302     1.0000 0.81273  0.14007  0.21247  Biso   1.000  H
  H303     1.0000 0.85393  0.66067  0.62087  Biso   1.000  H
  H304     1.0000 0.80673  0.14607  0.62087  Biso   1.000  H
  H305     1.0000 0.18727  0.32733  0.28753  Biso   1.000  H
  H306     1.0000 0.14007  0.81273  0.28753  Biso   1.000  H
  H307     1.0000 0.47340  0.99400  0.45420  Biso   1.000  H
  H308     1.0000 0.00600  0.47940  0.45420  Biso   1.000  H
  H309     1.0000 0.52060  0.52660  0.45420  Biso   1.000  H
  H310     1.0000 0.99400  0.47340  0.04580  Biso   1.000  H
  H311     1.0000 0.14007  0.32733  0.78753  Biso   1.000  H
  H312     1.0000 0.67267  0.81273  0.78753  Biso   1.000  H
  H313     1.0000 0.18727  0.85993  0.78753  Biso   1.000  H
  H314     1.0000 0.66067  0.80673  0.37913  Biso   1.000  H
  H315     1.0000 0.80673  0.66067  0.12087  Biso   1.000  H
  H316     1.0000 0.32733  0.14007  0.71247  Biso   1.000  H
  H317     1.0000 0.47940  0.00600  0.04580  Biso   1.000  H
  H318     1.0000 0.52660  0.52060  0.04580  Biso   1.000  H
  H319     1.0000 0.33933  0.14607  0.12087  Biso   1.000  H
  H320     1.0000 0.85393  0.19327  0.12087  Biso   1.000  H
  H321     1.0000 0.81273  0.67267  0.71247  Biso   1.000  H
  H322     1.0000 0.85993  0.18727  0.71247  Biso   1.000  H
  H323     1.0000 0.14607  0.33933  0.37913  Biso   1.000  H
  H324     1.0000 0.19327  0.85393  0.37913  Biso   1.000  H
  C541     1.0000 0.44030  0.92680  0.56251  Biso   1.000  C
  C542     1.0000 0.07320  0.51350  0.56251  Biso   1.000  C
  C543     1.0000 0.48650  0.55970  0.56251  Biso   1.000  C
  C544     1.0000 0.92680  0.44030  0.93749  Biso   1.000  C
  C545     1.0000 0.10697  0.26013  0.89584  Biso   1.000  C
  C546     1.0000 0.73987  0.84683  0.89584  Biso   1.000  C
  C547     1.0000 0.15317  0.89303  0.89584  Biso   1.000  C
  C548     1.0000 0.59347  0.77363  0.27082  Biso   1.000  C
  C549     1.0000 0.77363  0.59347  0.22918  Biso   1.000  C
  C550     1.0000 0.26013  0.10697  0.60416  Biso   1.000  C
  C551     1.0000 0.51350  0.07320  0.93749  Biso   1.000  C
  C552     1.0000 0.55970  0.48650  0.93749  Biso   1.000  C
  C553     1.0000 0.40653  0.18017  0.22918  Biso   1.000  C
  C554     1.0000 0.81983  0.22637  0.22918  Biso   1.000  C
  C555     1.0000 0.84683  0.73987  0.60416  Biso   1.000  C
  C556     1.0000 0.89303  0.15317  0.60416  Biso   1.000  C
  C557     1.0000 0.18017  0.40653  0.27082  Biso   1.000  C
  C558     1.0000 0.22637  0.81983  0.27082  Biso   1.000  C
  C559     1.0000 0.55970  0.07320  0.43749  Biso   1.000  C
  C560     1.0000 0.92680  0.48650  0.43749  Biso   1.000  C
  C561     1.0000 0.51350  0.44030  0.43749  Biso   1.000  C
  C562     1.0000 0.07320  0.55970  0.06251  Biso   1.000  C
  C563     1.0000 0.22637  0.40653  0.77082  Biso   1.000  C
  C564     1.0000 0.59347  0.81983  0.77082  Biso   1.000  C
  C565     1.0000 0.18017  0.77363  0.77082  Biso   1.000  C
  C566     1.0000 0.73987  0.89303  0.39584  Biso   1.000  C
  C567     1.0000 0.89303  0.73987  0.10416  Biso   1.000  C
  C568     1.0000 0.40653  0.22637  0.72918  Biso   1.000  C
  C569     1.0000 0.48650  0.92680  0.06251  Biso   1.000  C
  C570     1.0000 0.44030  0.51350  0.06251  Biso   1.000  C
  C571     1.0000 0.26013  0.15317  0.10416  Biso   1.000  C
  C572     1.0000 0.84683  0.10697  0.10416  Biso   1.000  C
  C573     1.0000 0.81983  0.59347  0.72918  Biso   1.000  C
  C574     1.0000 0.77363  0.18017  0.72918  Biso   1.000  C
  C575     1.0000 0.15317  0.26013  0.39584  Biso   1.000  C
  C576     1.0000 0.10697  0.84683  0.39584  Biso   1.000  C
  H325     1.0000 0.48240  0.97210  0.56940  Biso   1.000  H
  H326     1.0000 0.02790  0.51030  0.56940  Biso   1.000  H
  H327     1.0000 0.48970  0.51760  0.56940  Biso   1.000  H
  H328     1.0000 0.97210  0.48240  0.93060  Biso   1.000  H
  H329     1.0000 0.14907  0.30543  0.90273  Biso   1.000  H
  H330     1.0000 0.69457  0.84363  0.90273  Biso   1.000  H
  H331     1.0000 0.15637  0.85093  0.90273  Biso   1.000  H
  H332     1.0000 0.63877  0.81573  0.26393  Biso   1.000  H
  H333     1.0000 0.81573  0.63877  0.23607  Biso   1.000  H
  H334     1.0000 0.30543  0.14907  0.59727  Biso   1.000  H
  H335     1.0000 0.51030  0.02790  0.93060  Biso   1.000  H
  H336     1.0000 0.51760  0.48970  0.93060  Biso   1.000  H
  H337     1.0000 0.36123  0.17697  0.23607  Biso   1.000  H
  H338     1.0000 0.82303  0.18427  0.23607  Biso   1.000  H
  H339     1.0000 0.84363  0.69457  0.59727  Biso   1.000  H
  H340     1.0000 0.85093  0.15637  0.59727  Biso   1.000  H
  H341     1.0000 0.17697  0.36123  0.26393  Biso   1.000  H
  H342     1.0000 0.18427  0.82303  0.26393  Biso   1.000  H
  H343     1.0000 0.51760  0.02790  0.43060  Biso   1.000  H
  H344     1.0000 0.97210  0.48970  0.43060  Biso   1.000  H
  H345     1.0000 0.51030  0.48240  0.43060  Biso   1.000  H
  H346     1.0000 0.02790  0.51760  0.06940  Biso   1.000  H
  H347     1.0000 0.18427  0.36123  0.76393  Biso   1.000  H
  H348     1.0000 0.63877  0.82303  0.76393  Biso   1.000  H
  H349     1.0000 0.17697  0.81573  0.76393  Biso   1.000  H
  H350     1.0000 0.69457  0.85093  0.40273  Biso   1.000  H
  H351     1.0000 0.85093  0.69457  0.09727  Biso   1.000  H
  H352     1.0000 0.36123  0.18427  0.73607  Biso   1.000  H
  H353     1.0000 0.48970  0.97210  0.06940  Biso   1.000  H
  H354     1.0000 0.48240  0.51030  0.06940  Biso   1.000  H
  H355     1.0000 0.30543  0.15637  0.09727  Biso   1.000  H
  H356     1.0000 0.84363  0.14907  0.09727  Biso   1.000  H
  H357     1.0000 0.82303  0.63877  0.73607  Biso   1.000  H
  H358     1.0000 0.81573  0.17697  0.73607  Biso   1.000  H
  H359     1.0000 0.15637  0.30543  0.40273  Biso   1.000  H
  H360     1.0000 0.14907  0.84363  0.40273  Biso   1.000  H
  C577     1.0000 0.29770  0.78090  0.55674  Biso   1.000  C
  C578     1.0000 0.21910  0.51680  0.55674  Biso   1.000  C
  C579     1.0000 0.48320  0.70230  0.55674  Biso   1.000  C
  C580     1.0000 0.78090  0.29770  0.94326  Biso   1.000  C
  C581     1.0000 0.96437  0.11423  0.89007  Biso   1.000  C
  C582     1.0000 0.88577  0.85013  0.89007  Biso   1.000  C
  C583     1.0000 0.14987  0.03563  0.89007  Biso   1.000  C
  C584     1.0000 0.44757  0.63103  0.27659  Biso   1.000  C
  C585     1.0000 0.63103  0.44757  0.22341  Biso   1.000  C
  C586     1.0000 0.11423  0.96437  0.60993  Biso   1.000  C
  C587     1.0000 0.51680  0.21910  0.94326  Biso   1.000  C
  C588     1.0000 0.70230  0.48320  0.94326  Biso   1.000  C
  C589     1.0000 0.55243  0.18347  0.22341  Biso   1.000  C
  C590     1.0000 0.81653  0.36897  0.22341  Biso   1.000  C
  C591     1.0000 0.85013  0.88577  0.60993  Biso   1.000  C
  C592     1.0000 0.03563  0.14987  0.60993  Biso   1.000  C
  C593     1.0000 0.18347  0.55243  0.27659  Biso   1.000  C
  C594     1.0000 0.36897  0.81653  0.27659  Biso   1.000  C
  C595     1.0000 0.70230  0.21910  0.44326  Biso   1.000  C
  C596     1.0000 0.78090  0.48320  0.44326  Biso   1.000  C
  C597     1.0000 0.51680  0.29770  0.44326  Biso   1.000  C
  C598     1.0000 0.21910  0.70230  0.05674  Biso   1.000  C
  C599     1.0000 0.36897  0.55243  0.77659  Biso   1.000  C
  C600     1.0000 0.44757  0.81653  0.77659  Biso   1.000  C
  C601     1.0000 0.18347  0.63103  0.77659  Biso   1.000  C
  C602     1.0000 0.88577  0.03563  0.39007  Biso   1.000  C
  C603     1.0000 0.03563  0.88577  0.10993  Biso   1.000  C
  C604     1.0000 0.55243  0.36897  0.72341  Biso   1.000  C
  C605     1.0000 0.48320  0.78090  0.05674  Biso   1.000  C
  C606     1.0000 0.29770  0.51680  0.05674  Biso   1.000  C
  C607     1.0000 0.11423  0.14987  0.10993  Biso   1.000  C
  C608     1.0000 0.85013  0.96437  0.10993  Biso   1.000  C
  C609     1.0000 0.81653  0.44757  0.72341  Biso   1.000  C
  C610     1.0000 0.63103  0.18347  0.72341  Biso   1.000  C
  C611     1.0000 0.14987  0.11423  0.39007  Biso   1.000  C
  C612     1.0000 0.96437  0.85013  0.39007  Biso   1.000  C
  H361     1.0000 0.23880  0.72380  0.55950  Biso   1.000  H
  H362     1.0000 0.27620  0.51500  0.55950  Biso   1.000  H
  H363     1.0000 0.48500  0.76120  0.55950  Biso   1.000  H
  H364     1.0000 0.72380  0.23880  0.94050  Biso   1.000  H
  H365     1.0000 0.90547  0.05713  0.89283  Biso   1.000  H
  H366     1.0000 0.94287  0.84833  0.89283  Biso   1.000  H
  H367     1.0000 0.15167  0.09453  0.89283  Biso   1.000  H
  H368     1.0000 0.39047  0.57213  0.27383  Biso   1.000  H
  H369     1.0000 0.57213  0.39047  0.22617  Biso   1.000  H
  H370     1.0000 0.05713  0.90547  0.60717  Biso   1.000  H
  H371     1.0000 0.51500  0.27620  0.94050  Biso   1.000  H
  H372     1.0000 0.76120  0.48500  0.94050  Biso   1.000  H
  H373     1.0000 0.60953  0.18167  0.22617  Biso   1.000  H
  H374     1.0000 0.81833  0.42787  0.22617  Biso   1.000  H
  H375     1.0000 0.84833  0.94287  0.60717  Biso   1.000  H
  H376     1.0000 0.09453  0.15167  0.60717  Biso   1.000  H
  H377     1.0000 0.18167  0.60953  0.27383  Biso   1.000  H
  H378     1.0000 0.42787  0.81833  0.27383  Biso   1.000  H
  H379     1.0000 0.76120  0.27620  0.44050  Biso   1.000  H
  H380     1.0000 0.72380  0.48500  0.44050  Biso   1.000  H
  H381     1.0000 0.51500  0.23880  0.44050  Biso   1.000  H
  H382     1.0000 0.27620  0.76120  0.05950  Biso   1.000  H
  H383     1.0000 0.42787  0.60953  0.77383  Biso   1.000  H
  H384     1.0000 0.39047  0.81833  0.77383  Biso   1.000  H
  H385     1.0000 0.18167  0.57213  0.77383  Biso   1.000  H
  H386     1.0000 0.94287  0.09453  0.39283  Biso   1.000  H
  H387     1.0000 0.09453  0.94287  0.10717  Biso   1.000  H
  H388     1.0000 0.60953  0.42787  0.72617  Biso   1.000  H
  H389     1.0000 0.48500  0.72380  0.05950  Biso   1.000  H
  H390     1.0000 0.23880  0.51500  0.05950  Biso   1.000  H
  H391     1.0000 0.05713  0.15167  0.10717  Biso   1.000  H
  H392     1.0000 0.84833  0.90547  0.10717  Biso   1.000  H
  H393     1.0000 0.81833  0.39047  0.72617  Biso   1.000  H
  H394     1.0000 0.57213  0.18167  0.72617  Biso   1.000  H
  H395     1.0000 0.15167  0.05713  0.39283  Biso   1.000  H
  H396     1.0000 0.90547  0.84833  0.39283  Biso   1.000  H
  C613     1.0000 0.31970  0.79540  0.54250  Biso   1.000  C
  C614     1.0000 0.20460  0.52430  0.54250  Biso   1.000  C
  C615     1.0000 0.47570  0.68030  0.54250  Biso   1.000  C
  C616     1.0000 0.79540  0.31970  0.95750  Biso   1.000  C
  C617     1.0000 0.98637  0.12873  0.87583  Biso   1.000  C
  C618     1.0000 0.87127  0.85763  0.87583  Biso   1.000  C
  C619     1.0000 0.14237  0.01363  0.87583  Biso   1.000  C
  C620     1.0000 0.46207  0.65303  0.29083  Biso   1.000  C
  C621     1.0000 0.65303  0.46207  0.20917  Biso   1.000  C
  C622     1.0000 0.12873  0.98637  0.62417  Biso   1.000  C
  C623     1.0000 0.52430  0.20460  0.95750  Biso   1.000  C
  C624     1.0000 0.68030  0.47570  0.95750  Biso   1.000  C
  C625     1.0000 0.53793  0.19097  0.20917  Biso   1.000  C
  C626     1.0000 0.80903  0.34697  0.20917  Biso   1.000  C
  C627     1.0000 0.85763  0.87127  0.62417  Biso   1.000  C
  C628     1.0000 0.01363  0.14237  0.62417  Biso   1.000  C
  C629     1.0000 0.19097  0.53793  0.29083  Biso   1.000  C
  C630     1.0000 0.34697  0.80903  0.29083  Biso   1.000  C
  C631     1.0000 0.68030  0.20460  0.45750  Biso   1.000  C
  C632     1.0000 0.79540  0.47570  0.45750  Biso   1.000  C
  C633     1.0000 0.52430  0.31970  0.45750  Biso   1.000  C
  C634     1.0000 0.20460  0.68030  0.04250  Biso   1.000  C
  C635     1.0000 0.34697  0.53793  0.79083  Biso   1.000  C
  C636     1.0000 0.46207  0.80903  0.79083  Biso   1.000  C
  C637     1.0000 0.19097  0.65303  0.79083  Biso   1.000  C
  C638     1.0000 0.87127  0.01363  0.37583  Biso   1.000  C
  C639     1.0000 0.01363  0.87127  0.12417  Biso   1.000  C
  C640     1.0000 0.53793  0.34697  0.70917  Biso   1.000  C
  C641     1.0000 0.47570  0.79540  0.04250  Biso   1.000  C
  C642     1.0000 0.31970  0.52430  0.04250  Biso   1.000  C
  C643     1.0000 0.12873  0.14237  0.12417  Biso   1.000  C
  C644     1.0000 0.85763  0.98637  0.12417  Biso   1.000  C
  C645     1.0000 0.80903  0.46207  0.70917  Biso   1.000  C
  C646     1.0000 0.65303  0.19097  0.70917  Biso   1.000  C
  C647     1.0000 0.14237  0.12873  0.37583  Biso   1.000  C
  C648     1.0000 0.98637  0.85763  0.37583  Biso   1.000  C
  H397     1.0000 0.27760  0.74780  0.53590  Biso   1.000  H
  H398     1.0000 0.25220  0.52980  0.53590  Biso   1.000  H
  H399     1.0000 0.47020  0.72240  0.53590  Biso   1.000  H
  H400     1.0000 0.74780  0.27760  0.96410  Biso   1.000  H
  H401     1.0000 0.94427  0.08113  0.86923  Biso   1.000  H
  H402     1.0000 0.91887  0.86313  0.86923  Biso   1.000  H
  H403     1.0000 0.13687  0.05573  0.86923  Biso   1.000  H
  H404     1.0000 0.41447  0.61093  0.29743  Biso   1.000  H
  H405     1.0000 0.61093  0.41447  0.20257  Biso   1.000  H
  H406     1.0000 0.08113  0.94427  0.63077  Biso   1.000  H
  H407     1.0000 0.52980  0.25220  0.96410  Biso   1.000  H
  H408     1.0000 0.72240  0.47020  0.96410  Biso   1.000  H
  H409     1.0000 0.58553  0.19647  0.20257  Biso   1.000  H
  H410     1.0000 0.80353  0.38907  0.20257  Biso   1.000  H
  H411     1.0000 0.86313  0.91887  0.63077  Biso   1.000  H
  H412     1.0000 0.05573  0.13687  0.63077  Biso   1.000  H
  H413     1.0000 0.19647  0.58553  0.29743  Biso   1.000  H
  H414     1.0000 0.38907  0.80353  0.29743  Biso   1.000  H
  H415     1.0000 0.72240  0.25220  0.46410  Biso   1.000  H
  H416     1.0000 0.74780  0.47020  0.46410  Biso   1.000  H
  H417     1.0000 0.52980  0.27760  0.46410  Biso   1.000  H
  H418     1.0000 0.25220  0.72240  0.03590  Biso   1.000  H
  H419     1.0000 0.38907  0.58553  0.79743  Biso   1.000  H
  H420     1.0000 0.41447  0.80353  0.79743  Biso   1.000  H
  H421     1.0000 0.19647  0.61093  0.79743  Biso   1.000  H
  H422     1.0000 0.91887  0.05573  0.36923  Biso   1.000  H
  H423     1.0000 0.05573  0.91887  0.13077  Biso   1.000  H
  H424     1.0000 0.58553  0.38907  0.70257  Biso   1.000  H
  H425     1.0000 0.47020  0.74780  0.03590  Biso   1.000  H
  H426     1.0000 0.27760  0.52980  0.03590  Biso   1.000  H
  H427     1.0000 0.08113  0.13687  0.13077  Biso   1.000  H
  H428     1.0000 0.86313  0.94427  0.13077  Biso   1.000  H
  H429     1.0000 0.80353  0.41447  0.70257  Biso   1.000  H
  H430     1.0000 0.61093  0.19647  0.70257  Biso   1.000  H
  H431     1.0000 0.13687  0.08113  0.36923  Biso   1.000  H
  H432     1.0000 0.94427  0.86313  0.36923  Biso   1.000  H
  N1       1.0000 0.47560  0.72830  0.63538  Biso   1.000  N
  N2       1.0000 0.27170  0.74730  0.63538  Biso   1.000  N
  N3       1.0000 0.25270  0.52440  0.63538  Biso   1.000  N
  N4       1.0000 0.72830  0.47560  0.86462  Biso   1.000  N
  N5       1.0000 0.14227  0.06163  0.96871  Biso   1.000  N
  N6       1.0000 0.93837  0.08063  0.96871  Biso   1.000  N
  N7       1.0000 0.91937  0.85773  0.96871  Biso   1.000  N
  N8       1.0000 0.39497  0.80893  0.19795  Biso   1.000  N
  N9       1.0000 0.80893  0.39497  0.30205  Biso   1.000  N
  N10      1.0000 0.06163  0.14227  0.53129  Biso   1.000  N
  N11      1.0000 0.74730  0.27170  0.86462  Biso   1.000  N
  N12      1.0000 0.52440  0.25270  0.86462  Biso   1.000  N
  N13      1.0000 0.60503  0.41397  0.30205  Biso   1.000  N
  N14      1.0000 0.58603  0.19107  0.30205  Biso   1.000  N
  N15      1.0000 0.08063  0.93837  0.53129  Biso   1.000  N
  N16      1.0000 0.85773  0.91937  0.53129  Biso   1.000  N
  N17      1.0000 0.41397  0.60503  0.19795  Biso   1.000  N
  N18      1.0000 0.19107  0.58603  0.19795  Biso   1.000  N
  N19      1.0000 0.52440  0.27170  0.36462  Biso   1.000  N
  N20      1.0000 0.72830  0.25270  0.36462  Biso   1.000  N
  N21      1.0000 0.74730  0.47560  0.36462  Biso   1.000  N
  N22      1.0000 0.27170  0.52440  0.13538  Biso   1.000  N
  N23      1.0000 0.19107  0.60503  0.69795  Biso   1.000  N
  N24      1.0000 0.39497  0.58603  0.69795  Biso   1.000  N
  N25      1.0000 0.41397  0.80893  0.69795  Biso   1.000  N
  N26      1.0000 0.93837  0.85773  0.46871  Biso   1.000  N
  N27      1.0000 0.85773  0.93837  0.03129  Biso   1.000  N
  N28      1.0000 0.60503  0.19107  0.80205  Biso   1.000  N
  N29      1.0000 0.25270  0.72830  0.13538  Biso   1.000  N
  N30      1.0000 0.47560  0.74730  0.13538  Biso   1.000  N
  N31      1.0000 0.06163  0.91937  0.03129  Biso   1.000  N
  N32      1.0000 0.08063  0.14227  0.03129  Biso   1.000  N
  N33      1.0000 0.58603  0.39497  0.80205  Biso   1.000  N
  N34      1.0000 0.80893  0.41397  0.80205  Biso   1.000  N
  N35      1.0000 0.91937  0.06163  0.46871  Biso   1.000  N
  N36      1.0000 0.14227  0.08063  0.46871  Biso   1.000  N
  N37      1.0000 0.39150  0.92460  0.60202  Biso   1.000  N
  N38      1.0000 0.07540  0.46690  0.60202  Biso   1.000  N
  N39      1.0000 0.53310  0.60850  0.60202  Biso   1.000  N
  N40      1.0000 0.92460  0.39150  0.89798  Biso   1.000  N
  N41      1.0000 0.05817  0.25793  0.93535  Biso   1.000  N
  N42      1.0000 0.74207  0.80023  0.93535  Biso   1.000  N
  N43      1.0000 0.19977  0.94183  0.93535  Biso   1.000  N
  N44      1.0000 0.59127  0.72483  0.23131  Biso   1.000  N
  N45      1.0000 0.72483  0.59127  0.26869  Biso   1.000  N
  N46      1.0000 0.25793  0.05817  0.56465  Biso   1.000  N
  N47      1.0000 0.46690  0.07540  0.89798  Biso   1.000  N
  N48      1.0000 0.60850  0.53310  0.89798  Biso   1.000  N
  N49      1.0000 0.40873  0.13357  0.26869  Biso   1.000  N
  N50      1.0000 0.86643  0.27517  0.26869  Biso   1.000  N
  N51      1.0000 0.80023  0.74207  0.56465  Biso   1.000  N
  N52      1.0000 0.94183  0.19977  0.56465  Biso   1.000  N
  N53      1.0000 0.13357  0.40873  0.23131  Biso   1.000  N
  N54      1.0000 0.27517  0.86643  0.23131  Biso   1.000  N
  N55      1.0000 0.60850  0.07540  0.39798  Biso   1.000  N
  N56      1.0000 0.92460  0.53310  0.39798  Biso   1.000  N
  N57      1.0000 0.46690  0.39150  0.39798  Biso   1.000  N
  N58      1.0000 0.07540  0.60850  0.10202  Biso   1.000  N
  N59      1.0000 0.27517  0.40873  0.73131  Biso   1.000  N
  N60      1.0000 0.59127  0.86643  0.73131  Biso   1.000  N
  N61      1.0000 0.13357  0.72483  0.73131  Biso   1.000  N
  N62      1.0000 0.74207  0.94183  0.43535  Biso   1.000  N
  N63      1.0000 0.94183  0.74207  0.06465  Biso   1.000  N
  N64      1.0000 0.40873  0.27517  0.76869  Biso   1.000  N
  N65      1.0000 0.53310  0.92460  0.10202  Biso   1.000  N
  N66      1.0000 0.39150  0.46690  0.10202  Biso   1.000  N
  N67      1.0000 0.25793  0.19977  0.06465  Biso   1.000  N
  N68      1.0000 0.80023  0.05817  0.06465  Biso   1.000  N
  N69      1.0000 0.86643  0.59127  0.76869  Biso   1.000  N
  N70      1.0000 0.72483  0.13357  0.76869  Biso   1.000  N
  N71      1.0000 0.19977  0.25793  0.43535  Biso   1.000  N
  N72      1.0000 0.05817  0.80023  0.43535  Biso   1.000  N
  N73      1.0000 0.35680  0.84480  0.56694  Biso   1.000  N
  N74      1.0000 0.15520  0.51200  0.56694  Biso   1.000  N
  N75      1.0000 0.48800  0.64320  0.56694  Biso   1.000  N
  N76      1.0000 0.84480  0.35680  0.93306  Biso   1.000  N
  N77      1.0000 0.02347  0.17813  0.90027  Biso   1.000  N
  N78      1.0000 0.82187  0.84533  0.90027  Biso   1.000  N
  N79      1.0000 0.15467  0.97653  0.90027  Biso   1.000  N
  N80      1.0000 0.51147  0.69013  0.26639  Biso   1.000  N
  N81      1.0000 0.69013  0.51147  0.23361  Biso   1.000  N
  N82      1.0000 0.17813  0.02347  0.59973  Biso   1.000  N
  N83      1.0000 0.51200  0.15520  0.93306  Biso   1.000  N
  N84      1.0000 0.64320  0.48800  0.93306  Biso   1.000  N
  N85      1.0000 0.48853  0.17867  0.23361  Biso   1.000  N
  N86      1.0000 0.82133  0.30987  0.23361  Biso   1.000  N
  N87      1.0000 0.84533  0.82187  0.59973  Biso   1.000  N
  N88      1.0000 0.97653  0.15467  0.59973  Biso   1.000  N
  N89      1.0000 0.17867  0.48853  0.26639  Biso   1.000  N
  N90      1.0000 0.30987  0.82133  0.26639  Biso   1.000  N
  N91      1.0000 0.64320  0.15520  0.43306  Biso   1.000  N
  N92      1.0000 0.84480  0.48800  0.43306  Biso   1.000  N
  N93      1.0000 0.51200  0.35680  0.43306  Biso   1.000  N
  N94      1.0000 0.15520  0.64320  0.06694  Biso   1.000  N
  N95      1.0000 0.30987  0.48853  0.76639  Biso   1.000  N
  N96      1.0000 0.51147  0.82133  0.76639  Biso   1.000  N
  N97      1.0000 0.17867  0.69013  0.76639  Biso   1.000  N
  N98      1.0000 0.82187  0.97653  0.40027  Biso   1.000  N
  N99      1.0000 0.97653  0.82187  0.09973  Biso   1.000  N
  N100     1.0000 0.48853  0.30987  0.73361  Biso   1.000  N
  N101     1.0000 0.48800  0.84480  0.06694  Biso   1.000  N
  N102     1.0000 0.35680  0.51200  0.06694  Biso   1.000  N
  N103     1.0000 0.17813  0.15467  0.09973  Biso   1.000  N
  N104     1.0000 0.84533  0.02347  0.09973  Biso   1.000  N
  N105     1.0000 0.82133  0.51147  0.73361  Biso   1.000  N
  N106     1.0000 0.69013  0.17867  0.73361  Biso   1.000  N
  N107     1.0000 0.15467  0.17813  0.40027  Biso   1.000  N
  N108     1.0000 0.02347  0.84533  0.40027  Biso   1.000  N
  O19      1.0000 0.76360  0.96170  0.66645  Biso   1.000  O
  O20      1.0000 0.03830  0.80190  0.66645  Biso   1.000  O
  O21      1.0000 0.19810  0.23640  0.66645  Biso   1.000  O
  O22      1.0000 0.96170  0.76360  0.83355  Biso   1.000  O
  O23      1.0000 0.43027  0.29503  0.99978  Biso   1.000  O
  O24      1.0000 0.70497  0.13523  0.99978  Biso   1.000  O
  O25      1.0000 0.86477  0.56973  0.99978  Biso   1.000  O
  O26      1.0000 0.62837  0.09693  0.16688  Biso   1.000  O
  O27      1.0000 0.09693  0.62837  0.33312  Biso   1.000  O
  O28      1.0000 0.29503  0.43027  0.50022  Biso   1.000  O
  O29      1.0000 0.80190  0.03830  0.83355  Biso   1.000  O
  O30      1.0000 0.23640  0.19810  0.83355  Biso   1.000  O
  O31      1.0000 0.37163  0.46857  0.33312  Biso   1.000  O
  O32      1.0000 0.53143  0.90307  0.33312  Biso   1.000  O
  O33      1.0000 0.13523  0.70497  0.50022  Biso   1.000  O
  O34      1.0000 0.56973  0.86477  0.50022  Biso   1.000  O
  O35      1.0000 0.46857  0.37163  0.16688  Biso   1.000  O
  O36      1.0000 0.90307  0.53143  0.16688  Biso   1.000  O
  O37      1.0000 0.23640  0.03830  0.33355  Biso   1.000  O
  O38      1.0000 0.96170  0.19810  0.33355  Biso   1.000  O
  O39      1.0000 0.80190  0.76360  0.33355  Biso   1.000  O
  O40      1.0000 0.03830  0.23640  0.16645  Biso   1.000  O
  O41      1.0000 0.90307  0.37163  0.66688  Biso   1.000  O
  O42      1.0000 0.62837  0.53143  0.66688  Biso   1.000  O
  O43      1.0000 0.46857  0.09693  0.66688  Biso   1.000  O
  O44      1.0000 0.70497  0.56973  0.49978  Biso   1.000  O
  O45      1.0000 0.56973  0.70497  0.00022  Biso   1.000  O
  O46      1.0000 0.37163  0.90307  0.83312  Biso   1.000  O
  O47      1.0000 0.19810  0.96170  0.16645  Biso   1.000  O
  O48      1.0000 0.76360  0.80190  0.16645  Biso   1.000  O
  O49      1.0000 0.29503  0.86477  0.00022  Biso   1.000  O
  O50      1.0000 0.13523  0.43027  0.00022  Biso   1.000  O
  O51      1.0000 0.53143  0.62837  0.83312  Biso   1.000  O
  O52      1.0000 0.09693  0.46857  0.83312  Biso   1.000  O
  O53      1.0000 0.86477  0.29503  0.49978  Biso   1.000  O
  O54      1.0000 0.43027  0.13523  0.49978  Biso   1.000  O
  O55      1.0000 0.75230  0.81330  0.67023  Biso   1.000  O
  O56      1.0000 0.18670  0.93900  0.67023  Biso   1.000  O
  O57      1.0000 0.06100  0.24770  0.67023  Biso   1.000  O
  O58      1.0000 0.81330  0.75230  0.82977  Biso   1.000  O
  O59      1.0000 0.41897  0.14663  0.00356  Biso   1.000  O
  O60      1.0000 0.85337  0.27233  0.00356  Biso   1.000  O
  O61      1.0000 0.72767  0.58103  0.00356  Biso   1.000  O
  O62      1.0000 0.47997  0.08563  0.16310  Biso   1.000  O
  O63      1.0000 0.08563  0.47997  0.33690  Biso   1.000  O
  O64      1.0000 0.14663  0.41897  0.49644  Biso   1.000  O
  O65      1.0000 0.93900  0.18670  0.82977  Biso   1.000  O
  O66      1.0000 0.24770  0.06100  0.82977  Biso   1.000  O
  O67      1.0000 0.52003  0.60567  0.33690  Biso   1.000  O
  O68      1.0000 0.39433  0.91437  0.33690  Biso   1.000  O
  O69      1.0000 0.27233  0.85337  0.49644  Biso   1.000  O
  O70      1.0000 0.58103  0.72767  0.49644  Biso   1.000  O
  O71      1.0000 0.60567  0.52003  0.16310  Biso   1.000  O
  O72      1.0000 0.91437  0.39433  0.16310  Biso   1.000  O
  O73      1.0000 0.24770  0.18670  0.32977  Biso   1.000  O
  O74      1.0000 0.81330  0.06100  0.32977  Biso   1.000  O
  O75      1.0000 0.93900  0.75230  0.32977  Biso   1.000  O
  O76      1.0000 0.18670  0.24770  0.17023  Biso   1.000  O
  O77      1.0000 0.91437  0.52003  0.66310  Biso   1.000  O
  O78      1.0000 0.47997  0.39433  0.66310  Biso   1.000  O
  O79      1.0000 0.60567  0.08563  0.66310  Biso   1.000  O
  O80      1.0000 0.85337  0.58103  0.50356  Biso   1.000  O
  O81      1.0000 0.58103  0.85337  0.99644  Biso   1.000  O
  O82      1.0000 0.52003  0.91437  0.83690  Biso   1.000  O
  O83      1.0000 0.06100  0.81330  0.17023  Biso   1.000  O
  O84      1.0000 0.75230  0.93900  0.17023  Biso   1.000  O
  O85      1.0000 0.14663  0.72767  0.99644  Biso   1.000  O
  O86      1.0000 0.27233  0.41897  0.99644  Biso   1.000  O
  O87      1.0000 0.39433  0.47997  0.83690  Biso   1.000  O
  O88      1.0000 0.08563  0.60567  0.83690  Biso   1.000  O
  O89      1.0000 0.72767  0.14663  0.50356  Biso   1.000  O
  O90      1.0000 0.41897  0.27233  0.50356  Biso   1.000  O
  O91      1.0000 0.56640  0.18980  0.63951  Biso   1.000  O
  O92      1.0000 0.81020  0.37660  0.63951  Biso   1.000  O
  O93      1.0000 0.62340  0.43360  0.63951  Biso   1.000  O
  O94      1.0000 0.18980  0.56640  0.86049  Biso   1.000  O
  O95      1.0000 0.23307  0.52313  0.97284  Biso   1.000  O
  O96      1.0000 0.47687  0.70993  0.97284  Biso   1.000  O
  O97      1.0000 0.29007  0.76693  0.97284  Biso   1.000  O
  O98      1.0000 0.85647  0.89973  0.19382  Biso   1.000  O
  O99      1.0000 0.89973  0.85647  0.30618  Biso   1.000  O
  O100     1.0000 0.52313  0.23307  0.52716  Biso   1.000  O
  O101     1.0000 0.37660  0.81020  0.86049  Biso   1.000  O
  O102     1.0000 0.43360  0.62340  0.86049  Biso   1.000  O
  O103     1.0000 0.14353  0.04327  0.30618  Biso   1.000  O
  O104     1.0000 0.95673  0.10027  0.30618  Biso   1.000  O
  O105     1.0000 0.70993  0.47687  0.52716  Biso   1.000  O
  O106     1.0000 0.76693  0.29007  0.52716  Biso   1.000  O
  O107     1.0000 0.04327  0.14353  0.19382  Biso   1.000  O
  O108     1.0000 0.10027  0.95673  0.19382  Biso   1.000  O
  O109     1.0000 0.43360  0.81020  0.36049  Biso   1.000  O
  O110     1.0000 0.18980  0.62340  0.36049  Biso   1.000  O
  O111     1.0000 0.37660  0.56640  0.36049  Biso   1.000  O
  O112     1.0000 0.81020  0.43360  0.13951  Biso   1.000  O
  O113     1.0000 0.10027  0.14353  0.69382  Biso   1.000  O
  O114     1.0000 0.85647  0.95673  0.69382  Biso   1.000  O
  O115     1.0000 0.04327  0.89973  0.69382  Biso   1.000  O
  O116     1.0000 0.47687  0.76693  0.47284  Biso   1.000  O
  O117     1.0000 0.76693  0.47687  0.02716  Biso   1.000  O
  O118     1.0000 0.14353  0.10027  0.80618  Biso   1.000  O
  O119     1.0000 0.62340  0.18980  0.13951  Biso   1.000  O
  O120     1.0000 0.56640  0.37660  0.13951  Biso   1.000  O
  O121     1.0000 0.52313  0.29007  0.02716  Biso   1.000  O
  O122     1.0000 0.70993  0.23307  0.02716  Biso   1.000  O
  O123     1.0000 0.95673  0.85647  0.80618  Biso   1.000  O
  O124     1.0000 0.89973  0.04327  0.80618  Biso   1.000  O
  O125     1.0000 0.29007  0.52313  0.47284  Biso   1.000  O
  O126     1.0000 0.23307  0.70993  0.47284  Biso   1.000  O
  O127     1.0000 0.67780  0.14660  0.63366  Biso   1.000  O
  O128     1.0000 0.85340  0.53120  0.63366  Biso   1.000  O
  O129     1.0000 0.46880  0.32220  0.63366  Biso   1.000  O
  O130     1.0000 0.14660  0.67780  0.86634  Biso   1.000  O
  O131     1.0000 0.34447  0.47993  0.96699  Biso   1.000  O
  O132     1.0000 0.52007  0.86453  0.96699  Biso   1.000  O
  O133     1.0000 0.13547  0.65553  0.96699  Biso   1.000  O
  O134     1.0000 0.81327  0.01113  0.19967  Biso   1.000  O
  O135     1.0000 0.01113  0.81327  0.30033  Biso   1.000  O
  O136     1.0000 0.47993  0.34447  0.53301  Biso   1.000  O
  O137     1.0000 0.53120  0.85340  0.86634  Biso   1.000  O
  O138     1.0000 0.32220  0.46880  0.86634  Biso   1.000  O
  O139     1.0000 0.18673  0.19787  0.30033  Biso   1.000  O
  O140     1.0000 0.80213  0.98887  0.30033  Biso   1.000  O
  O141     1.0000 0.86453  0.52007  0.53301  Biso   1.000  O
  O142     1.0000 0.65553  0.13547  0.53301  Biso   1.000  O
  O143     1.0000 0.19787  0.18673  0.19967  Biso   1.000  O
  O144     1.0000 0.98887  0.80213  0.19967  Biso   1.000  O
  O145     1.0000 0.32220  0.85340  0.36634  Biso   1.000  O
  O146     1.0000 0.14660  0.46880  0.36634  Biso   1.000  O
  O147     1.0000 0.53120  0.67780  0.36634  Biso   1.000  O
  O148     1.0000 0.85340  0.32220  0.13366  Biso   1.000  O
  O149     1.0000 0.98887  0.18673  0.69967  Biso   1.000  O
  O150     1.0000 0.81327  0.80213  0.69967  Biso   1.000  O
  O151     1.0000 0.19787  0.01113  0.69967  Biso   1.000  O
  O152     1.0000 0.52007  0.65553  0.46699  Biso   1.000  O
  O153     1.0000 0.65553  0.52007  0.03301  Biso   1.000  O
  O154     1.0000 0.18673  0.98887  0.80033  Biso   1.000  O
  O155     1.0000 0.46880  0.14660  0.13366  Biso   1.000  O
  O156     1.0000 0.67780  0.53120  0.13366  Biso   1.000  O
  O157     1.0000 0.47993  0.13547  0.03301  Biso   1.000  O
  O158     1.0000 0.86453  0.34447  0.03301  Biso   1.000  O
  O159     1.0000 0.80213  0.81327  0.80033  Biso   1.000  O
  O160     1.0000 0.01113  0.19787  0.80033  Biso   1.000  O
  O161     1.0000 0.13547  0.47993  0.46699  Biso   1.000  O
  O162     1.0000 0.34447  0.86453  0.46699  Biso   1.000  O
  O163     1.0000 0.47500  0.98620  0.51749  Biso   1.000  O
  O164     1.0000 0.01380  0.48880  0.51749  Biso   1.000  O
  O165     1.0000 0.51120  0.52500  0.51749  Biso   1.000  O
  O166     1.0000 0.98620  0.47500  0.98251  Biso   1.000  O
  O167     1.0000 0.14167  0.31953  0.85082  Biso   1.000  O
  O168     1.0000 0.68047  0.82213  0.85082  Biso   1.000  O
  O169     1.0000 0.17787  0.85833  0.85082  Biso   1.000  O
  O170     1.0000 0.65287  0.80833  0.31584  Biso   1.000  O
  O171     1.0000 0.80833  0.65287  0.18416  Biso   1.000  O
  O172     1.0000 0.31953  0.14167  0.64918  Biso   1.000  O
  O173     1.0000 0.48880  0.01380  0.98251  Biso   1.000  O
  O174     1.0000 0.52500  0.51120  0.98251  Biso   1.000  O
  O175     1.0000 0.34713  0.15547  0.18416  Biso   1.000  O
  O176     1.0000 0.84453  0.19167  0.18416  Biso   1.000  O
  O177     1.0000 0.82213  0.68047  0.64918  Biso   1.000  O
  O178     1.0000 0.85833  0.17787  0.64918  Biso   1.000  O
  O179     1.0000 0.15547  0.34713  0.31584  Biso   1.000  O
  O180     1.0000 0.19167  0.84453  0.31584  Biso   1.000  O
  O181     1.0000 0.52500  0.01380  0.48251  Biso   1.000  O
  O182     1.0000 0.98620  0.51120  0.48251  Biso   1.000  O
  O183     1.0000 0.48880  0.47500  0.48251  Biso   1.000  O
  O184     1.0000 0.01380  0.52500  0.01749  Biso   1.000  O
  O185     1.0000 0.19167  0.34713  0.81584  Biso   1.000  O
  O186     1.0000 0.65287  0.84453  0.81584  Biso   1.000  O
  O187     1.0000 0.15547  0.80833  0.81584  Biso   1.000  O
  O188     1.0000 0.68047  0.85833  0.35082  Biso   1.000  O
  O189     1.0000 0.85833  0.68047  0.14918  Biso   1.000  O
  O190     1.0000 0.34713  0.19167  0.68416  Biso   1.000  O
  O191     1.0000 0.51120  0.98620  0.01749  Biso   1.000  O
  O192     1.0000 0.47500  0.48880  0.01749  Biso   1.000  O
  O193     1.0000 0.31953  0.17787  0.14918  Biso   1.000  O
  O194     1.0000 0.82213  0.14167  0.14918  Biso   1.000  O
  O195     1.0000 0.84453  0.65287  0.68416  Biso   1.000  O
  O196     1.0000 0.80833  0.15547  0.68416  Biso   1.000  O
  O197     1.0000 0.17787  0.31953  0.35082  Biso   1.000  O
  O198     1.0000 0.14167  0.82213  0.35082  Biso   1.000  O
  O199     1.0000 0.39490  0.82230  0.51507  Biso   1.000  O
  O200     1.0000 0.17770  0.57260  0.51507  Biso   1.000  O
  O201     1.0000 0.42740  0.60510  0.51507  Biso   1.000  O
  O202     1.0000 0.82230  0.39490  0.98493  Biso   1.000  O
  O203     1.0000 0.06157  0.15563  0.84840  Biso   1.000  O
  O204     1.0000 0.84437  0.90593  0.84840  Biso   1.000  O
  O205     1.0000 0.09407  0.93843  0.84840  Biso   1.000  O
  O206     1.0000 0.48897  0.72823  0.31826  Biso   1.000  O
  O207     1.0000 0.72823  0.48897  0.18174  Biso   1.000  O
  O208     1.0000 0.15563  0.06157  0.65160  Biso   1.000  O
  O209     1.0000 0.57260  0.17770  0.98493  Biso   1.000  O
  O210     1.0000 0.60510  0.42740  0.98493  Biso   1.000  O
  O211     1.0000 0.51103  0.23927  0.18174  Biso   1.000  O
  O212     1.0000 0.76073  0.27177  0.18174  Biso   1.000  O
  O213     1.0000 0.90593  0.84437  0.65160  Biso   1.000  O
  O214     1.0000 0.93843  0.09407  0.65160  Biso   1.000  O
  O215     1.0000 0.23927  0.51103  0.31826  Biso   1.000  O
  O216     1.0000 0.27177  0.76073  0.31826  Biso   1.000  O
  O217     1.0000 0.60510  0.17770  0.48493  Biso   1.000  O
  O218     1.0000 0.82230  0.42740  0.48493  Biso   1.000  O
  O219     1.0000 0.57260  0.39490  0.48493  Biso   1.000  O
  O220     1.0000 0.17770  0.60510  0.01507  Biso   1.000  O
  O221     1.0000 0.27177  0.51103  0.81826  Biso   1.000  O
  O222     1.0000 0.48897  0.76073  0.81826  Biso   1.000  O
  O223     1.0000 0.23927  0.72823  0.81826  Biso   1.000  O
  O224     1.0000 0.84437  0.93843  0.34840  Biso   1.000  O
  O225     1.0000 0.93843  0.84437  0.15160  Biso   1.000  O
  O226     1.0000 0.51103  0.27177  0.68174  Biso   1.000  O
  O227     1.0000 0.42740  0.82230  0.01507  Biso   1.000  O
  O228     1.0000 0.39490  0.57260  0.01507  Biso   1.000  O
  O229     1.0000 0.15563  0.09407  0.15160  Biso   1.000  O
  O230     1.0000 0.90593  0.06157  0.15160  Biso   1.000  O
  O231     1.0000 0.76073  0.48897  0.68174  Biso   1.000  O
  O232     1.0000 0.72823  0.23927  0.68174  Biso   1.000  O
  O233     1.0000 0.09407  0.15563  0.34840  Biso   1.000  O
  O234     1.0000 0.06157  0.90593  0.34840  Biso   1.000  O
  O235     1.0000 0.00000  0.00000  0.67097  Biso   1.000  O
  O236     1.0000 0.00000  0.00000  0.82903  Biso   1.000  O
  O237     1.0000 0.66667  0.33333  0.00430  Biso   1.000  O
  O238     1.0000 0.66667  0.33333  0.16236  Biso   1.000  O
  O239     1.0000 0.33333  0.66667  0.33764  Biso   1.000  O
  O240     1.0000 0.33333  0.66667  0.49570  Biso   1.000  O
  O241     1.0000 0.00000  0.00000  0.32903  Biso   1.000  O
  O242     1.0000 0.00000  0.00000  0.17097  Biso   1.000  O
  O243     1.0000 0.66667  0.33333  0.66236  Biso   1.000  O
  O244     1.0000 0.66667  0.33333  0.50430  Biso   1.000  O
  O245     1.0000 0.33333  0.66667  0.99570  Biso   1.000  O
  O246     1.0000 0.33333  0.66667  0.83764  Biso   1.000  O
