data_image0
_cell_length_a       15.3029
_cell_length_b       15.3029
_cell_length_c       93.566
_cell_angle_alpha    90
_cell_angle_beta     90
_cell_angle_gamma    120

_symmetry_space_group_name_H-M    "P 1"
_symmetry_int_tables_number       1

loop_
  _symmetry_equiv_pos_as_xyz
  'x, y, z'

loop_
  _atom_site_label
  _atom_site_occupancy
  _atom_site_fract_x
  _atom_site_fract_y
  _atom_site_fract_z
  _atom_site_thermal_displace_type
  _atom_site_B_iso_or_equiv
  _atom_site_type_symbol
  Eu1      1.0000 0.91737  0.09240  0.67765  Biso   1.000  Eu
  Eu2      1.0000 0.90760  0.82497  0.67765  Biso   1.000  Eu
  Eu3      1.0000 0.17503  0.08263  0.67765  Biso   1.000  Eu
  Eu4      1.0000 0.09240  0.91737  0.82235  Biso   1.000  Eu
  Eu5      1.0000 0.58404  0.42573  0.01099  Biso   1.000  Eu
  Eu6      1.0000 0.57427  0.15830  0.01099  Biso   1.000  Eu
  Eu7      1.0000 0.84170  0.41596  0.01099  Biso   1.000  Eu
  Eu8      1.0000 0.75907  0.25070  0.15568  Biso   1.000  Eu
  Eu9      1.0000 0.25070  0.75907  0.34432  Biso   1.000  Eu
  Eu10     1.0000 0.42573  0.58404  0.48901  Biso   1.000  Eu
  Eu11     1.0000 0.82497  0.90760  0.82235  Biso   1.000  Eu
  Eu12     1.0000 0.08263  0.17503  0.82235  Biso   1.000  Eu
  Eu13     1.0000 0.24093  0.49164  0.34432  Biso   1.000  Eu
  Eu14     1.0000 0.50836  0.74930  0.34432  Biso   1.000  Eu
  Eu15     1.0000 0.15830  0.57427  0.48901  Biso   1.000  Eu
  Eu16     1.0000 0.41596  0.84170  0.48901  Biso   1.000  Eu
  Eu17     1.0000 0.49164  0.24093  0.15568  Biso   1.000  Eu
  Eu18     1.0000 0.74930  0.50836  0.15568  Biso   1.000  Eu
  Eu19     1.0000 0.08263  0.90760  0.32235  Biso   1.000  Eu
  Eu20     1.0000 0.09240  0.17503  0.32235  Biso   1.000  Eu
  Eu21     1.0000 0.82497  0.91737  0.32235  Biso   1.000  Eu
  Eu22     1.0000 0.90760  0.08263  0.17765  Biso   1.000  Eu
  Eu23     1.0000 0.74930  0.24093  0.65568  Biso   1.000  Eu
  Eu24     1.0000 0.75907  0.50836  0.65568  Biso   1.000  Eu
  Eu25     1.0000 0.49164  0.25070  0.65568  Biso   1.000  Eu
  Eu26     1.0000 0.57427  0.41596  0.51099  Biso   1.000  Eu
  Eu27     1.0000 0.41596  0.57427  0.98901  Biso   1.000  Eu
  Eu28     1.0000 0.24093  0.74930  0.84432  Biso   1.000  Eu
  Eu29     1.0000 0.17503  0.09240  0.17765  Biso   1.000  Eu
  Eu30     1.0000 0.91737  0.82497  0.17765  Biso   1.000  Eu
  Eu31     1.0000 0.42573  0.84170  0.98901  Biso   1.000  Eu
  Eu32     1.0000 0.15830  0.58404  0.98901  Biso   1.000  Eu
  Eu33     1.0000 0.50836  0.75907  0.84432  Biso   1.000  Eu
  Eu34     1.0000 0.25070  0.49164  0.84432  Biso   1.000  Eu
  Eu35     1.0000 0.84170  0.42573  0.51099  Biso   1.000  Eu
  Eu36     1.0000 0.58404  0.15830  0.51099  Biso   1.000  Eu
  Cu1      1.0000 0.33330  0.66670  0.62586  Biso   1.000  Cu
  Cu2      1.0000 0.66670  0.33330  0.87414  Biso   1.000  Cu
  Cu3      1.0000 0.99997  0.00003  0.95919  Biso   1.000  Cu
  Cu4      1.0000 0.33337  0.66663  0.20747  Biso   1.000  Cu
  Cu5      1.0000 0.66663  0.33337  0.29253  Biso   1.000  Cu
  Cu6      1.0000 0.00003  0.99997  0.54081  Biso   1.000  Cu
  Cu7      1.0000 0.66670  0.33330  0.37414  Biso   1.000  Cu
  Cu8      1.0000 0.33330  0.66670  0.12586  Biso   1.000  Cu
  Cu9      1.0000 0.33337  0.66663  0.70747  Biso   1.000  Cu
  Cu10     1.0000 0.99997  0.00003  0.45919  Biso   1.000  Cu
  Cu11     1.0000 0.00003  0.99997  0.04081  Biso   1.000  Cu
  Cu12     1.0000 0.66663  0.33337  0.79253  Biso   1.000  Cu
  Cu13     1.0000 0.30560  0.82251  0.58712  Biso   1.000  Cu
  Cu14     1.0000 0.17749  0.48309  0.58712  Biso   1.000  Cu
  Cu15     1.0000 0.51691  0.69440  0.58712  Biso   1.000  Cu
  Cu16     1.0000 0.82251  0.30560  0.91288  Biso   1.000  Cu
  Cu17     1.0000 0.97227  0.15584  0.92045  Biso   1.000  Cu
  Cu18     1.0000 0.84416  0.81642  0.92045  Biso   1.000  Cu
  Cu19     1.0000 0.18358  0.02773  0.92045  Biso   1.000  Cu
  Cu20     1.0000 0.48918  0.63893  0.24621  Biso   1.000  Cu
  Cu21     1.0000 0.63893  0.48918  0.25379  Biso   1.000  Cu
  Cu22     1.0000 0.15584  0.97227  0.57955  Biso   1.000  Cu
  Cu23     1.0000 0.48309  0.17749  0.91288  Biso   1.000  Cu
  Cu24     1.0000 0.69440  0.51691  0.91288  Biso   1.000  Cu
  Cu25     1.0000 0.51082  0.14976  0.25379  Biso   1.000  Cu
  Cu26     1.0000 0.85024  0.36107  0.25379  Biso   1.000  Cu
  Cu27     1.0000 0.81642  0.84416  0.57955  Biso   1.000  Cu
  Cu28     1.0000 0.02773  0.18358  0.57955  Biso   1.000  Cu
  Cu29     1.0000 0.14976  0.51082  0.24621  Biso   1.000  Cu
  Cu30     1.0000 0.36107  0.85024  0.24621  Biso   1.000  Cu
  Cu31     1.0000 0.69440  0.17749  0.41288  Biso   1.000  Cu
  Cu32     1.0000 0.82251  0.51691  0.41288  Biso   1.000  Cu
  Cu33     1.0000 0.48309  0.30560  0.41288  Biso   1.000  Cu
  Cu34     1.0000 0.17749  0.69440  0.08712  Biso   1.000  Cu
  Cu35     1.0000 0.36107  0.51082  0.74621  Biso   1.000  Cu
  Cu36     1.0000 0.48918  0.85024  0.74621  Biso   1.000  Cu
  Cu37     1.0000 0.14976  0.63893  0.74621  Biso   1.000  Cu
  Cu38     1.0000 0.84416  0.02773  0.42045  Biso   1.000  Cu
  Cu39     1.0000 0.02773  0.84416  0.07955  Biso   1.000  Cu
  Cu40     1.0000 0.51082  0.36107  0.75379  Biso   1.000  Cu
  Cu41     1.0000 0.51691  0.82251  0.08712  Biso   1.000  Cu
  Cu42     1.0000 0.30560  0.48309  0.08712  Biso   1.000  Cu
  Cu43     1.0000 0.15584  0.18358  0.07955  Biso   1.000  Cu
  Cu44     1.0000 0.81642  0.97227  0.07955  Biso   1.000  Cu
  Cu45     1.0000 0.85024  0.48918  0.75379  Biso   1.000  Cu
  Cu46     1.0000 0.63893  0.14976  0.75379  Biso   1.000  Cu
  Cu47     1.0000 0.18358  0.15584  0.42045  Biso   1.000  Cu
  Cu48     1.0000 0.97227  0.81642  0.42045  Biso   1.000  Cu
  I1       1.0000 0.33330  0.66670  0.59788  Biso   1.000  I
  I2       1.0000 0.66670  0.33330  0.90212  Biso   1.000  I
  I3       1.0000 0.99997  0.00003  0.93121  Biso   1.000  I
  I4       1.0000 0.33337  0.66663  0.23545  Biso   1.000  I
  I5       1.0000 0.66663  0.33337  0.26455  Biso   1.000  I
  I6       1.0000 0.00003  0.99997  0.56879  Biso   1.000  I
  I7       1.0000 0.66670  0.33330  0.40212  Biso   1.000  I
  I8       1.0000 0.33330  0.66670  0.09788  Biso   1.000  I
  I9       1.0000 0.33337  0.66663  0.73545  Biso   1.000  I
  I10      1.0000 0.99997  0.00003  0.43121  Biso   1.000  I
  I11      1.0000 0.00003  0.99997  0.06879  Biso   1.000  I
  I12      1.0000 0.66663  0.33337  0.76455  Biso   1.000  I
  I13      1.0000 0.12092  0.78760  0.58340  Biso   1.000  I
  I14      1.0000 0.21240  0.33332  0.58340  Biso   1.000  I
  I15      1.0000 0.66668  0.87908  0.58340  Biso   1.000  I
  I16      1.0000 0.78760  0.12092  0.91660  Biso   1.000  I
  I17      1.0000 0.87907  0.66665  0.91673  Biso   1.000  I
  I18      1.0000 0.33335  0.21241  0.91673  Biso   1.000  I
  I19      1.0000 0.45427  0.45425  0.24993  Biso   1.000  I
  I20      1.0000 0.54573  0.99999  0.25007  Biso   1.000  I
  I21      1.0000 0.00001  0.54575  0.25007  Biso   1.000  I
  I22      1.0000 0.87908  0.21240  0.41660  Biso   1.000  I
  I23      1.0000 0.78760  0.66668  0.41660  Biso   1.000  I
  I24      1.0000 0.33332  0.12092  0.41660  Biso   1.000  I
  I25      1.0000 0.21240  0.87908  0.08340  Biso   1.000  I
  I26      1.0000 0.54575  0.54573  0.74993  Biso   1.000  I
  I27      1.0000 0.45427  0.00001  0.74993  Biso   1.000  I
  I28      1.0000 0.99999  0.45425  0.74993  Biso   1.000  I
  I29      1.0000 0.66668  0.78760  0.08340  Biso   1.000  I
  I30      1.0000 0.12092  0.33332  0.08340  Biso   1.000  I
  C1       1.0000 0.72980  0.87120  0.66456  Biso   1.000  C
  C2       1.0000 0.12880  0.85860  0.66456  Biso   1.000  C
  C3       1.0000 0.14140  0.27020  0.66456  Biso   1.000  C
  C4       1.0000 0.87120  0.72980  0.83544  Biso   1.000  C
  C5       1.0000 0.39647  0.20453  0.99789  Biso   1.000  C
  C6       1.0000 0.79547  0.19193  0.99789  Biso   1.000  C
  C7       1.0000 0.80807  0.60353  0.99789  Biso   1.000  C
  C8       1.0000 0.53787  0.06313  0.16877  Biso   1.000  C
  C9       1.0000 0.06313  0.53787  0.33123  Biso   1.000  C
  C10      1.0000 0.20453  0.39647  0.50211  Biso   1.000  C
  C11      1.0000 0.85860  0.12880  0.83544  Biso   1.000  C
  C12      1.0000 0.27020  0.14140  0.83544  Biso   1.000  C
  C13      1.0000 0.46213  0.52527  0.33123  Biso   1.000  C
  C14      1.0000 0.47473  0.93687  0.33123  Biso   1.000  C
  C15      1.0000 0.19193  0.79547  0.50211  Biso   1.000  C
  C16      1.0000 0.60353  0.80807  0.50211  Biso   1.000  C
  C17      1.0000 0.52527  0.46213  0.16877  Biso   1.000  C
  C18      1.0000 0.93687  0.47473  0.16877  Biso   1.000  C
  C19      1.0000 0.27020  0.12880  0.33544  Biso   1.000  C
  C20      1.0000 0.87120  0.14140  0.33544  Biso   1.000  C
  C21      1.0000 0.85860  0.72980  0.33544  Biso   1.000  C
  C22      1.0000 0.12880  0.27020  0.16456  Biso   1.000  C
  C23      1.0000 0.93687  0.46213  0.66877  Biso   1.000  C
  C24      1.0000 0.53787  0.47473  0.66877  Biso   1.000  C
  C25      1.0000 0.52527  0.06313  0.66877  Biso   1.000  C
  C26      1.0000 0.79547  0.60353  0.49789  Biso   1.000  C
  C27      1.0000 0.60353  0.79547  0.00211  Biso   1.000  C
  C28      1.0000 0.46213  0.93687  0.83123  Biso   1.000  C
  C29      1.0000 0.14140  0.87120  0.16456  Biso   1.000  C
  C30      1.0000 0.72980  0.85860  0.16456  Biso   1.000  C
  C31      1.0000 0.20453  0.80807  0.00211  Biso   1.000  C
  C32      1.0000 0.19193  0.39647  0.00211  Biso   1.000  C
  C33      1.0000 0.47473  0.53787  0.83123  Biso   1.000  C
  C34      1.0000 0.06313  0.52527  0.83123  Biso   1.000  C
  C35      1.0000 0.80807  0.20453  0.49789  Biso   1.000  C
  C36      1.0000 0.39647  0.19193  0.49789  Biso   1.000  C
  C37      1.0000 0.64260  0.82120  0.65388  Biso   1.000  C
  C38      1.0000 0.17880  0.82140  0.65388  Biso   1.000  C
  C39      1.0000 0.17860  0.35740  0.65388  Biso   1.000  C
  C40      1.0000 0.82120  0.64260  0.84612  Biso   1.000  C
  C41      1.0000 0.30927  0.15453  0.98721  Biso   1.000  C
  C42      1.0000 0.84547  0.15473  0.98721  Biso   1.000  C
  C43      1.0000 0.84527  0.69073  0.98721  Biso   1.000  C
  C44      1.0000 0.48787  0.97593  0.17945  Biso   1.000  C
  C45      1.0000 0.97593  0.48787  0.32055  Biso   1.000  C
  C46      1.0000 0.15453  0.30927  0.51279  Biso   1.000  C
  C47      1.0000 0.82140  0.17880  0.84612  Biso   1.000  C
  C48      1.0000 0.35740  0.17860  0.84612  Biso   1.000  C
  C49      1.0000 0.51213  0.48807  0.32055  Biso   1.000  C
  C50      1.0000 0.51193  0.02407  0.32055  Biso   1.000  C
  C51      1.0000 0.15473  0.84547  0.51279  Biso   1.000  C
  C52      1.0000 0.69073  0.84527  0.51279  Biso   1.000  C
  C53      1.0000 0.48807  0.51213  0.17945  Biso   1.000  C
  C54      1.0000 0.02407  0.51193  0.17945  Biso   1.000  C
  C55      1.0000 0.35740  0.17880  0.34612  Biso   1.000  C
  C56      1.0000 0.82120  0.17860  0.34612  Biso   1.000  C
  C57      1.0000 0.82140  0.64260  0.34612  Biso   1.000  C
  C58      1.0000 0.17880  0.35740  0.15388  Biso   1.000  C
  C59      1.0000 0.02407  0.51213  0.67945  Biso   1.000  C
  C60      1.0000 0.48787  0.51193  0.67945  Biso   1.000  C
  C61      1.0000 0.48807  0.97593  0.67945  Biso   1.000  C
  C62      1.0000 0.84547  0.69073  0.48721  Biso   1.000  C
  C63      1.0000 0.69073  0.84547  0.01279  Biso   1.000  C
  C64      1.0000 0.51213  0.02407  0.82055  Biso   1.000  C
  C65      1.0000 0.17860  0.82120  0.15388  Biso   1.000  C
  C66      1.0000 0.64260  0.82140  0.15388  Biso   1.000  C
  C67      1.0000 0.15453  0.84527  0.01279  Biso   1.000  C
  C68      1.0000 0.15473  0.30927  0.01279  Biso   1.000  C
  C69      1.0000 0.51193  0.48787  0.82055  Biso   1.000  C
  C70      1.0000 0.97593  0.48807  0.82055  Biso   1.000  C
  C71      1.0000 0.84527  0.15453  0.48721  Biso   1.000  C
  C72      1.0000 0.30927  0.15473  0.48721  Biso   1.000  C
  C73      1.0000 0.57690  0.72120  0.65440  Biso   1.000  C
  C74      1.0000 0.27880  0.85570  0.65440  Biso   1.000  C
  C75      1.0000 0.14430  0.42310  0.65440  Biso   1.000  C
  C76      1.0000 0.72120  0.57690  0.84560  Biso   1.000  C
  C77      1.0000 0.24357  0.05453  0.98773  Biso   1.000  C
  C78      1.0000 0.94547  0.18903  0.98773  Biso   1.000  C
  C79      1.0000 0.81097  0.75643  0.98773  Biso   1.000  C
  C80      1.0000 0.38787  0.91023  0.17893  Biso   1.000  C
  C81      1.0000 0.91023  0.38787  0.32107  Biso   1.000  C
  C82      1.0000 0.05453  0.24357  0.51227  Biso   1.000  C
  C83      1.0000 0.85570  0.27880  0.84560  Biso   1.000  C
  C84      1.0000 0.42310  0.14430  0.84560  Biso   1.000  C
  C85      1.0000 0.61213  0.52237  0.32107  Biso   1.000  C
  C86      1.0000 0.47763  0.08977  0.32107  Biso   1.000  C
  C87      1.0000 0.18903  0.94547  0.51227  Biso   1.000  C
  C88      1.0000 0.75643  0.81097  0.51227  Biso   1.000  C
  C89      1.0000 0.52237  0.61213  0.17893  Biso   1.000  C
  C90      1.0000 0.08977  0.47763  0.17893  Biso   1.000  C
  C91      1.0000 0.42310  0.27880  0.34560  Biso   1.000  C
  C92      1.0000 0.72120  0.14430  0.34560  Biso   1.000  C
  C93      1.0000 0.85570  0.57690  0.34560  Biso   1.000  C
  C94      1.0000 0.27880  0.42310  0.15440  Biso   1.000  C
  C95      1.0000 0.08977  0.61213  0.67893  Biso   1.000  C
  C96      1.0000 0.38787  0.47763  0.67893  Biso   1.000  C
  C97      1.0000 0.52237  0.91023  0.67893  Biso   1.000  C
  C98      1.0000 0.94547  0.75643  0.48773  Biso   1.000  C
  C99      1.0000 0.75643  0.94547  0.01227  Biso   1.000  C
  C100     1.0000 0.61213  0.08977  0.82107  Biso   1.000  C
  C101     1.0000 0.14430  0.72120  0.15440  Biso   1.000  C
  C102     1.0000 0.57690  0.85570  0.15440  Biso   1.000  C
  C103     1.0000 0.05453  0.81097  0.01227  Biso   1.000  C
  C104     1.0000 0.18903  0.24357  0.01227  Biso   1.000  C
  C105     1.0000 0.47763  0.38787  0.82107  Biso   1.000  C
  C106     1.0000 0.91023  0.52237  0.82107  Biso   1.000  C
  C107     1.0000 0.81097  0.05453  0.48773  Biso   1.000  C
  C108     1.0000 0.24357  0.18903  0.48773  Biso   1.000  C
  H1       1.0000 0.58710  0.68110  0.66090  Biso   1.000  H
  H2       1.0000 0.31890  0.90600  0.66090  Biso   1.000  H
  H3       1.0000 0.09400  0.41290  0.66090  Biso   1.000  H
  H4       1.0000 0.68110  0.58710  0.83910  Biso   1.000  H
  H5       1.0000 0.25377  0.01443  0.99423  Biso   1.000  H
  H6       1.0000 0.98557  0.23933  0.99423  Biso   1.000  H
  H7       1.0000 0.76067  0.74623  0.99423  Biso   1.000  H
  H8       1.0000 0.34777  0.92043  0.17243  Biso   1.000  H
  H9       1.0000 0.92043  0.34777  0.32757  Biso   1.000  H
  H10      1.0000 0.01443  0.25377  0.50577  Biso   1.000  H
  H11      1.0000 0.90600  0.31890  0.83910  Biso   1.000  H
  H12      1.0000 0.41290  0.09400  0.83910  Biso   1.000  H
  H13      1.0000 0.65223  0.57267  0.32757  Biso   1.000  H
  H14      1.0000 0.42733  0.07957  0.32757  Biso   1.000  H
  H15      1.0000 0.23933  0.98557  0.50577  Biso   1.000  H
  H16      1.0000 0.74623  0.76067  0.50577  Biso   1.000  H
  H17      1.0000 0.57267  0.65223  0.17243  Biso   1.000  H
  H18      1.0000 0.07957  0.42733  0.17243  Biso   1.000  H
  H19      1.0000 0.41290  0.31890  0.33910  Biso   1.000  H
  H20      1.0000 0.68110  0.09400  0.33910  Biso   1.000  H
  H21      1.0000 0.90600  0.58710  0.33910  Biso   1.000  H
  H22      1.0000 0.31890  0.41290  0.16090  Biso   1.000  H
  H23      1.0000 0.07957  0.65223  0.67243  Biso   1.000  H
  H24      1.0000 0.34777  0.42733  0.67243  Biso   1.000  H
  H25      1.0000 0.57267  0.92043  0.67243  Biso   1.000  H
  H26      1.0000 0.98557  0.74623  0.49423  Biso   1.000  H
  H27      1.0000 0.74623  0.98557  0.00577  Biso   1.000  H
  H28      1.0000 0.65223  0.07957  0.82757  Biso   1.000  H
  H29      1.0000 0.09400  0.68110  0.16090  Biso   1.000  H
  H30      1.0000 0.58710  0.90600  0.16090  Biso   1.000  H
  H31      1.0000 0.01443  0.76067  0.00577  Biso   1.000  H
  H32      1.0000 0.23933  0.25377  0.00577  Biso   1.000  H
  H33      1.0000 0.42733  0.34777  0.82757  Biso   1.000  H
  H34      1.0000 0.92043  0.57267  0.82757  Biso   1.000  H
  H35      1.0000 0.76067  0.01443  0.49423  Biso   1.000  H
  H36      1.0000 0.25377  0.23933  0.49423  Biso   1.000  H
  C109     1.0000 0.49650  0.67890  0.64556  Biso   1.000  C
  C110     1.0000 0.32110  0.81760  0.64556  Biso   1.000  C
  C111     1.0000 0.18240  0.50350  0.64556  Biso   1.000  C
  C112     1.0000 0.67890  0.49650  0.85444  Biso   1.000  C
  C113     1.0000 0.16317  0.01223  0.97889  Biso   1.000  C
  C114     1.0000 0.98777  0.15093  0.97889  Biso   1.000  C
  C115     1.0000 0.84907  0.83683  0.97889  Biso   1.000  C
  C116     1.0000 0.34557  0.82983  0.18777  Biso   1.000  C
  C117     1.0000 0.82983  0.34557  0.31223  Biso   1.000  C
  C118     1.0000 0.01223  0.16317  0.52111  Biso   1.000  C
  C119     1.0000 0.81760  0.32110  0.85444  Biso   1.000  C
  C120     1.0000 0.50350  0.18240  0.85444  Biso   1.000  C
  C121     1.0000 0.65443  0.48427  0.31223  Biso   1.000  C
  C122     1.0000 0.51573  0.17017  0.31223  Biso   1.000  C
  C123     1.0000 0.15093  0.98777  0.52111  Biso   1.000  C
  C124     1.0000 0.83683  0.84907  0.52111  Biso   1.000  C
  C125     1.0000 0.48427  0.65443  0.18777  Biso   1.000  C
  C126     1.0000 0.17017  0.51573  0.18777  Biso   1.000  C
  C127     1.0000 0.50350  0.32110  0.35444  Biso   1.000  C
  C128     1.0000 0.67890  0.18240  0.35444  Biso   1.000  C
  C129     1.0000 0.81760  0.49650  0.35444  Biso   1.000  C
  C130     1.0000 0.32110  0.50350  0.14556  Biso   1.000  C
  C131     1.0000 0.17017  0.65443  0.68777  Biso   1.000  C
  C132     1.0000 0.34557  0.51573  0.68777  Biso   1.000  C
  C133     1.0000 0.48427  0.82983  0.68777  Biso   1.000  C
  C134     1.0000 0.98777  0.83683  0.47889  Biso   1.000  C
  C135     1.0000 0.83683  0.98777  0.02111  Biso   1.000  C
  C136     1.0000 0.65443  0.17017  0.81223  Biso   1.000  C
  C137     1.0000 0.18240  0.67890  0.14556  Biso   1.000  C
  C138     1.0000 0.49650  0.81760  0.14556  Biso   1.000  C
  C139     1.0000 0.01223  0.84907  0.02111  Biso   1.000  C
  C140     1.0000 0.15093  0.16317  0.02111  Biso   1.000  C
  C141     1.0000 0.51573  0.34557  0.81223  Biso   1.000  C
  C142     1.0000 0.82983  0.48427  0.81223  Biso   1.000  C
  C143     1.0000 0.84907  0.01223  0.47889  Biso   1.000  C
  C144     1.0000 0.16317  0.15093  0.47889  Biso   1.000  C
  H37      1.0000 0.45210  0.61000  0.64650  Biso   1.000  H
  H38      1.0000 0.39000  0.84210  0.64650  Biso   1.000  H
  H39      1.0000 0.15790  0.54790  0.64650  Biso   1.000  H
  H40      1.0000 0.61000  0.45210  0.85350  Biso   1.000  H
  H41      1.0000 0.11877  0.94333  0.97983  Biso   1.000  H
  H42      1.0000 0.05667  0.17543  0.97983  Biso   1.000  H
  H43      1.0000 0.82457  0.88123  0.97983  Biso   1.000  H
  H44      1.0000 0.27667  0.78543  0.18683  Biso   1.000  H
  H45      1.0000 0.78543  0.27667  0.31317  Biso   1.000  H
  H46      1.0000 0.94333  0.11877  0.52017  Biso   1.000  H
  H47      1.0000 0.84210  0.39000  0.85350  Biso   1.000  H
  H48      1.0000 0.54790  0.15790  0.85350  Biso   1.000  H
  H49      1.0000 0.72333  0.50877  0.31317  Biso   1.000  H
  H50      1.0000 0.49123  0.21457  0.31317  Biso   1.000  H
  H51      1.0000 0.17543  0.05667  0.52017  Biso   1.000  H
  H52      1.0000 0.88123  0.82457  0.52017  Biso   1.000  H
  H53      1.0000 0.50877  0.72333  0.18683  Biso   1.000  H
  H54      1.0000 0.21457  0.49123  0.18683  Biso   1.000  H
  H55      1.0000 0.54790  0.39000  0.35350  Biso   1.000  H
  H56      1.0000 0.61000  0.15790  0.35350  Biso   1.000  H
  H57      1.0000 0.84210  0.45210  0.35350  Biso   1.000  H
  H58      1.0000 0.39000  0.54790  0.14650  Biso   1.000  H
  H59      1.0000 0.21457  0.72333  0.68683  Biso   1.000  H
  H60      1.0000 0.27667  0.49123  0.68683  Biso   1.000  H
  H61      1.0000 0.50877  0.78543  0.68683  Biso   1.000  H
  H62      1.0000 0.05667  0.88123  0.47983  Biso   1.000  H
  H63      1.0000 0.88123  0.05667  0.02017  Biso   1.000  H
  H64      1.0000 0.72333  0.21457  0.81317  Biso   1.000  H
  H65      1.0000 0.15790  0.61000  0.14650  Biso   1.000  H
  H66      1.0000 0.45210  0.84210  0.14650  Biso   1.000  H
  H67      1.0000 0.94333  0.82457  0.02017  Biso   1.000  H
  H68      1.0000 0.17543  0.11877  0.02017  Biso   1.000  H
  H69      1.0000 0.49123  0.27667  0.81317  Biso   1.000  H
  H70      1.0000 0.78543  0.50877  0.81317  Biso   1.000  H
  H71      1.0000 0.82457  0.94333  0.47983  Biso   1.000  H
  H72      1.0000 0.11877  0.17543  0.47983  Biso   1.000  H
  C145     1.0000 0.54620  0.82870  0.63447  Biso   1.000  C
  C146     1.0000 0.17130  0.71750  0.63447  Biso   1.000  C
  C147     1.0000 0.28250  0.45380  0.63447  Biso   1.000  C
  C148     1.0000 0.82870  0.54620  0.86553  Biso   1.000  C
  C149     1.0000 0.21287  0.16203  0.96780  Biso   1.000  C
  C150     1.0000 0.83797  0.05083  0.96780  Biso   1.000  C
  C151     1.0000 0.94917  0.78713  0.96780  Biso   1.000  C
  C152     1.0000 0.49537  0.87953  0.19886  Biso   1.000  C
  C153     1.0000 0.87953  0.49537  0.30114  Biso   1.000  C
  C154     1.0000 0.16203  0.21287  0.53220  Biso   1.000  C
  C155     1.0000 0.71750  0.17130  0.86553  Biso   1.000  C
  C156     1.0000 0.45380  0.28250  0.86553  Biso   1.000  C
  C157     1.0000 0.50463  0.38417  0.30114  Biso   1.000  C
  C158     1.0000 0.61583  0.12047  0.30114  Biso   1.000  C
  C159     1.0000 0.05083  0.83797  0.53220  Biso   1.000  C
  C160     1.0000 0.78713  0.94917  0.53220  Biso   1.000  C
  C161     1.0000 0.38417  0.50463  0.19886  Biso   1.000  C
  C162     1.0000 0.12047  0.61583  0.19886  Biso   1.000  C
  C163     1.0000 0.45380  0.17130  0.36553  Biso   1.000  C
  C164     1.0000 0.82870  0.28250  0.36553  Biso   1.000  C
  C165     1.0000 0.71750  0.54620  0.36553  Biso   1.000  C
  C166     1.0000 0.17130  0.45380  0.13447  Biso   1.000  C
  C167     1.0000 0.12047  0.50463  0.69886  Biso   1.000  C
  C168     1.0000 0.49537  0.61583  0.69886  Biso   1.000  C
  C169     1.0000 0.38417  0.87953  0.69886  Biso   1.000  C
  C170     1.0000 0.83797  0.78713  0.46780  Biso   1.000  C
  C171     1.0000 0.78713  0.83797  0.03220  Biso   1.000  C
  C172     1.0000 0.50463  0.12047  0.80114  Biso   1.000  C
  C173     1.0000 0.28250  0.82870  0.13447  Biso   1.000  C
  C174     1.0000 0.54620  0.71750  0.13447  Biso   1.000  C
  C175     1.0000 0.16203  0.94917  0.03220  Biso   1.000  C
  C176     1.0000 0.05083  0.21287  0.03220  Biso   1.000  C
  C177     1.0000 0.61583  0.49537  0.80114  Biso   1.000  C
  C178     1.0000 0.87953  0.38417  0.80114  Biso   1.000  C
  C179     1.0000 0.94917  0.16203  0.46780  Biso   1.000  C
  C180     1.0000 0.21287  0.05083  0.46780  Biso   1.000  C
  H73      1.0000 0.53940  0.86570  0.62710  Biso   1.000  H
  H74      1.0000 0.13430  0.67370  0.62710  Biso   1.000  H
  H75      1.0000 0.32630  0.46060  0.62710  Biso   1.000  H
  H76      1.0000 0.86570  0.53940  0.87290  Biso   1.000  H
  H77      1.0000 0.20607  0.19903  0.96043  Biso   1.000  H
  H78      1.0000 0.80097  0.00703  0.96043  Biso   1.000  H
  H79      1.0000 0.99297  0.79393  0.96043  Biso   1.000  H
  H80      1.0000 0.53237  0.87273  0.20623  Biso   1.000  H
  H81      1.0000 0.87273  0.53237  0.29377  Biso   1.000  H
  H82      1.0000 0.19903  0.20607  0.53957  Biso   1.000  H
  H83      1.0000 0.67370  0.13430  0.87290  Biso   1.000  H
  H84      1.0000 0.46060  0.32630  0.87290  Biso   1.000  H
  H85      1.0000 0.46763  0.34037  0.29377  Biso   1.000  H
  H86      1.0000 0.65963  0.12727  0.29377  Biso   1.000  H
  H87      1.0000 0.00703  0.80097  0.53957  Biso   1.000  H
  H88      1.0000 0.79393  0.99297  0.53957  Biso   1.000  H
  H89      1.0000 0.34037  0.46763  0.20623  Biso   1.000  H
  H90      1.0000 0.12727  0.65963  0.20623  Biso   1.000  H
  H91      1.0000 0.46060  0.13430  0.37290  Biso   1.000  H
  H92      1.0000 0.86570  0.32630  0.37290  Biso   1.000  H
  H93      1.0000 0.67370  0.53940  0.37290  Biso   1.000  H
  H94      1.0000 0.13430  0.46060  0.12710  Biso   1.000  H
  H95      1.0000 0.12727  0.46763  0.70623  Biso   1.000  H
  H96      1.0000 0.53237  0.65963  0.70623  Biso   1.000  H
  H97      1.0000 0.34037  0.87273  0.70623  Biso   1.000  H
  H98      1.0000 0.80097  0.79393  0.46043  Biso   1.000  H
  H99      1.0000 0.79393  0.80097  0.03957  Biso   1.000  H
  H100     1.0000 0.46763  0.12727  0.79377  Biso   1.000  H
  H101     1.0000 0.32630  0.86570  0.12710  Biso   1.000  H
  H102     1.0000 0.53940  0.67370  0.12710  Biso   1.000  H
  H103     1.0000 0.19903  0.99297  0.03957  Biso   1.000  H
  H104     1.0000 0.00703  0.20607  0.03957  Biso   1.000  H
  H105     1.0000 0.65963  0.53237  0.79377  Biso   1.000  H
  H106     1.0000 0.87273  0.34037  0.79377  Biso   1.000  H
  H107     1.0000 0.99297  0.19903  0.46043  Biso   1.000  H
  H108     1.0000 0.20607  0.00703  0.46043  Biso   1.000  H
  C181     1.0000 0.62560  0.87650  0.64356  Biso   1.000  C
  C182     1.0000 0.12350  0.74910  0.64356  Biso   1.000  C
  C183     1.0000 0.25090  0.37440  0.64356  Biso   1.000  C
  C184     1.0000 0.87650  0.62560  0.85644  Biso   1.000  C
  C185     1.0000 0.29227  0.20983  0.97689  Biso   1.000  C
  C186     1.0000 0.79017  0.08243  0.97689  Biso   1.000  C
  C187     1.0000 0.91757  0.70773  0.97689  Biso   1.000  C
  C188     1.0000 0.54317  0.95893  0.18977  Biso   1.000  C
  C189     1.0000 0.95893  0.54317  0.31023  Biso   1.000  C
  C190     1.0000 0.20983  0.29227  0.52311  Biso   1.000  C
  C191     1.0000 0.74910  0.12350  0.85644  Biso   1.000  C
  C192     1.0000 0.37440  0.25090  0.85644  Biso   1.000  C
  C193     1.0000 0.45683  0.41577  0.31023  Biso   1.000  C
  C194     1.0000 0.58423  0.04107  0.31023  Biso   1.000  C
  C195     1.0000 0.08243  0.79017  0.52311  Biso   1.000  C
  C196     1.0000 0.70773  0.91757  0.52311  Biso   1.000  C
  C197     1.0000 0.41577  0.45683  0.18977  Biso   1.000  C
  C198     1.0000 0.04107  0.58423  0.18977  Biso   1.000  C
  C199     1.0000 0.37440  0.12350  0.35644  Biso   1.000  C
  C200     1.0000 0.87650  0.25090  0.35644  Biso   1.000  C
  C201     1.0000 0.74910  0.62560  0.35644  Biso   1.000  C
  C202     1.0000 0.12350  0.37440  0.14356  Biso   1.000  C
  C203     1.0000 0.04107  0.45683  0.68977  Biso   1.000  C
  C204     1.0000 0.54317  0.58423  0.68977  Biso   1.000  C
  C205     1.0000 0.41577  0.95893  0.68977  Biso   1.000  C
  C206     1.0000 0.79017  0.70773  0.47689  Biso   1.000  C
  C207     1.0000 0.70773  0.79017  0.02311  Biso   1.000  C
  C208     1.0000 0.45683  0.04107  0.81023  Biso   1.000  C
  C209     1.0000 0.25090  0.87650  0.14356  Biso   1.000  C
  C210     1.0000 0.62560  0.74910  0.14356  Biso   1.000  C
  C211     1.0000 0.20983  0.91757  0.02311  Biso   1.000  C
  C212     1.0000 0.08243  0.29227  0.02311  Biso   1.000  C
  C213     1.0000 0.58423  0.54317  0.81023  Biso   1.000  C
  C214     1.0000 0.95893  0.41577  0.81023  Biso   1.000  C
  C215     1.0000 0.91757  0.20983  0.47689  Biso   1.000  C
  C216     1.0000 0.29227  0.08243  0.47689  Biso   1.000  C
  H109     1.0000 0.66840  0.94590  0.64290  Biso   1.000  H
  H110     1.0000 0.05410  0.72250  0.64290  Biso   1.000  H
  H111     1.0000 0.27750  0.33160  0.64290  Biso   1.000  H
  H112     1.0000 0.94590  0.66840  0.85710  Biso   1.000  H
  H113     1.0000 0.33507  0.27923  0.97623  Biso   1.000  H
  H114     1.0000 0.72077  0.05583  0.97623  Biso   1.000  H
  H115     1.0000 0.94417  0.66493  0.97623  Biso   1.000  H
  H116     1.0000 0.61257  0.00173  0.19043  Biso   1.000  H
  H117     1.0000 0.00173  0.61257  0.30957  Biso   1.000  H
  H118     1.0000 0.27923  0.33507  0.52377  Biso   1.000  H
  H119     1.0000 0.72250  0.05410  0.85710  Biso   1.000  H
  H120     1.0000 0.33160  0.27750  0.85710  Biso   1.000  H
  H121     1.0000 0.38743  0.38917  0.30957  Biso   1.000  H
  H122     1.0000 0.61083  0.99827  0.30957  Biso   1.000  H
  H123     1.0000 0.05583  0.72077  0.52377  Biso   1.000  H
  H124     1.0000 0.66493  0.94417  0.52377  Biso   1.000  H
  H125     1.0000 0.38917  0.38743  0.19043  Biso   1.000  H
  H126     1.0000 0.99827  0.61083  0.19043  Biso   1.000  H
  H127     1.0000 0.33160  0.05410  0.35710  Biso   1.000  H
  H128     1.0000 0.94590  0.27750  0.35710  Biso   1.000  H
  H129     1.0000 0.72250  0.66840  0.35710  Biso   1.000  H
  H130     1.0000 0.05410  0.33160  0.14290  Biso   1.000  H
  H131     1.0000 0.99827  0.38743  0.69043  Biso   1.000  H
  H132     1.0000 0.61257  0.61083  0.69043  Biso   1.000  H
  H133     1.0000 0.38917  0.00173  0.69043  Biso   1.000  H
  H134     1.0000 0.72077  0.66493  0.47623  Biso   1.000  H
  H135     1.0000 0.66493  0.72077  0.02377  Biso   1.000  H
  H136     1.0000 0.38743  0.99827  0.80957  Biso   1.000  H
  H137     1.0000 0.27750  0.94590  0.14290  Biso   1.000  H
  H138     1.0000 0.66840  0.72250  0.14290  Biso   1.000  H
  H139     1.0000 0.27923  0.94417  0.02377  Biso   1.000  H
  H140     1.0000 0.05583  0.33507  0.02377  Biso   1.000  H
  H141     1.0000 0.61083  0.61257  0.80957  Biso   1.000  H
  H142     1.0000 0.00173  0.38917  0.80957  Biso   1.000  H
  H143     1.0000 0.94417  0.27923  0.47623  Biso   1.000  H
  H144     1.0000 0.33507  0.05583  0.47623  Biso   1.000  H
  C217     1.0000 0.59210  0.14060  0.63204  Biso   1.000  C
  C218     1.0000 0.85940  0.45150  0.63204  Biso   1.000  C
  C219     1.0000 0.54850  0.40790  0.63204  Biso   1.000  C
  C220     1.0000 0.14060  0.59210  0.86796  Biso   1.000  C
  C221     1.0000 0.25877  0.47393  0.96537  Biso   1.000  C
  C222     1.0000 0.52607  0.78483  0.96537  Biso   1.000  C
  C223     1.0000 0.21517  0.74123  0.96537  Biso   1.000  C
  C224     1.0000 0.80727  0.92543  0.20129  Biso   1.000  C
  C225     1.0000 0.92543  0.80727  0.29871  Biso   1.000  C
  C226     1.0000 0.47393  0.25877  0.53463  Biso   1.000  C
  C227     1.0000 0.45150  0.85940  0.86796  Biso   1.000  C
  C228     1.0000 0.40790  0.54850  0.86796  Biso   1.000  C
  C229     1.0000 0.19273  0.11817  0.29871  Biso   1.000  C
  C230     1.0000 0.88183  0.07457  0.29871  Biso   1.000  C
  C231     1.0000 0.78483  0.52607  0.53463  Biso   1.000  C
  C232     1.0000 0.74123  0.21517  0.53463  Biso   1.000  C
  C233     1.0000 0.11817  0.19273  0.20129  Biso   1.000  C
  C234     1.0000 0.07457  0.88183  0.20129  Biso   1.000  C
  C235     1.0000 0.40790  0.85940  0.36796  Biso   1.000  C
  C236     1.0000 0.14060  0.54850  0.36796  Biso   1.000  C
  C237     1.0000 0.45150  0.59210  0.36796  Biso   1.000  C
  C238     1.0000 0.85940  0.40790  0.13204  Biso   1.000  C
  C239     1.0000 0.07457  0.19273  0.70129  Biso   1.000  C
  C240     1.0000 0.80727  0.88183  0.70129  Biso   1.000  C
  C241     1.0000 0.11817  0.92543  0.70129  Biso   1.000  C
  C242     1.0000 0.52607  0.74123  0.46537  Biso   1.000  C
  C243     1.0000 0.74123  0.52607  0.03463  Biso   1.000  C
  C244     1.0000 0.19273  0.07457  0.79871  Biso   1.000  C
  C245     1.0000 0.54850  0.14060  0.13204  Biso   1.000  C
  C246     1.0000 0.59210  0.45150  0.13204  Biso   1.000  C
  C247     1.0000 0.47393  0.21517  0.03463  Biso   1.000  C
  C248     1.0000 0.78483  0.25877  0.03463  Biso   1.000  C
  C249     1.0000 0.88183  0.80727  0.79871  Biso   1.000  C
  C250     1.0000 0.92543  0.11817  0.79871  Biso   1.000  C
  C251     1.0000 0.21517  0.47393  0.46537  Biso   1.000  C
  C252     1.0000 0.25877  0.78483  0.46537  Biso   1.000  C
  C253     1.0000 0.52250  0.06630  0.62148  Biso   1.000  C
  C254     1.0000 0.93370  0.45620  0.62148  Biso   1.000  C
  C255     1.0000 0.54380  0.47750  0.62148  Biso   1.000  C
  C256     1.0000 0.06630  0.52250  0.87852  Biso   1.000  C
  C257     1.0000 0.18917  0.39963  0.95481  Biso   1.000  C
  C258     1.0000 0.60037  0.78953  0.95481  Biso   1.000  C
  C259     1.0000 0.21047  0.81083  0.95481  Biso   1.000  C
  C260     1.0000 0.73297  0.85583  0.21185  Biso   1.000  C
  C261     1.0000 0.85583  0.73297  0.28815  Biso   1.000  C
  C262     1.0000 0.39963  0.18917  0.54519  Biso   1.000  C
  C263     1.0000 0.45620  0.93370  0.87852  Biso   1.000  C
  C264     1.0000 0.47750  0.54380  0.87852  Biso   1.000  C
  C265     1.0000 0.26703  0.12287  0.28815  Biso   1.000  C
  C266     1.0000 0.87713  0.14417  0.28815  Biso   1.000  C
  C267     1.0000 0.78953  0.60037  0.54519  Biso   1.000  C
  C268     1.0000 0.81083  0.21047  0.54519  Biso   1.000  C
  C269     1.0000 0.12287  0.26703  0.21185  Biso   1.000  C
  C270     1.0000 0.14417  0.87713  0.21185  Biso   1.000  C
  C271     1.0000 0.47750  0.93370  0.37852  Biso   1.000  C
  C272     1.0000 0.06630  0.54380  0.37852  Biso   1.000  C
  C273     1.0000 0.45620  0.52250  0.37852  Biso   1.000  C
  C274     1.0000 0.93370  0.47750  0.12148  Biso   1.000  C
  C275     1.0000 0.14417  0.26703  0.71185  Biso   1.000  C
  C276     1.0000 0.73297  0.87713  0.71185  Biso   1.000  C
  C277     1.0000 0.12287  0.85583  0.71185  Biso   1.000  C
  C278     1.0000 0.60037  0.81083  0.45481  Biso   1.000  C
  C279     1.0000 0.81083  0.60037  0.04519  Biso   1.000  C
  C280     1.0000 0.26703  0.14417  0.78815  Biso   1.000  C
  C281     1.0000 0.54380  0.06630  0.12148  Biso   1.000  C
  C282     1.0000 0.52250  0.45620  0.12148  Biso   1.000  C
  C283     1.0000 0.39963  0.21047  0.04519  Biso   1.000  C
  C284     1.0000 0.78953  0.18917  0.04519  Biso   1.000  C
  C285     1.0000 0.87713  0.73297  0.78815  Biso   1.000  C
  C286     1.0000 0.85583  0.12287  0.78815  Biso   1.000  C
  C287     1.0000 0.21047  0.39963  0.45481  Biso   1.000  C
  C288     1.0000 0.18917  0.78953  0.45481  Biso   1.000  C
  C289     1.0000 0.42010  0.02650  0.62246  Biso   1.000  C
  C290     1.0000 0.97350  0.39360  0.62246  Biso   1.000  C
  C291     1.0000 0.60640  0.57990  0.62246  Biso   1.000  C
  C292     1.0000 0.02650  0.42010  0.87754  Biso   1.000  C
  C293     1.0000 0.08677  0.35983  0.95579  Biso   1.000  C
  C294     1.0000 0.64017  0.72693  0.95579  Biso   1.000  C
  C295     1.0000 0.27307  0.91323  0.95579  Biso   1.000  C
  C296     1.0000 0.69317  0.75343  0.21087  Biso   1.000  C
  C297     1.0000 0.75343  0.69317  0.28913  Biso   1.000  C
  C298     1.0000 0.35983  0.08677  0.54421  Biso   1.000  C
  C299     1.0000 0.39360  0.97350  0.87754  Biso   1.000  C
  C300     1.0000 0.57990  0.60640  0.87754  Biso   1.000  C
  C301     1.0000 0.30683  0.06027  0.28913  Biso   1.000  C
  C302     1.0000 0.93973  0.24657  0.28913  Biso   1.000  C
  C303     1.0000 0.72693  0.64017  0.54421  Biso   1.000  C
  C304     1.0000 0.91323  0.27307  0.54421  Biso   1.000  C
  C305     1.0000 0.06027  0.30683  0.21087  Biso   1.000  C
  C306     1.0000 0.24657  0.93973  0.21087  Biso   1.000  C
  C307     1.0000 0.57990  0.97350  0.37754  Biso   1.000  C
  C308     1.0000 0.02650  0.60640  0.37754  Biso   1.000  C
  C309     1.0000 0.39360  0.42010  0.37754  Biso   1.000  C
  C310     1.0000 0.97350  0.57990  0.12246  Biso   1.000  C
  C311     1.0000 0.24657  0.30683  0.71087  Biso   1.000  C
  C312     1.0000 0.69317  0.93973  0.71087  Biso   1.000  C
  C313     1.0000 0.06027  0.75343  0.71087  Biso   1.000  C
  C314     1.0000 0.64017  0.91323  0.45579  Biso   1.000  C
  C315     1.0000 0.91323  0.64017  0.04421  Biso   1.000  C
  C316     1.0000 0.30683  0.24657  0.78913  Biso   1.000  C
  C317     1.0000 0.60640  0.02650  0.12246  Biso   1.000  C
  C318     1.0000 0.42010  0.39360  0.12246  Biso   1.000  C
  C319     1.0000 0.35983  0.27307  0.04421  Biso   1.000  C
  C320     1.0000 0.72693  0.08677  0.04421  Biso   1.000  C
  C321     1.0000 0.93973  0.69317  0.78913  Biso   1.000  C
  C322     1.0000 0.75343  0.06027  0.78913  Biso   1.000  C
  C323     1.0000 0.27307  0.35983  0.45579  Biso   1.000  C
  C324     1.0000 0.08677  0.72693  0.45579  Biso   1.000  C
  H145     1.0000 0.39300  0.04690  0.62980  Biso   1.000  H
  H146     1.0000 0.95310  0.34610  0.62980  Biso   1.000  H
  H147     1.0000 0.65390  0.60700  0.62980  Biso   1.000  H
  H148     1.0000 0.04690  0.39300  0.87020  Biso   1.000  H
  H149     1.0000 0.05967  0.38023  0.96313  Biso   1.000  H
  H150     1.0000 0.61977  0.67943  0.96313  Biso   1.000  H
  H151     1.0000 0.32057  0.94033  0.96313  Biso   1.000  H
  H152     1.0000 0.71357  0.72633  0.20353  Biso   1.000  H
  H153     1.0000 0.72633  0.71357  0.29647  Biso   1.000  H
  H154     1.0000 0.38023  0.05967  0.53687  Biso   1.000  H
  H155     1.0000 0.34610  0.95310  0.87020  Biso   1.000  H
  H156     1.0000 0.60700  0.65390  0.87020  Biso   1.000  H
  H157     1.0000 0.28643  0.01277  0.29647  Biso   1.000  H
  H158     1.0000 0.98723  0.27367  0.29647  Biso   1.000  H
  H159     1.0000 0.67943  0.61977  0.53687  Biso   1.000  H
  H160     1.0000 0.94033  0.32057  0.53687  Biso   1.000  H
  H161     1.0000 0.01277  0.28643  0.20353  Biso   1.000  H
  H162     1.0000 0.27367  0.98723  0.20353  Biso   1.000  H
  H163     1.0000 0.60700  0.95310  0.37020  Biso   1.000  H
  H164     1.0000 0.04690  0.65390  0.37020  Biso   1.000  H
  H165     1.0000 0.34610  0.39300  0.37020  Biso   1.000  H
  H166     1.0000 0.95310  0.60700  0.12980  Biso   1.000  H
  H167     1.0000 0.27367  0.28643  0.70353  Biso   1.000  H
  H168     1.0000 0.71357  0.98723  0.70353  Biso   1.000  H
  H169     1.0000 0.01277  0.72633  0.70353  Biso   1.000  H
  H170     1.0000 0.61977  0.94033  0.46313  Biso   1.000  H
  H171     1.0000 0.94033  0.61977  0.03687  Biso   1.000  H
  H172     1.0000 0.28643  0.27367  0.79647  Biso   1.000  H
  H173     1.0000 0.65390  0.04690  0.12980  Biso   1.000  H
  H174     1.0000 0.39300  0.34610  0.12980  Biso   1.000  H
  H175     1.0000 0.38023  0.32057  0.03687  Biso   1.000  H
  H176     1.0000 0.67943  0.05967  0.03687  Biso   1.000  H
  H177     1.0000 0.98723  0.71357  0.79647  Biso   1.000  H
  H178     1.0000 0.72633  0.01277  0.79647  Biso   1.000  H
  H179     1.0000 0.32057  0.38023  0.46313  Biso   1.000  H
  H180     1.0000 0.05967  0.67943  0.46313  Biso   1.000  H
  C325     1.0000 0.35780  0.95660  0.61268  Biso   1.000  C
  C326     1.0000 0.04340  0.40120  0.61268  Biso   1.000  C
  C327     1.0000 0.59880  0.64220  0.61268  Biso   1.000  C
  C328     1.0000 0.95660  0.35780  0.88732  Biso   1.000  C
  C329     1.0000 0.02447  0.28993  0.94601  Biso   1.000  C
  C330     1.0000 0.71007  0.73453  0.94601  Biso   1.000  C
  C331     1.0000 0.26547  0.97553  0.94601  Biso   1.000  C
  C332     1.0000 0.62327  0.69113  0.22065  Biso   1.000  C
  C333     1.0000 0.69113  0.62327  0.27935  Biso   1.000  C
  C334     1.0000 0.28993  0.02447  0.55399  Biso   1.000  C
  C335     1.0000 0.40120  0.04340  0.88732  Biso   1.000  C
  C336     1.0000 0.64220  0.59880  0.88732  Biso   1.000  C
  C337     1.0000 0.37673  0.06787  0.27935  Biso   1.000  C
  C338     1.0000 0.93213  0.30887  0.27935  Biso   1.000  C
  C339     1.0000 0.73453  0.71007  0.55399  Biso   1.000  C
  C340     1.0000 0.97553  0.26547  0.55399  Biso   1.000  C
  C341     1.0000 0.06787  0.37673  0.22065  Biso   1.000  C
  C342     1.0000 0.30887  0.93213  0.22065  Biso   1.000  C
  C343     1.0000 0.64220  0.04340  0.38732  Biso   1.000  C
  C344     1.0000 0.95660  0.59880  0.38732  Biso   1.000  C
  C345     1.0000 0.40120  0.35780  0.38732  Biso   1.000  C
  C346     1.0000 0.04340  0.64220  0.11268  Biso   1.000  C
  C347     1.0000 0.30887  0.37673  0.72065  Biso   1.000  C
  C348     1.0000 0.62327  0.93213  0.72065  Biso   1.000  C
  C349     1.0000 0.06787  0.69113  0.72065  Biso   1.000  C
  C350     1.0000 0.71007  0.97553  0.44601  Biso   1.000  C
  C351     1.0000 0.97553  0.71007  0.05399  Biso   1.000  C
  C352     1.0000 0.37673  0.30887  0.77935  Biso   1.000  C
  C353     1.0000 0.59880  0.95660  0.11268  Biso   1.000  C
  C354     1.0000 0.35780  0.40120  0.11268  Biso   1.000  C
  C355     1.0000 0.28993  0.26547  0.05399  Biso   1.000  C
  C356     1.0000 0.73453  0.02447  0.05399  Biso   1.000  C
  C357     1.0000 0.93213  0.62327  0.77935  Biso   1.000  C
  C358     1.0000 0.69113  0.06787  0.77935  Biso   1.000  C
  C359     1.0000 0.26547  0.28993  0.44601  Biso   1.000  C
  C360     1.0000 0.02447  0.73453  0.44601  Biso   1.000  C
  H181     1.0000 0.28850  0.92940  0.61360  Biso   1.000  H
  H182     1.0000 0.07060  0.35910  0.61360  Biso   1.000  H
  H183     1.0000 0.64090  0.71150  0.61360  Biso   1.000  H
  H184     1.0000 0.92940  0.28850  0.88640  Biso   1.000  H
  H185     1.0000 0.95517  0.26273  0.94693  Biso   1.000  H
  H186     1.0000 0.73727  0.69243  0.94693  Biso   1.000  H
  H187     1.0000 0.30757  0.04483  0.94693  Biso   1.000  H
  H188     1.0000 0.59607  0.62183  0.21973  Biso   1.000  H
  H189     1.0000 0.62183  0.59607  0.28027  Biso   1.000  H
  H190     1.0000 0.26273  0.95517  0.55307  Biso   1.000  H
  H191     1.0000 0.35910  0.07060  0.88640  Biso   1.000  H
  H192     1.0000 0.71150  0.64090  0.88640  Biso   1.000  H
  H193     1.0000 0.40393  0.02577  0.28027  Biso   1.000  H
  H194     1.0000 0.97423  0.37817  0.28027  Biso   1.000  H
  H195     1.0000 0.69243  0.73727  0.55307  Biso   1.000  H
  H196     1.0000 0.04483  0.30757  0.55307  Biso   1.000  H
  H197     1.0000 0.02577  0.40393  0.21973  Biso   1.000  H
  H198     1.0000 0.37817  0.97423  0.21973  Biso   1.000  H
  H199     1.0000 0.71150  0.07060  0.38640  Biso   1.000  H
  H200     1.0000 0.92940  0.64090  0.38640  Biso   1.000  H
  H201     1.0000 0.35910  0.28850  0.38640  Biso   1.000  H
  H202     1.0000 0.07060  0.71150  0.11360  Biso   1.000  H
  H203     1.0000 0.37817  0.40393  0.71973  Biso   1.000  H
  H204     1.0000 0.59607  0.97423  0.71973  Biso   1.000  H
  H205     1.0000 0.02577  0.62183  0.71973  Biso   1.000  H
  H206     1.0000 0.73727  0.04483  0.44693  Biso   1.000  H
  H207     1.0000 0.04483  0.73727  0.05307  Biso   1.000  H
  H208     1.0000 0.40393  0.37817  0.78027  Biso   1.000  H
  H209     1.0000 0.64090  0.92940  0.11360  Biso   1.000  H
  H210     1.0000 0.28850  0.35910  0.11360  Biso   1.000  H
  H211     1.0000 0.26273  0.30757  0.05307  Biso   1.000  H
  H212     1.0000 0.69243  0.95517  0.05307  Biso   1.000  H
  H213     1.0000 0.97423  0.59607  0.78027  Biso   1.000  H
  H214     1.0000 0.62183  0.02577  0.78027  Biso   1.000  H
  H215     1.0000 0.30757  0.26273  0.44693  Biso   1.000  H
  H216     1.0000 0.95517  0.69243  0.44693  Biso   1.000  H
  C361     1.0000 0.49200  0.96360  0.60143  Biso   1.000  C
  C362     1.0000 0.03640  0.52840  0.60143  Biso   1.000  C
  C363     1.0000 0.47160  0.50800  0.60143  Biso   1.000  C
  C364     1.0000 0.96360  0.49200  0.89857  Biso   1.000  C
  C365     1.0000 0.15867  0.29693  0.93476  Biso   1.000  C
  C366     1.0000 0.70307  0.86173  0.93476  Biso   1.000  C
  C367     1.0000 0.13827  0.84133  0.93476  Biso   1.000  C
  C368     1.0000 0.63027  0.82533  0.23190  Biso   1.000  C
  C369     1.0000 0.82533  0.63027  0.26810  Biso   1.000  C
  C370     1.0000 0.29693  0.15867  0.56524  Biso   1.000  C
  C371     1.0000 0.52840  0.03640  0.89857  Biso   1.000  C
  C372     1.0000 0.50800  0.47160  0.89857  Biso   1.000  C
  C373     1.0000 0.36973  0.19507  0.26810  Biso   1.000  C
  C374     1.0000 0.80493  0.17467  0.26810  Biso   1.000  C
  C375     1.0000 0.86173  0.70307  0.56524  Biso   1.000  C
  C376     1.0000 0.84133  0.13827  0.56524  Biso   1.000  C
  C377     1.0000 0.19507  0.36973  0.23190  Biso   1.000  C
  C378     1.0000 0.17467  0.80493  0.23190  Biso   1.000  C
  C379     1.0000 0.50800  0.03640  0.39857  Biso   1.000  C
  C380     1.0000 0.96360  0.47160  0.39857  Biso   1.000  C
  C381     1.0000 0.52840  0.49200  0.39857  Biso   1.000  C
  C382     1.0000 0.03640  0.50800  0.10143  Biso   1.000  C
  C383     1.0000 0.17467  0.36973  0.73190  Biso   1.000  C
  C384     1.0000 0.63027  0.80493  0.73190  Biso   1.000  C
  C385     1.0000 0.19507  0.82533  0.73190  Biso   1.000  C
  C386     1.0000 0.70307  0.84133  0.43476  Biso   1.000  C
  C387     1.0000 0.84133  0.70307  0.06524  Biso   1.000  C
  C388     1.0000 0.36973  0.17467  0.76810  Biso   1.000  C
  C389     1.0000 0.47160  0.96360  0.10143  Biso   1.000  C
  C390     1.0000 0.49200  0.52840  0.10143  Biso   1.000  C
  C391     1.0000 0.29693  0.13827  0.06524  Biso   1.000  C
  C392     1.0000 0.86173  0.15867  0.06524  Biso   1.000  C
  C393     1.0000 0.80493  0.63027  0.76810  Biso   1.000  C
  C394     1.0000 0.82533  0.19507  0.76810  Biso   1.000  C
  C395     1.0000 0.13827  0.29693  0.43476  Biso   1.000  C
  C396     1.0000 0.15867  0.86173  0.43476  Biso   1.000  C
  H217     1.0000 0.51780  0.94170  0.59420  Biso   1.000  H
  H218     1.0000 0.05830  0.57610  0.59420  Biso   1.000  H
  H219     1.0000 0.42390  0.48220  0.59420  Biso   1.000  H
  H220     1.0000 0.94170  0.51780  0.90580  Biso   1.000  H
  H221     1.0000 0.18447  0.27503  0.92753  Biso   1.000  H
  H222     1.0000 0.72497  0.90943  0.92753  Biso   1.000  H
  H223     1.0000 0.09057  0.81553  0.92753  Biso   1.000  H
  H224     1.0000 0.60837  0.85113  0.23913  Biso   1.000  H
  H225     1.0000 0.85113  0.60837  0.26087  Biso   1.000  H
  H226     1.0000 0.27503  0.18447  0.57247  Biso   1.000  H
  H227     1.0000 0.57610  0.05830  0.90580  Biso   1.000  H
  H228     1.0000 0.48220  0.42390  0.90580  Biso   1.000  H
  H229     1.0000 0.39163  0.24277  0.26087  Biso   1.000  H
  H230     1.0000 0.75723  0.14887  0.26087  Biso   1.000  H
  H231     1.0000 0.90943  0.72497  0.57247  Biso   1.000  H
  H232     1.0000 0.81553  0.09057  0.57247  Biso   1.000  H
  H233     1.0000 0.24277  0.39163  0.23913  Biso   1.000  H
  H234     1.0000 0.14887  0.75723  0.23913  Biso   1.000  H
  H235     1.0000 0.48220  0.05830  0.40580  Biso   1.000  H
  H236     1.0000 0.94170  0.42390  0.40580  Biso   1.000  H
  H237     1.0000 0.57610  0.51780  0.40580  Biso   1.000  H
  H238     1.0000 0.05830  0.48220  0.09420  Biso   1.000  H
  H239     1.0000 0.14887  0.39163  0.73913  Biso   1.000  H
  H240     1.0000 0.60837  0.75723  0.73913  Biso   1.000  H
  H241     1.0000 0.24277  0.85113  0.73913  Biso   1.000  H
  H242     1.0000 0.72497  0.81553  0.42753  Biso   1.000  H
  H243     1.0000 0.81553  0.72497  0.07247  Biso   1.000  H
  H244     1.0000 0.39163  0.14887  0.76087  Biso   1.000  H
  H245     1.0000 0.42390  0.94170  0.09420  Biso   1.000  H
  H246     1.0000 0.51780  0.57610  0.09420  Biso   1.000  H
  H247     1.0000 0.27503  0.09057  0.07247  Biso   1.000  H
  H248     1.0000 0.90943  0.18447  0.07247  Biso   1.000  H
  H249     1.0000 0.75723  0.60837  0.76087  Biso   1.000  H
  H250     1.0000 0.85113  0.24277  0.76087  Biso   1.000  H
  H251     1.0000 0.09057  0.27503  0.42753  Biso   1.000  H
  H252     1.0000 0.18447  0.90943  0.42753  Biso   1.000  H
  C397     1.0000 0.55780  0.03110  0.61079  Biso   1.000  C
  C398     1.0000 0.96890  0.52670  0.61079  Biso   1.000  C
  C399     1.0000 0.47330  0.44220  0.61079  Biso   1.000  C
  C400     1.0000 0.03110  0.55780  0.88921  Biso   1.000  C
  C401     1.0000 0.22447  0.36443  0.94412  Biso   1.000  C
  C402     1.0000 0.63557  0.86003  0.94412  Biso   1.000  C
  C403     1.0000 0.13997  0.77553  0.94412  Biso   1.000  C
  C404     1.0000 0.69777  0.89113  0.22254  Biso   1.000  C
  C405     1.0000 0.89113  0.69777  0.27746  Biso   1.000  C
  C406     1.0000 0.36443  0.22447  0.55588  Biso   1.000  C
  C407     1.0000 0.52670  0.96890  0.88921  Biso   1.000  C
  C408     1.0000 0.44220  0.47330  0.88921  Biso   1.000  C
  C409     1.0000 0.30223  0.19337  0.27746  Biso   1.000  C
  C410     1.0000 0.80663  0.10887  0.27746  Biso   1.000  C
  C411     1.0000 0.86003  0.63557  0.55588  Biso   1.000  C
  C412     1.0000 0.77553  0.13997  0.55588  Biso   1.000  C
  C413     1.0000 0.19337  0.30223  0.22254  Biso   1.000  C
  C414     1.0000 0.10887  0.80663  0.22254  Biso   1.000  C
  C415     1.0000 0.44220  0.96890  0.38921  Biso   1.000  C
  C416     1.0000 0.03110  0.47330  0.38921  Biso   1.000  C
  C417     1.0000 0.52670  0.55780  0.38921  Biso   1.000  C
  C418     1.0000 0.96890  0.44220  0.11079  Biso   1.000  C
  C419     1.0000 0.10887  0.30223  0.72254  Biso   1.000  C
  C420     1.0000 0.69777  0.80663  0.72254  Biso   1.000  C
  C421     1.0000 0.19337  0.89113  0.72254  Biso   1.000  C
  C422     1.0000 0.63557  0.77553  0.44412  Biso   1.000  C
  C423     1.0000 0.77553  0.63557  0.05588  Biso   1.000  C
  C424     1.0000 0.30223  0.10887  0.77746  Biso   1.000  C
  C425     1.0000 0.47330  0.03110  0.11079  Biso   1.000  C
  C426     1.0000 0.55780  0.52670  0.11079  Biso   1.000  C
  C427     1.0000 0.36443  0.13997  0.05588  Biso   1.000  C
  C428     1.0000 0.86003  0.22447  0.05588  Biso   1.000  C
  C429     1.0000 0.80663  0.69777  0.77746  Biso   1.000  C
  C430     1.0000 0.89113  0.19337  0.77746  Biso   1.000  C
  C431     1.0000 0.13997  0.36443  0.44412  Biso   1.000  C
  C432     1.0000 0.22447  0.86003  0.44412  Biso   1.000  C
  H253     1.0000 0.62640  0.05370  0.61000  Biso   1.000  H
  H254     1.0000 0.94630  0.57270  0.61000  Biso   1.000  H
  H255     1.0000 0.42730  0.37360  0.61000  Biso   1.000  H
  H256     1.0000 0.05370  0.62640  0.89000  Biso   1.000  H
  H257     1.0000 0.29307  0.38703  0.94333  Biso   1.000  H
  H258     1.0000 0.61297  0.90603  0.94333  Biso   1.000  H
  H259     1.0000 0.09397  0.70693  0.94333  Biso   1.000  H
  H260     1.0000 0.72037  0.95973  0.22333  Biso   1.000  H
  H261     1.0000 0.95973  0.72037  0.27667  Biso   1.000  H
  H262     1.0000 0.38703  0.29307  0.55667  Biso   1.000  H
  H263     1.0000 0.57270  0.94630  0.89000  Biso   1.000  H
  H264     1.0000 0.37360  0.42730  0.89000  Biso   1.000  H
  H265     1.0000 0.27963  0.23937  0.27667  Biso   1.000  H
  H266     1.0000 0.76063  0.04027  0.27667  Biso   1.000  H
  H267     1.0000 0.90603  0.61297  0.55667  Biso   1.000  H
  H268     1.0000 0.70693  0.09397  0.55667  Biso   1.000  H
  H269     1.0000 0.23937  0.27963  0.22333  Biso   1.000  H
  H270     1.0000 0.04027  0.76063  0.22333  Biso   1.000  H
  H271     1.0000 0.37360  0.94630  0.39000  Biso   1.000  H
  H272     1.0000 0.05370  0.42730  0.39000  Biso   1.000  H
  H273     1.0000 0.57270  0.62640  0.39000  Biso   1.000  H
  H274     1.0000 0.94630  0.37360  0.11000  Biso   1.000  H
  H275     1.0000 0.04027  0.27963  0.72333  Biso   1.000  H
  H276     1.0000 0.72037  0.76063  0.72333  Biso   1.000  H
  H277     1.0000 0.23937  0.95973  0.72333  Biso   1.000  H
  H278     1.0000 0.61297  0.70693  0.44333  Biso   1.000  H
  H279     1.0000 0.70693  0.61297  0.05667  Biso   1.000  H
  H280     1.0000 0.27963  0.04027  0.77667  Biso   1.000  H
  H281     1.0000 0.42730  0.05370  0.11000  Biso   1.000  H
  H282     1.0000 0.62640  0.57270  0.11000  Biso   1.000  H
  H283     1.0000 0.38703  0.09397  0.05667  Biso   1.000  H
  H284     1.0000 0.90603  0.29307  0.05667  Biso   1.000  H
  H285     1.0000 0.76063  0.72037  0.77667  Biso   1.000  H
  H286     1.0000 0.95973  0.23937  0.77667  Biso   1.000  H
  H287     1.0000 0.09397  0.38703  0.44333  Biso   1.000  H
  H288     1.0000 0.29307  0.90603  0.44333  Biso   1.000  H
  C433     1.0000 0.42970  0.90240  0.52213  Biso   1.000  C
  C434     1.0000 0.09760  0.52730  0.52213  Biso   1.000  C
  C435     1.0000 0.47270  0.57030  0.52213  Biso   1.000  C
  C436     1.0000 0.90240  0.42970  0.97787  Biso   1.000  C
  C437     1.0000 0.09637  0.23573  0.85546  Biso   1.000  C
  C438     1.0000 0.76427  0.86063  0.85546  Biso   1.000  C
  C439     1.0000 0.13937  0.90363  0.85546  Biso   1.000  C
  C440     1.0000 0.56907  0.76303  0.31120  Biso   1.000  C
  C441     1.0000 0.76303  0.56907  0.18880  Biso   1.000  C
  C442     1.0000 0.23573  0.09637  0.64454  Biso   1.000  C
  C443     1.0000 0.52730  0.09760  0.97787  Biso   1.000  C
  C444     1.0000 0.57030  0.47270  0.97787  Biso   1.000  C
  C445     1.0000 0.43093  0.19397  0.18880  Biso   1.000  C
  C446     1.0000 0.80603  0.23697  0.18880  Biso   1.000  C
  C447     1.0000 0.86063  0.76427  0.64454  Biso   1.000  C
  C448     1.0000 0.90363  0.13937  0.64454  Biso   1.000  C
  C449     1.0000 0.19397  0.43093  0.31120  Biso   1.000  C
  C450     1.0000 0.23697  0.80603  0.31120  Biso   1.000  C
  C451     1.0000 0.57030  0.09760  0.47787  Biso   1.000  C
  C452     1.0000 0.90240  0.47270  0.47787  Biso   1.000  C
  C453     1.0000 0.52730  0.42970  0.47787  Biso   1.000  C
  C454     1.0000 0.09760  0.57030  0.02213  Biso   1.000  C
  C455     1.0000 0.23697  0.43093  0.81120  Biso   1.000  C
  C456     1.0000 0.56907  0.80603  0.81120  Biso   1.000  C
  C457     1.0000 0.19397  0.76303  0.81120  Biso   1.000  C
  C458     1.0000 0.76427  0.90363  0.35546  Biso   1.000  C
  C459     1.0000 0.90363  0.76427  0.14454  Biso   1.000  C
  C460     1.0000 0.43093  0.23697  0.68880  Biso   1.000  C
  C461     1.0000 0.47270  0.90240  0.02213  Biso   1.000  C
  C462     1.0000 0.42970  0.52730  0.02213  Biso   1.000  C
  C463     1.0000 0.23573  0.13937  0.14454  Biso   1.000  C
  C464     1.0000 0.86063  0.09637  0.14454  Biso   1.000  C
  C465     1.0000 0.80603  0.56907  0.68880  Biso   1.000  C
  C466     1.0000 0.76303  0.19397  0.68880  Biso   1.000  C
  C467     1.0000 0.13937  0.23573  0.35546  Biso   1.000  C
  C468     1.0000 0.09637  0.86063  0.35546  Biso   1.000  C
  C469     1.0000 0.40750  0.88450  0.53754  Biso   1.000  C
  C470     1.0000 0.11550  0.52300  0.53754  Biso   1.000  C
  C471     1.0000 0.47700  0.59250  0.53754  Biso   1.000  C
  C472     1.0000 0.88450  0.40750  0.96246  Biso   1.000  C
  C473     1.0000 0.07417  0.21783  0.87087  Biso   1.000  C
  C474     1.0000 0.78217  0.85633  0.87087  Biso   1.000  C
  C475     1.0000 0.14367  0.92583  0.87087  Biso   1.000  C
  C476     1.0000 0.55117  0.74083  0.29579  Biso   1.000  C
  C477     1.0000 0.74083  0.55117  0.20421  Biso   1.000  C
  C478     1.0000 0.21783  0.07417  0.62913  Biso   1.000  C
  C479     1.0000 0.52300  0.11550  0.96246  Biso   1.000  C
  C480     1.0000 0.59250  0.47700  0.96246  Biso   1.000  C
  C481     1.0000 0.44883  0.18967  0.20421  Biso   1.000  C
  C482     1.0000 0.81033  0.25917  0.20421  Biso   1.000  C
  C483     1.0000 0.85633  0.78217  0.62913  Biso   1.000  C
  C484     1.0000 0.92583  0.14367  0.62913  Biso   1.000  C
  C485     1.0000 0.18967  0.44883  0.29579  Biso   1.000  C
  C486     1.0000 0.25917  0.81033  0.29579  Biso   1.000  C
  C487     1.0000 0.59250  0.11550  0.46246  Biso   1.000  C
  C488     1.0000 0.88450  0.47700  0.46246  Biso   1.000  C
  C489     1.0000 0.52300  0.40750  0.46246  Biso   1.000  C
  C490     1.0000 0.11550  0.59250  0.03754  Biso   1.000  C
  C491     1.0000 0.25917  0.44883  0.79579  Biso   1.000  C
  C492     1.0000 0.55117  0.81033  0.79579  Biso   1.000  C
  C493     1.0000 0.18967  0.74083  0.79579  Biso   1.000  C
  C494     1.0000 0.78217  0.92583  0.37087  Biso   1.000  C
  C495     1.0000 0.92583  0.78217  0.12913  Biso   1.000  C
  C496     1.0000 0.44883  0.25917  0.70421  Biso   1.000  C
  C497     1.0000 0.47700  0.88450  0.03754  Biso   1.000  C
  C498     1.0000 0.40750  0.52300  0.03754  Biso   1.000  C
  C499     1.0000 0.21783  0.14367  0.12913  Biso   1.000  C
  C500     1.0000 0.85633  0.07417  0.12913  Biso   1.000  C
  C501     1.0000 0.81033  0.55117  0.70421  Biso   1.000  C
  C502     1.0000 0.74083  0.18967  0.70421  Biso   1.000  C
  C503     1.0000 0.14367  0.21783  0.37087  Biso   1.000  C
  C504     1.0000 0.07417  0.85633  0.37087  Biso   1.000  C
  C505     1.0000 0.46920  0.95020  0.54804  Biso   1.000  C
  C506     1.0000 0.04980  0.51900  0.54804  Biso   1.000  C
  C507     1.0000 0.48100  0.53080  0.54804  Biso   1.000  C
  C508     1.0000 0.95020  0.46920  0.95196  Biso   1.000  C
  C509     1.0000 0.13587  0.28353  0.88137  Biso   1.000  C
  C510     1.0000 0.71647  0.85233  0.88137  Biso   1.000  C
  C511     1.0000 0.14767  0.86413  0.88137  Biso   1.000  C
  C512     1.0000 0.61687  0.80253  0.28529  Biso   1.000  C
  C513     1.0000 0.80253  0.61687  0.21471  Biso   1.000  C
  C514     1.0000 0.28353  0.13587  0.61863  Biso   1.000  C
  C515     1.0000 0.51900  0.04980  0.95196  Biso   1.000  C
  C516     1.0000 0.53080  0.48100  0.95196  Biso   1.000  C
  C517     1.0000 0.38313  0.18567  0.21471  Biso   1.000  C
  C518     1.0000 0.81433  0.19747  0.21471  Biso   1.000  C
  C519     1.0000 0.85233  0.71647  0.61863  Biso   1.000  C
  C520     1.0000 0.86413  0.14767  0.61863  Biso   1.000  C
  C521     1.0000 0.18567  0.38313  0.28529  Biso   1.000  C
  C522     1.0000 0.19747  0.81433  0.28529  Biso   1.000  C
  C523     1.0000 0.53080  0.04980  0.45196  Biso   1.000  C
  C524     1.0000 0.95020  0.48100  0.45196  Biso   1.000  C
  C525     1.0000 0.51900  0.46920  0.45196  Biso   1.000  C
  C526     1.0000 0.04980  0.53080  0.04804  Biso   1.000  C
  C527     1.0000 0.19747  0.38313  0.78529  Biso   1.000  C
  C528     1.0000 0.61687  0.81433  0.78529  Biso   1.000  C
  C529     1.0000 0.18567  0.80253  0.78529  Biso   1.000  C
  C530     1.0000 0.71647  0.86413  0.38137  Biso   1.000  C
  C531     1.0000 0.86413  0.71647  0.11863  Biso   1.000  C
  C532     1.0000 0.38313  0.19747  0.71471  Biso   1.000  C
  C533     1.0000 0.48100  0.95020  0.04804  Biso   1.000  C
  C534     1.0000 0.46920  0.51900  0.04804  Biso   1.000  C
  C535     1.0000 0.28353  0.14767  0.11863  Biso   1.000  C
  C536     1.0000 0.85233  0.13587  0.11863  Biso   1.000  C
  C537     1.0000 0.81433  0.61687  0.71471  Biso   1.000  C
  C538     1.0000 0.80253  0.18567  0.71471  Biso   1.000  C
  C539     1.0000 0.14767  0.28353  0.38137  Biso   1.000  C
  C540     1.0000 0.13587  0.85233  0.38137  Biso   1.000  C
  H289     1.0000 0.52840  0.00870  0.54560  Biso   1.000  H
  H290     1.0000 0.99130  0.51970  0.54560  Biso   1.000  H
  H291     1.0000 0.48030  0.47160  0.54560  Biso   1.000  H
  H292     1.0000 0.00870  0.52840  0.95440  Biso   1.000  H
  H293     1.0000 0.19507  0.34203  0.87893  Biso   1.000  H
  H294     1.0000 0.65797  0.85303  0.87893  Biso   1.000  H
  H295     1.0000 0.14697  0.80493  0.87893  Biso   1.000  H
  H296     1.0000 0.67537  0.86173  0.28773  Biso   1.000  H
  H297     1.0000 0.86173  0.67537  0.21227  Biso   1.000  H
  H298     1.0000 0.34203  0.19507  0.62107  Biso   1.000  H
  H299     1.0000 0.51970  0.99130  0.95440  Biso   1.000  H
  H300     1.0000 0.47160  0.48030  0.95440  Biso   1.000  H
  H301     1.0000 0.32463  0.18637  0.21227  Biso   1.000  H
  H302     1.0000 0.81363  0.13827  0.21227  Biso   1.000  H
  H303     1.0000 0.85303  0.65797  0.62107  Biso   1.000  H
  H304     1.0000 0.80493  0.14697  0.62107  Biso   1.000  H
  H305     1.0000 0.18637  0.32463  0.28773  Biso   1.000  H
  H306     1.0000 0.13827  0.81363  0.28773  Biso   1.000  H
  H307     1.0000 0.47160  0.99130  0.45440  Biso   1.000  H
  H308     1.0000 0.00870  0.48030  0.45440  Biso   1.000  H
  H309     1.0000 0.51970  0.52840  0.45440  Biso   1.000  H
  H310     1.0000 0.99130  0.47160  0.04560  Biso   1.000  H
  H311     1.0000 0.13827  0.32463  0.78773  Biso   1.000  H
  H312     1.0000 0.67537  0.81363  0.78773  Biso   1.000  H
  H313     1.0000 0.18637  0.86173  0.78773  Biso   1.000  H
  H314     1.0000 0.65797  0.80493  0.37893  Biso   1.000  H
  H315     1.0000 0.80493  0.65797  0.12107  Biso   1.000  H
  H316     1.0000 0.32463  0.13827  0.71227  Biso   1.000  H
  H317     1.0000 0.48030  0.00870  0.04560  Biso   1.000  H
  H318     1.0000 0.52840  0.51970  0.04560  Biso   1.000  H
  H319     1.0000 0.34203  0.14697  0.12107  Biso   1.000  H
  H320     1.0000 0.85303  0.19507  0.12107  Biso   1.000  H
  H321     1.0000 0.81363  0.67537  0.71227  Biso   1.000  H
  H322     1.0000 0.86173  0.18637  0.71227  Biso   1.000  H
  H323     1.0000 0.14697  0.34203  0.37893  Biso   1.000  H
  H324     1.0000 0.19507  0.85303  0.37893  Biso   1.000  H
  C541     1.0000 0.44190  0.92810  0.56230  Biso   1.000  C
  C542     1.0000 0.07190  0.51380  0.56230  Biso   1.000  C
  C543     1.0000 0.48620  0.55810  0.56230  Biso   1.000  C
  C544     1.0000 0.92810  0.44190  0.93770  Biso   1.000  C
  C545     1.0000 0.10857  0.26143  0.89563  Biso   1.000  C
  C546     1.0000 0.73857  0.84713  0.89563  Biso   1.000  C
  C547     1.0000 0.15287  0.89143  0.89563  Biso   1.000  C
  C548     1.0000 0.59477  0.77523  0.27103  Biso   1.000  C
  C549     1.0000 0.77523  0.59477  0.22897  Biso   1.000  C
  C550     1.0000 0.26143  0.10857  0.60437  Biso   1.000  C
  C551     1.0000 0.51380  0.07190  0.93770  Biso   1.000  C
  C552     1.0000 0.55810  0.48620  0.93770  Biso   1.000  C
  C553     1.0000 0.40523  0.18047  0.22897  Biso   1.000  C
  C554     1.0000 0.81953  0.22477  0.22897  Biso   1.000  C
  C555     1.0000 0.84713  0.73857  0.60437  Biso   1.000  C
  C556     1.0000 0.89143  0.15287  0.60437  Biso   1.000  C
  C557     1.0000 0.18047  0.40523  0.27103  Biso   1.000  C
  C558     1.0000 0.22477  0.81953  0.27103  Biso   1.000  C
  C559     1.0000 0.55810  0.07190  0.43770  Biso   1.000  C
  C560     1.0000 0.92810  0.48620  0.43770  Biso   1.000  C
  C561     1.0000 0.51380  0.44190  0.43770  Biso   1.000  C
  C562     1.0000 0.07190  0.55810  0.06230  Biso   1.000  C
  C563     1.0000 0.22477  0.40523  0.77103  Biso   1.000  C
  C564     1.0000 0.59477  0.81953  0.77103  Biso   1.000  C
  C565     1.0000 0.18047  0.77523  0.77103  Biso   1.000  C
  C566     1.0000 0.73857  0.89143  0.39563  Biso   1.000  C
  C567     1.0000 0.89143  0.73857  0.10437  Biso   1.000  C
  C568     1.0000 0.40523  0.22477  0.72897  Biso   1.000  C
  C569     1.0000 0.48620  0.92810  0.06230  Biso   1.000  C
  C570     1.0000 0.44190  0.51380  0.06230  Biso   1.000  C
  C571     1.0000 0.26143  0.15287  0.10437  Biso   1.000  C
  C572     1.0000 0.84713  0.10857  0.10437  Biso   1.000  C
  C573     1.0000 0.81953  0.59477  0.72897  Biso   1.000  C
  C574     1.0000 0.77523  0.18047  0.72897  Biso   1.000  C
  C575     1.0000 0.15287  0.26143  0.39563  Biso   1.000  C
  C576     1.0000 0.10857  0.84713  0.39563  Biso   1.000  C
  H325     1.0000 0.48400  0.97360  0.56920  Biso   1.000  H
  H326     1.0000 0.02640  0.51040  0.56920  Biso   1.000  H
  H327     1.0000 0.48960  0.51600  0.56920  Biso   1.000  H
  H328     1.0000 0.97360  0.48400  0.93080  Biso   1.000  H
  H329     1.0000 0.15067  0.30693  0.90253  Biso   1.000  H
  H330     1.0000 0.69307  0.84373  0.90253  Biso   1.000  H
  H331     1.0000 0.15627  0.84933  0.90253  Biso   1.000  H
  H332     1.0000 0.64027  0.81733  0.26413  Biso   1.000  H
  H333     1.0000 0.81733  0.64027  0.23587  Biso   1.000  H
  H334     1.0000 0.30693  0.15067  0.59747  Biso   1.000  H
  H335     1.0000 0.51040  0.02640  0.93080  Biso   1.000  H
  H336     1.0000 0.51600  0.48960  0.93080  Biso   1.000  H
  H337     1.0000 0.35973  0.17707  0.23587  Biso   1.000  H
  H338     1.0000 0.82293  0.18267  0.23587  Biso   1.000  H
  H339     1.0000 0.84373  0.69307  0.59747  Biso   1.000  H
  H340     1.0000 0.84933  0.15627  0.59747  Biso   1.000  H
  H341     1.0000 0.17707  0.35973  0.26413  Biso   1.000  H
  H342     1.0000 0.18267  0.82293  0.26413  Biso   1.000  H
  H343     1.0000 0.51600  0.02640  0.43080  Biso   1.000  H
  H344     1.0000 0.97360  0.48960  0.43080  Biso   1.000  H
  H345     1.0000 0.51040  0.48400  0.43080  Biso   1.000  H
  H346     1.0000 0.02640  0.51600  0.06920  Biso   1.000  H
  H347     1.0000 0.18267  0.35973  0.76413  Biso   1.000  H
  H348     1.0000 0.64027  0.82293  0.76413  Biso   1.000  H
  H349     1.0000 0.17707  0.81733  0.76413  Biso   1.000  H
  H350     1.0000 0.69307  0.84933  0.40253  Biso   1.000  H
  H351     1.0000 0.84933  0.69307  0.09747  Biso   1.000  H
  H352     1.0000 0.35973  0.18267  0.73587  Biso   1.000  H
  H353     1.0000 0.48960  0.97360  0.06920  Biso   1.000  H
  H354     1.0000 0.48400  0.51040  0.06920  Biso   1.000  H
  H355     1.0000 0.30693  0.15627  0.09747  Biso   1.000  H
  H356     1.0000 0.84373  0.15067  0.09747  Biso   1.000  H
  H357     1.0000 0.82293  0.64027  0.73587  Biso   1.000  H
  H358     1.0000 0.81733  0.17707  0.73587  Biso   1.000  H
  H359     1.0000 0.15627  0.30693  0.40253  Biso   1.000  H
  H360     1.0000 0.15067  0.84373  0.40253  Biso   1.000  H
  C577     1.0000 0.29850  0.78210  0.55633  Biso   1.000  C
  C578     1.0000 0.21790  0.51640  0.55633  Biso   1.000  C
  C579     1.0000 0.48360  0.70150  0.55633  Biso   1.000  C
  C580     1.0000 0.78210  0.29850  0.94367  Biso   1.000  C
  C581     1.0000 0.96517  0.11543  0.88966  Biso   1.000  C
  C582     1.0000 0.88457  0.84973  0.88966  Biso   1.000  C
  C583     1.0000 0.15027  0.03483  0.88966  Biso   1.000  C
  C584     1.0000 0.44877  0.63183  0.27700  Biso   1.000  C
  C585     1.0000 0.63183  0.44877  0.22300  Biso   1.000  C
  C586     1.0000 0.11543  0.96517  0.61034  Biso   1.000  C
  C587     1.0000 0.51640  0.21790  0.94367  Biso   1.000  C
  C588     1.0000 0.70150  0.48360  0.94367  Biso   1.000  C
  C589     1.0000 0.55123  0.18307  0.22300  Biso   1.000  C
  C590     1.0000 0.81693  0.36817  0.22300  Biso   1.000  C
  C591     1.0000 0.84973  0.88457  0.61034  Biso   1.000  C
  C592     1.0000 0.03483  0.15027  0.61034  Biso   1.000  C
  C593     1.0000 0.18307  0.55123  0.27700  Biso   1.000  C
  C594     1.0000 0.36817  0.81693  0.27700  Biso   1.000  C
  C595     1.0000 0.70150  0.21790  0.44367  Biso   1.000  C
  C596     1.0000 0.78210  0.48360  0.44367  Biso   1.000  C
  C597     1.0000 0.51640  0.29850  0.44367  Biso   1.000  C
  C598     1.0000 0.21790  0.70150  0.05633  Biso   1.000  C
  C599     1.0000 0.36817  0.55123  0.77700  Biso   1.000  C
  C600     1.0000 0.44877  0.81693  0.77700  Biso   1.000  C
  C601     1.0000 0.18307  0.63183  0.77700  Biso   1.000  C
  C602     1.0000 0.88457  0.03483  0.38966  Biso   1.000  C
  C603     1.0000 0.03483  0.88457  0.11034  Biso   1.000  C
  C604     1.0000 0.55123  0.36817  0.72300  Biso   1.000  C
  C605     1.0000 0.48360  0.78210  0.05633  Biso   1.000  C
  C606     1.0000 0.29850  0.51640  0.05633  Biso   1.000  C
  C607     1.0000 0.11543  0.15027  0.11034  Biso   1.000  C
  C608     1.0000 0.84973  0.96517  0.11034  Biso   1.000  C
  C609     1.0000 0.81693  0.44877  0.72300  Biso   1.000  C
  C610     1.0000 0.63183  0.18307  0.72300  Biso   1.000  C
  C611     1.0000 0.15027  0.11543  0.38966  Biso   1.000  C
  C612     1.0000 0.96517  0.84973  0.38966  Biso   1.000  C
  H361     1.0000 0.23880  0.72520  0.55910  Biso   1.000  H
  H362     1.0000 0.27480  0.51360  0.55910  Biso   1.000  H
  H363     1.0000 0.48640  0.76120  0.55910  Biso   1.000  H
  H364     1.0000 0.72520  0.23880  0.94090  Biso   1.000  H
  H365     1.0000 0.90547  0.05853  0.89243  Biso   1.000  H
  H366     1.0000 0.94147  0.84693  0.89243  Biso   1.000  H
  H367     1.0000 0.15307  0.09453  0.89243  Biso   1.000  H
  H368     1.0000 0.39187  0.57213  0.27423  Biso   1.000  H
  H369     1.0000 0.57213  0.39187  0.22577  Biso   1.000  H
  H370     1.0000 0.05853  0.90547  0.60757  Biso   1.000  H
  H371     1.0000 0.51360  0.27480  0.94090  Biso   1.000  H
  H372     1.0000 0.76120  0.48640  0.94090  Biso   1.000  H
  H373     1.0000 0.60813  0.18027  0.22577  Biso   1.000  H
  H374     1.0000 0.81973  0.42787  0.22577  Biso   1.000  H
  H375     1.0000 0.84693  0.94147  0.60757  Biso   1.000  H
  H376     1.0000 0.09453  0.15307  0.60757  Biso   1.000  H
  H377     1.0000 0.18027  0.60813  0.27423  Biso   1.000  H
  H378     1.0000 0.42787  0.81973  0.27423  Biso   1.000  H
  H379     1.0000 0.76120  0.27480  0.44090  Biso   1.000  H
  H380     1.0000 0.72520  0.48640  0.44090  Biso   1.000  H
  H381     1.0000 0.51360  0.23880  0.44090  Biso   1.000  H
  H382     1.0000 0.27480  0.76120  0.05910  Biso   1.000  H
  H383     1.0000 0.42787  0.60813  0.77423  Biso   1.000  H
  H384     1.0000 0.39187  0.81973  0.77423  Biso   1.000  H
  H385     1.0000 0.18027  0.57213  0.77423  Biso   1.000  H
  H386     1.0000 0.94147  0.09453  0.39243  Biso   1.000  H
  H387     1.0000 0.09453  0.94147  0.10757  Biso   1.000  H
  H388     1.0000 0.60813  0.42787  0.72577  Biso   1.000  H
  H389     1.0000 0.48640  0.72520  0.05910  Biso   1.000  H
  H390     1.0000 0.23880  0.51360  0.05910  Biso   1.000  H
  H391     1.0000 0.05853  0.15307  0.10757  Biso   1.000  H
  H392     1.0000 0.84693  0.90547  0.10757  Biso   1.000  H
  H393     1.0000 0.81973  0.39187  0.72577  Biso   1.000  H
  H394     1.0000 0.57213  0.18027  0.72577  Biso   1.000  H
  H395     1.0000 0.15307  0.05853  0.39243  Biso   1.000  H
  H396     1.0000 0.90547  0.84693  0.39243  Biso   1.000  H
  C613     1.0000 0.32030  0.79710  0.54208  Biso   1.000  C
  C614     1.0000 0.20290  0.52320  0.54208  Biso   1.000  C
  C615     1.0000 0.47680  0.67970  0.54208  Biso   1.000  C
  C616     1.0000 0.79710  0.32030  0.95792  Biso   1.000  C
  C617     1.0000 0.98697  0.13043  0.87541  Biso   1.000  C
  C618     1.0000 0.86957  0.85653  0.87541  Biso   1.000  C
  C619     1.0000 0.14347  0.01303  0.87541  Biso   1.000  C
  C620     1.0000 0.46377  0.65363  0.29125  Biso   1.000  C
  C621     1.0000 0.65363  0.46377  0.20875  Biso   1.000  C
  C622     1.0000 0.13043  0.98697  0.62459  Biso   1.000  C
  C623     1.0000 0.52320  0.20290  0.95792  Biso   1.000  C
  C624     1.0000 0.67970  0.47680  0.95792  Biso   1.000  C
  C625     1.0000 0.53623  0.18987  0.20875  Biso   1.000  C
  C626     1.0000 0.81013  0.34637  0.20875  Biso   1.000  C
  C627     1.0000 0.85653  0.86957  0.62459  Biso   1.000  C
  C628     1.0000 0.01303  0.14347  0.62459  Biso   1.000  C
  C629     1.0000 0.18987  0.53623  0.29125  Biso   1.000  C
  C630     1.0000 0.34637  0.81013  0.29125  Biso   1.000  C
  C631     1.0000 0.67970  0.20290  0.45792  Biso   1.000  C
  C632     1.0000 0.79710  0.47680  0.45792  Biso   1.000  C
  C633     1.0000 0.52320  0.32030  0.45792  Biso   1.000  C
  C634     1.0000 0.20290  0.67970  0.04208  Biso   1.000  C
  C635     1.0000 0.34637  0.53623  0.79125  Biso   1.000  C
  C636     1.0000 0.46377  0.81013  0.79125  Biso   1.000  C
  C637     1.0000 0.18987  0.65363  0.79125  Biso   1.000  C
  C638     1.0000 0.86957  0.01303  0.37541  Biso   1.000  C
  C639     1.0000 0.01303  0.86957  0.12459  Biso   1.000  C
  C640     1.0000 0.53623  0.34637  0.70875  Biso   1.000  C
  C641     1.0000 0.47680  0.79710  0.04208  Biso   1.000  C
  C642     1.0000 0.32030  0.52320  0.04208  Biso   1.000  C
  C643     1.0000 0.13043  0.14347  0.12459  Biso   1.000  C
  C644     1.0000 0.85653  0.98697  0.12459  Biso   1.000  C
  C645     1.0000 0.81013  0.46377  0.70875  Biso   1.000  C
  C646     1.0000 0.65363  0.18987  0.70875  Biso   1.000  C
  C647     1.0000 0.14347  0.13043  0.37541  Biso   1.000  C
  C648     1.0000 0.98697  0.85653  0.37541  Biso   1.000  C
  H397     1.0000 0.27760  0.74970  0.53550  Biso   1.000  H
  H398     1.0000 0.25030  0.52790  0.53550  Biso   1.000  H
  H399     1.0000 0.47210  0.72240  0.53550  Biso   1.000  H
  H400     1.0000 0.74970  0.27760  0.96450  Biso   1.000  H
  H401     1.0000 0.94427  0.08303  0.86883  Biso   1.000  H
  H402     1.0000 0.91697  0.86123  0.86883  Biso   1.000  H
  H403     1.0000 0.13877  0.05573  0.86883  Biso   1.000  H
  H404     1.0000 0.41637  0.61093  0.29783  Biso   1.000  H
  H405     1.0000 0.61093  0.41637  0.20217  Biso   1.000  H
  H406     1.0000 0.08303  0.94427  0.63117  Biso   1.000  H
  H407     1.0000 0.52790  0.25030  0.96450  Biso   1.000  H
  H408     1.0000 0.72240  0.47210  0.96450  Biso   1.000  H
  H409     1.0000 0.58363  0.19457  0.20217  Biso   1.000  H
  H410     1.0000 0.80543  0.38907  0.20217  Biso   1.000  H
  H411     1.0000 0.86123  0.91697  0.63117  Biso   1.000  H
  H412     1.0000 0.05573  0.13877  0.63117  Biso   1.000  H
  H413     1.0000 0.19457  0.58363  0.29783  Biso   1.000  H
  H414     1.0000 0.38907  0.80543  0.29783  Biso   1.000  H
  H415     1.0000 0.72240  0.25030  0.46450  Biso   1.000  H
  H416     1.0000 0.74970  0.47210  0.46450  Biso   1.000  H
  H417     1.0000 0.52790  0.27760  0.46450  Biso   1.000  H
  H418     1.0000 0.25030  0.72240  0.03550  Biso   1.000  H
  H419     1.0000 0.38907  0.58363  0.79783  Biso   1.000  H
  H420     1.0000 0.41637  0.80543  0.79783  Biso   1.000  H
  H421     1.0000 0.19457  0.61093  0.79783  Biso   1.000  H
  H422     1.0000 0.91697  0.05573  0.36883  Biso   1.000  H
  H423     1.0000 0.05573  0.91697  0.13117  Biso   1.000  H
  H424     1.0000 0.58363  0.38907  0.70217  Biso   1.000  H
  H425     1.0000 0.47210  0.74970  0.03550  Biso   1.000  H
  H426     1.0000 0.27760  0.52790  0.03550  Biso   1.000  H
  H427     1.0000 0.08303  0.13877  0.13117  Biso   1.000  H
  H428     1.0000 0.86123  0.94427  0.13117  Biso   1.000  H
  H429     1.0000 0.80543  0.41637  0.70217  Biso   1.000  H
  H430     1.0000 0.61093  0.19457  0.70217  Biso   1.000  H
  H431     1.0000 0.13877  0.08303  0.36883  Biso   1.000  H
  H432     1.0000 0.94427  0.86123  0.36883  Biso   1.000  H
  N1       1.0000 0.47610  0.72900  0.63564  Biso   1.000  N
  N2       1.0000 0.27100  0.74710  0.63564  Biso   1.000  N
  N3       1.0000 0.25290  0.52390  0.63564  Biso   1.000  N
  N4       1.0000 0.72900  0.47610  0.86436  Biso   1.000  N
  N5       1.0000 0.14277  0.06233  0.96897  Biso   1.000  N
  N6       1.0000 0.93767  0.08043  0.96897  Biso   1.000  N
  N7       1.0000 0.91957  0.85723  0.96897  Biso   1.000  N
  N8       1.0000 0.39567  0.80943  0.19769  Biso   1.000  N
  N9       1.0000 0.80943  0.39567  0.30231  Biso   1.000  N
  N10      1.0000 0.06233  0.14277  0.53103  Biso   1.000  N
  N11      1.0000 0.74710  0.27100  0.86436  Biso   1.000  N
  N12      1.0000 0.52390  0.25290  0.86436  Biso   1.000  N
  N13      1.0000 0.60433  0.41377  0.30231  Biso   1.000  N
  N14      1.0000 0.58623  0.19057  0.30231  Biso   1.000  N
  N15      1.0000 0.08043  0.93767  0.53103  Biso   1.000  N
  N16      1.0000 0.85723  0.91957  0.53103  Biso   1.000  N
  N17      1.0000 0.41377  0.60433  0.19769  Biso   1.000  N
  N18      1.0000 0.19057  0.58623  0.19769  Biso   1.000  N
  N19      1.0000 0.52390  0.27100  0.36436  Biso   1.000  N
  N20      1.0000 0.72900  0.25290  0.36436  Biso   1.000  N
  N21      1.0000 0.74710  0.47610  0.36436  Biso   1.000  N
  N22      1.0000 0.27100  0.52390  0.13564  Biso   1.000  N
  N23      1.0000 0.19057  0.60433  0.69769  Biso   1.000  N
  N24      1.0000 0.39567  0.58623  0.69769  Biso   1.000  N
  N25      1.0000 0.41377  0.80943  0.69769  Biso   1.000  N
  N26      1.0000 0.93767  0.85723  0.46897  Biso   1.000  N
  N27      1.0000 0.85723  0.93767  0.03103  Biso   1.000  N
  N28      1.0000 0.60433  0.19057  0.80231  Biso   1.000  N
  N29      1.0000 0.25290  0.72900  0.13564  Biso   1.000  N
  N30      1.0000 0.47610  0.74710  0.13564  Biso   1.000  N
  N31      1.0000 0.06233  0.91957  0.03103  Biso   1.000  N
  N32      1.0000 0.08043  0.14277  0.03103  Biso   1.000  N
  N33      1.0000 0.58623  0.39567  0.80231  Biso   1.000  N
  N34      1.0000 0.80943  0.41377  0.80231  Biso   1.000  N
  N35      1.0000 0.91957  0.06233  0.46897  Biso   1.000  N
  N36      1.0000 0.14277  0.08043  0.46897  Biso   1.000  N
  N37      1.0000 0.39360  0.92620  0.60186  Biso   1.000  N
  N38      1.0000 0.07380  0.46740  0.60186  Biso   1.000  N
  N39      1.0000 0.53260  0.60640  0.60186  Biso   1.000  N
  N40      1.0000 0.92620  0.39360  0.89814  Biso   1.000  N
  N41      1.0000 0.06027  0.25953  0.93519  Biso   1.000  N
  N42      1.0000 0.74047  0.80073  0.93519  Biso   1.000  N
  N43      1.0000 0.19927  0.93973  0.93519  Biso   1.000  N
  N44      1.0000 0.59287  0.72693  0.23147  Biso   1.000  N
  N45      1.0000 0.72693  0.59287  0.26853  Biso   1.000  N
  N46      1.0000 0.25953  0.06027  0.56481  Biso   1.000  N
  N47      1.0000 0.46740  0.07380  0.89814  Biso   1.000  N
  N48      1.0000 0.60640  0.53260  0.89814  Biso   1.000  N
  N49      1.0000 0.40713  0.13407  0.26853  Biso   1.000  N
  N50      1.0000 0.86593  0.27307  0.26853  Biso   1.000  N
  N51      1.0000 0.80073  0.74047  0.56481  Biso   1.000  N
  N52      1.0000 0.93973  0.19927  0.56481  Biso   1.000  N
  N53      1.0000 0.13407  0.40713  0.23147  Biso   1.000  N
  N54      1.0000 0.27307  0.86593  0.23147  Biso   1.000  N
  N55      1.0000 0.60640  0.07380  0.39814  Biso   1.000  N
  N56      1.0000 0.92620  0.53260  0.39814  Biso   1.000  N
  N57      1.0000 0.46740  0.39360  0.39814  Biso   1.000  N
  N58      1.0000 0.07380  0.60640  0.10186  Biso   1.000  N
  N59      1.0000 0.27307  0.40713  0.73147  Biso   1.000  N
  N60      1.0000 0.59287  0.86593  0.73147  Biso   1.000  N
  N61      1.0000 0.13407  0.72693  0.73147  Biso   1.000  N
  N62      1.0000 0.74047  0.93973  0.43519  Biso   1.000  N
  N63      1.0000 0.93973  0.74047  0.06481  Biso   1.000  N
  N64      1.0000 0.40713  0.27307  0.76853  Biso   1.000  N
  N65      1.0000 0.53260  0.92620  0.10186  Biso   1.000  N
  N66      1.0000 0.39360  0.46740  0.10186  Biso   1.000  N
  N67      1.0000 0.25953  0.19927  0.06481  Biso   1.000  N
  N68      1.0000 0.80073  0.06027  0.06481  Biso   1.000  N
  N69      1.0000 0.86593  0.59287  0.76853  Biso   1.000  N
  N70      1.0000 0.72693  0.13407  0.76853  Biso   1.000  N
  N71      1.0000 0.19927  0.25953  0.43519  Biso   1.000  N
  N72      1.0000 0.06027  0.80073  0.43519  Biso   1.000  N
  N73      1.0000 0.35820  0.84480  0.56670  Biso   1.000  N
  N74      1.0000 0.15520  0.51340  0.56670  Biso   1.000  N
  N75      1.0000 0.48660  0.64180  0.56670  Biso   1.000  N
  N76      1.0000 0.84480  0.35820  0.93330  Biso   1.000  N
  N77      1.0000 0.02487  0.17813  0.90003  Biso   1.000  N
  N78      1.0000 0.82187  0.84673  0.90003  Biso   1.000  N
  N79      1.0000 0.15327  0.97513  0.90003  Biso   1.000  N
  N80      1.0000 0.51147  0.69153  0.26663  Biso   1.000  N
  N81      1.0000 0.69153  0.51147  0.23337  Biso   1.000  N
  N82      1.0000 0.17813  0.02487  0.59997  Biso   1.000  N
  N83      1.0000 0.51340  0.15520  0.93330  Biso   1.000  N
  N84      1.0000 0.64180  0.48660  0.93330  Biso   1.000  N
  N85      1.0000 0.48853  0.18007  0.23337  Biso   1.000  N
  N86      1.0000 0.81993  0.30847  0.23337  Biso   1.000  N
  N87      1.0000 0.84673  0.82187  0.59997  Biso   1.000  N
  N88      1.0000 0.97513  0.15327  0.59997  Biso   1.000  N
  N89      1.0000 0.18007  0.48853  0.26663  Biso   1.000  N
  N90      1.0000 0.30847  0.81993  0.26663  Biso   1.000  N
  N91      1.0000 0.64180  0.15520  0.43330  Biso   1.000  N
  N92      1.0000 0.84480  0.48660  0.43330  Biso   1.000  N
  N93      1.0000 0.51340  0.35820  0.43330  Biso   1.000  N
  N94      1.0000 0.15520  0.64180  0.06670  Biso   1.000  N
  N95      1.0000 0.30847  0.48853  0.76663  Biso   1.000  N
  N96      1.0000 0.51147  0.81993  0.76663  Biso   1.000  N
  N97      1.0000 0.18007  0.69153  0.76663  Biso   1.000  N
  N98      1.0000 0.82187  0.97513  0.40003  Biso   1.000  N
  N99      1.0000 0.97513  0.82187  0.09997  Biso   1.000  N
  N100     1.0000 0.48853  0.30847  0.73337  Biso   1.000  N
  N101     1.0000 0.48660  0.84480  0.06670  Biso   1.000  N
  N102     1.0000 0.35820  0.51340  0.06670  Biso   1.000  N
  N103     1.0000 0.17813  0.15327  0.09997  Biso   1.000  N
  N104     1.0000 0.84673  0.02487  0.09997  Biso   1.000  N
  N105     1.0000 0.81993  0.51147  0.73337  Biso   1.000  N
  N106     1.0000 0.69153  0.18007  0.73337  Biso   1.000  N
  N107     1.0000 0.15327  0.17813  0.40003  Biso   1.000  N
  N108     1.0000 0.02487  0.84673  0.40003  Biso   1.000  N
  O1       1.0000 0.80530  0.33330  0.58330  Biso   1.000  O
  O2       1.0000 0.66670  0.47200  0.58330  Biso   1.000  O
  O3       1.0000 0.52800  0.19470  0.58330  Biso   1.000  O
  O4       1.0000 0.33330  0.80530  0.91670  Biso   1.000  O
  O5       1.0000 0.47197  0.66663  0.91663  Biso   1.000  O
  O6       1.0000 0.19467  0.52803  0.91663  Biso   1.000  O
  O7       1.0000 0.99997  0.13863  0.25003  Biso   1.000  O
  O8       1.0000 0.13863  0.99997  0.24997  Biso   1.000  O
  O9       1.0000 0.86133  0.86137  0.24997  Biso   1.000  O
  O10      1.0000 0.19470  0.66670  0.41670  Biso   1.000  O
  O11      1.0000 0.33330  0.52800  0.41670  Biso   1.000  O
  O12      1.0000 0.47200  0.80530  0.41670  Biso   1.000  O
  O13      1.0000 0.66670  0.19470  0.08330  Biso   1.000  O
  O14      1.0000 0.86137  0.00003  0.75003  Biso   1.000  O
  O15      1.0000 0.99997  0.86133  0.75003  Biso   1.000  O
  O16      1.0000 0.13867  0.13863  0.75003  Biso   1.000  O
  O17      1.0000 0.52803  0.33337  0.08337  Biso   1.000  O
  O18      1.0000 0.80530  0.47200  0.08330  Biso   1.000  O
  O19      1.0000 0.76690  0.96260  0.66679  Biso   1.000  O
  O20      1.0000 0.03740  0.80430  0.66679  Biso   1.000  O
  O21      1.0000 0.19570  0.23310  0.66679  Biso   1.000  O
  O22      1.0000 0.96260  0.76690  0.83321  Biso   1.000  O
  O23      1.0000 0.43357  0.29593  0.00012  Biso   1.000  O
  O24      1.0000 0.70407  0.13763  0.00012  Biso   1.000  O
  O25      1.0000 0.86237  0.56643  0.00012  Biso   1.000  O
  O26      1.0000 0.62927  0.10023  0.16654  Biso   1.000  O
  O27      1.0000 0.10023  0.62927  0.33346  Biso   1.000  O
  O28      1.0000 0.29593  0.43357  0.49988  Biso   1.000  O
  O29      1.0000 0.80430  0.03740  0.83321  Biso   1.000  O
  O30      1.0000 0.23310  0.19570  0.83321  Biso   1.000  O
  O31      1.0000 0.37073  0.47097  0.33346  Biso   1.000  O
  O32      1.0000 0.52903  0.89977  0.33346  Biso   1.000  O
  O33      1.0000 0.13763  0.70407  0.49988  Biso   1.000  O
  O34      1.0000 0.56643  0.86237  0.49988  Biso   1.000  O
  O35      1.0000 0.47097  0.37073  0.16654  Biso   1.000  O
  O36      1.0000 0.89977  0.52903  0.16654  Biso   1.000  O
  O37      1.0000 0.23310  0.03740  0.33321  Biso   1.000  O
  O38      1.0000 0.96260  0.19570  0.33321  Biso   1.000  O
  O39      1.0000 0.80430  0.76690  0.33321  Biso   1.000  O
  O40      1.0000 0.03740  0.23310  0.16679  Biso   1.000  O
  O41      1.0000 0.89977  0.37073  0.66654  Biso   1.000  O
  O42      1.0000 0.62927  0.52903  0.66654  Biso   1.000  O
  O43      1.0000 0.47097  0.10023  0.66654  Biso   1.000  O
  O44      1.0000 0.70407  0.56643  0.50012  Biso   1.000  O
  O45      1.0000 0.56643  0.70407  0.99988  Biso   1.000  O
  O46      1.0000 0.37073  0.89977  0.83346  Biso   1.000  O
  O47      1.0000 0.19570  0.96260  0.16679  Biso   1.000  O
  O48      1.0000 0.76690  0.80430  0.16679  Biso   1.000  O
  O49      1.0000 0.29593  0.86237  0.99988  Biso   1.000  O
  O50      1.0000 0.13763  0.43357  0.99988  Biso   1.000  O
  O51      1.0000 0.52903  0.62927  0.83346  Biso   1.000  O
  O52      1.0000 0.10023  0.47097  0.83346  Biso   1.000  O
  O53      1.0000 0.86237  0.29593  0.50012  Biso   1.000  O
  O54      1.0000 0.43357  0.13763  0.50012  Biso   1.000  O
  O55      1.0000 0.05960  0.24580  0.67065  Biso   1.000  O
  O56      1.0000 0.75420  0.81380  0.67065  Biso   1.000  O
  O57      1.0000 0.18620  0.94040  0.67065  Biso   1.000  O
  O58      1.0000 0.24580  0.05960  0.82935  Biso   1.000  O
  O59      1.0000 0.72627  0.57913  0.00398  Biso   1.000  O
  O60      1.0000 0.42087  0.14713  0.00398  Biso   1.000  O
  O61      1.0000 0.85287  0.27373  0.00398  Biso   1.000  O
  O62      1.0000 0.91247  0.39293  0.16268  Biso   1.000  O
  O63      1.0000 0.39293  0.91247  0.33732  Biso   1.000  O
  O64      1.0000 0.57913  0.72627  0.49602  Biso   1.000  O
  O65      1.0000 0.81380  0.75420  0.82935  Biso   1.000  O
  O66      1.0000 0.94040  0.18620  0.82935  Biso   1.000  O
  O67      1.0000 0.08753  0.48047  0.33732  Biso   1.000  O
  O68      1.0000 0.51953  0.60707  0.33732  Biso   1.000  O
  O69      1.0000 0.14713  0.42087  0.49602  Biso   1.000  O
  O70      1.0000 0.27373  0.85287  0.49602  Biso   1.000  O
  O71      1.0000 0.48047  0.08753  0.16268  Biso   1.000  O
  O72      1.0000 0.60707  0.51953  0.16268  Biso   1.000  O
  O73      1.0000 0.94040  0.75420  0.32935  Biso   1.000  O
  O74      1.0000 0.24580  0.18620  0.32935  Biso   1.000  O
  O75      1.0000 0.81380  0.05960  0.32935  Biso   1.000  O
  O76      1.0000 0.75420  0.94040  0.17065  Biso   1.000  O
  O77      1.0000 0.60707  0.08753  0.66268  Biso   1.000  O
  O78      1.0000 0.91247  0.51953  0.66268  Biso   1.000  O
  O79      1.0000 0.48047  0.39293  0.66268  Biso   1.000  O
  O80      1.0000 0.42087  0.27373  0.50398  Biso   1.000  O
  O81      1.0000 0.27373  0.42087  0.99602  Biso   1.000  O
  O82      1.0000 0.08753  0.60707  0.83732  Biso   1.000  O
  O83      1.0000 0.18620  0.24580  0.17065  Biso   1.000  O
  O84      1.0000 0.05960  0.81380  0.17065  Biso   1.000  O
  O85      1.0000 0.57913  0.85287  0.99602  Biso   1.000  O
  O86      1.0000 0.14713  0.72627  0.99602  Biso   1.000  O
  O87      1.0000 0.51953  0.91247  0.83732  Biso   1.000  O
  O88      1.0000 0.39293  0.48047  0.83732  Biso   1.000  O
  O89      1.0000 0.85287  0.57913  0.50398  Biso   1.000  O
  O90      1.0000 0.72627  0.14713  0.50398  Biso   1.000  O
  O91      1.0000 0.85740  0.96130  0.69404  Biso   1.000  O
  O92      1.0000 0.03870  0.89610  0.69404  Biso   1.000  O
  O93      1.0000 0.10390  0.14260  0.69404  Biso   1.000  O
  O94      1.0000 0.96130  0.85740  0.80596  Biso   1.000  O
  O95      1.0000 0.52407  0.29463  0.02737  Biso   1.000  O
  O96      1.0000 0.70537  0.22943  0.02737  Biso   1.000  O
  O97      1.0000 0.77057  0.47593  0.02737  Biso   1.000  O
  O98      1.0000 0.62797  0.19073  0.13929  Biso   1.000  O
  O99      1.0000 0.19073  0.62797  0.36071  Biso   1.000  O
  O100     1.0000 0.29463  0.52407  0.47263  Biso   1.000  O
  O101     1.0000 0.89610  0.03870  0.80596  Biso   1.000  O
  O102     1.0000 0.14260  0.10390  0.80596  Biso   1.000  O
  O103     1.0000 0.37203  0.56277  0.36071  Biso   1.000  O
  O104     1.0000 0.43723  0.80927  0.36071  Biso   1.000  O
  O105     1.0000 0.22943  0.70537  0.47263  Biso   1.000  O
  O106     1.0000 0.47593  0.77057  0.47263  Biso   1.000  O
  O107     1.0000 0.56277  0.37203  0.13929  Biso   1.000  O
  O108     1.0000 0.80927  0.43723  0.13929  Biso   1.000  O
  O109     1.0000 0.14260  0.03870  0.30596  Biso   1.000  O
  O110     1.0000 0.96130  0.10390  0.30596  Biso   1.000  O
  O111     1.0000 0.89610  0.85740  0.30596  Biso   1.000  O
  O112     1.0000 0.03870  0.14260  0.19404  Biso   1.000  O
  O113     1.0000 0.80927  0.37203  0.63929  Biso   1.000  O
  O114     1.0000 0.62797  0.43723  0.63929  Biso   1.000  O
  O115     1.0000 0.56277  0.19073  0.63929  Biso   1.000  O
  O116     1.0000 0.70537  0.47593  0.52737  Biso   1.000  O
  O117     1.0000 0.47593  0.70537  0.97263  Biso   1.000  O
  O118     1.0000 0.37203  0.80927  0.86071  Biso   1.000  O
  O119     1.0000 0.10390  0.96130  0.19404  Biso   1.000  O
  O120     1.0000 0.85740  0.89610  0.19404  Biso   1.000  O
  O121     1.0000 0.29463  0.77057  0.97263  Biso   1.000  O
  O122     1.0000 0.22943  0.52407  0.97263  Biso   1.000  O
  O123     1.0000 0.43723  0.62797  0.86071  Biso   1.000  O
  O124     1.0000 0.19073  0.56277  0.86071  Biso   1.000  O
  O125     1.0000 0.77057  0.29463  0.52737  Biso   1.000  O
  O126     1.0000 0.52407  0.22943  0.52737  Biso   1.000  O
  O127     1.0000 0.98920  0.18400  0.69949  Biso   1.000  O
  O128     1.0000 0.81600  0.80520  0.69949  Biso   1.000  O
  O129     1.0000 0.19480  0.01080  0.69949  Biso   1.000  O
  O130     1.0000 0.18400  0.98920  0.80051  Biso   1.000  O
  O131     1.0000 0.65587  0.51733  0.03282  Biso   1.000  O
  O132     1.0000 0.48267  0.13853  0.03282  Biso   1.000  O
  O133     1.0000 0.86147  0.34413  0.03282  Biso   1.000  O
  O134     1.0000 0.85067  0.32253  0.13384  Biso   1.000  O
  O135     1.0000 0.32253  0.85067  0.36616  Biso   1.000  O
  O136     1.0000 0.51733  0.65587  0.46718  Biso   1.000  O
  O137     1.0000 0.80520  0.81600  0.80051  Biso   1.000  O
  O138     1.0000 0.01080  0.19480  0.80051  Biso   1.000  O
  O139     1.0000 0.14933  0.47187  0.36616  Biso   1.000  O
  O140     1.0000 0.52813  0.67747  0.36616  Biso   1.000  O
  O141     1.0000 0.13853  0.48267  0.46718  Biso   1.000  O
  O142     1.0000 0.34413  0.86147  0.46718  Biso   1.000  O
  O143     1.0000 0.47187  0.14933  0.13384  Biso   1.000  O
  O144     1.0000 0.67747  0.52813  0.13384  Biso   1.000  O
  O145     1.0000 0.01080  0.81600  0.30051  Biso   1.000  O
  O146     1.0000 0.18400  0.19480  0.30051  Biso   1.000  O
  O147     1.0000 0.80520  0.98920  0.30051  Biso   1.000  O
  O148     1.0000 0.81600  0.01080  0.19949  Biso   1.000  O
  O149     1.0000 0.67747  0.14933  0.63384  Biso   1.000  O
  O150     1.0000 0.85067  0.52813  0.63384  Biso   1.000  O
  O151     1.0000 0.47187  0.32253  0.63384  Biso   1.000  O
  O152     1.0000 0.48267  0.34413  0.53282  Biso   1.000  O
  O153     1.0000 0.34413  0.48267  0.96718  Biso   1.000  O
  O154     1.0000 0.14933  0.67747  0.86616  Biso   1.000  O
  O155     1.0000 0.19480  0.18400  0.19949  Biso   1.000  O
  O156     1.0000 0.98920  0.80520  0.19949  Biso   1.000  O
  O157     1.0000 0.51733  0.86147  0.96718  Biso   1.000  O
  O158     1.0000 0.13853  0.65587  0.96718  Biso   1.000  O
  O159     1.0000 0.52813  0.85067  0.86616  Biso   1.000  O
  O160     1.0000 0.32253  0.47187  0.86616  Biso   1.000  O
  O161     1.0000 0.86147  0.51733  0.53282  Biso   1.000  O
  O162     1.0000 0.65587  0.13853  0.53282  Biso   1.000  O
  O163     1.0000 0.81160  0.15380  0.68416  Biso   1.000  O
  O164     1.0000 0.84620  0.65780  0.68416  Biso   1.000  O
  O165     1.0000 0.34220  0.18840  0.68416  Biso   1.000  O
  O166     1.0000 0.15380  0.81160  0.81584  Biso   1.000  O
  O167     1.0000 0.47827  0.48713  0.01749  Biso   1.000  O
  O168     1.0000 0.51287  0.99113  0.01749  Biso   1.000  O
  O169     1.0000 0.00887  0.52173  0.01749  Biso   1.000  O
  O170     1.0000 0.82047  0.14493  0.14917  Biso   1.000  O
  O171     1.0000 0.14493  0.82047  0.35083  Biso   1.000  O
  O172     1.0000 0.48713  0.47827  0.48251  Biso   1.000  O
  O173     1.0000 0.65780  0.84620  0.81584  Biso   1.000  O
  O174     1.0000 0.18840  0.34220  0.81584  Biso   1.000  O
  O175     1.0000 0.17953  0.32447  0.35083  Biso   1.000  O
  O176     1.0000 0.67553  0.85507  0.35083  Biso   1.000  O
  O177     1.0000 0.99113  0.51287  0.48251  Biso   1.000  O
  O178     1.0000 0.52173  0.00887  0.48251  Biso   1.000  O
  O179     1.0000 0.32447  0.17953  0.14917  Biso   1.000  O
  O180     1.0000 0.85507  0.67553  0.14917  Biso   1.000  O
  O181     1.0000 0.18840  0.84620  0.31584  Biso   1.000  O
  O182     1.0000 0.15380  0.34220  0.31584  Biso   1.000  O
  O183     1.0000 0.65780  0.81160  0.31584  Biso   1.000  O
  O184     1.0000 0.84620  0.18840  0.18416  Biso   1.000  O
  O185     1.0000 0.85507  0.17953  0.64917  Biso   1.000  O
  O186     1.0000 0.82047  0.67553  0.64917  Biso   1.000  O
  O187     1.0000 0.32447  0.14493  0.64917  Biso   1.000  O
  O188     1.0000 0.51287  0.52173  0.51749  Biso   1.000  O
  O189     1.0000 0.52173  0.51287  0.98251  Biso   1.000  O
  O190     1.0000 0.17953  0.85507  0.85083  Biso   1.000  O
  O191     1.0000 0.34220  0.15380  0.18416  Biso   1.000  O
  O192     1.0000 0.81160  0.65780  0.18416  Biso   1.000  O
  O193     1.0000 0.48713  0.00887  0.98251  Biso   1.000  O
  O194     1.0000 0.99113  0.47827  0.98251  Biso   1.000  O
  O195     1.0000 0.67553  0.82047  0.85083  Biso   1.000  O
  O196     1.0000 0.14493  0.32447  0.85083  Biso   1.000  O
  O197     1.0000 0.00887  0.48713  0.51749  Biso   1.000  O
  O198     1.0000 0.47827  0.99113  0.51749  Biso   1.000  O
  O199     1.0000 0.93660  0.09670  0.65200  Biso   1.000  O
  O200     1.0000 0.90330  0.83990  0.65200  Biso   1.000  O
  O201     1.0000 0.16010  0.06340  0.65200  Biso   1.000  O
  O202     1.0000 0.09670  0.93660  0.84800  Biso   1.000  O
  O203     1.0000 0.60327  0.43003  0.98533  Biso   1.000  O
  O204     1.0000 0.56997  0.17323  0.98533  Biso   1.000  O
  O205     1.0000 0.82677  0.39673  0.98533  Biso   1.000  O
  O206     1.0000 0.76337  0.26993  0.18133  Biso   1.000  O
  O207     1.0000 0.26993  0.76337  0.31867  Biso   1.000  O
  O208     1.0000 0.43003  0.60327  0.51467  Biso   1.000  O
  O209     1.0000 0.83990  0.90330  0.84800  Biso   1.000  O
  O210     1.0000 0.06340  0.16010  0.84800  Biso   1.000  O
  O211     1.0000 0.23663  0.50657  0.31867  Biso   1.000  O
  O212     1.0000 0.49343  0.73007  0.31867  Biso   1.000  O
  O213     1.0000 0.17323  0.56997  0.51467  Biso   1.000  O
  O214     1.0000 0.39673  0.82677  0.51467  Biso   1.000  O
  O215     1.0000 0.50657  0.23663  0.18133  Biso   1.000  O
  O216     1.0000 0.73007  0.49343  0.18133  Biso   1.000  O
  O217     1.0000 0.06340  0.90330  0.34800  Biso   1.000  O
  O218     1.0000 0.09670  0.16010  0.34800  Biso   1.000  O
  O219     1.0000 0.83990  0.93660  0.34800  Biso   1.000  O
  O220     1.0000 0.90330  0.06340  0.15200  Biso   1.000  O
  O221     1.0000 0.73007  0.23663  0.68133  Biso   1.000  O
  O222     1.0000 0.76337  0.49343  0.68133  Biso   1.000  O
  O223     1.0000 0.50657  0.26993  0.68133  Biso   1.000  O
  O224     1.0000 0.56997  0.39673  0.48533  Biso   1.000  O
  O225     1.0000 0.39673  0.56997  0.01467  Biso   1.000  O
  O226     1.0000 0.23663  0.73007  0.81867  Biso   1.000  O
  O227     1.0000 0.16010  0.09670  0.15200  Biso   1.000  O
  O228     1.0000 0.93660  0.83990  0.15200  Biso   1.000  O
  O229     1.0000 0.43003  0.82677  0.01467  Biso   1.000  O
  O230     1.0000 0.17323  0.60327  0.01467  Biso   1.000  O
  O231     1.0000 0.49343  0.76337  0.81867  Biso   1.000  O
  O232     1.0000 0.26993  0.50657  0.81867  Biso   1.000  O
  O233     1.0000 0.82677  0.43003  0.48533  Biso   1.000  O
  O234     1.0000 0.60327  0.17323  0.48533  Biso   1.000  O
  O235     1.0000 0.00000  0.00000  0.67125  Biso   1.000  O
  O236     1.0000 0.00000  0.00000  0.82875  Biso   1.000  O
  O237     1.0000 0.66667  0.33333  0.00458  Biso   1.000  O
  O238     1.0000 0.66667  0.33333  0.16208  Biso   1.000  O
  O239     1.0000 0.33333  0.66667  0.33792  Biso   1.000  O
  O240     1.0000 0.33333  0.66667  0.49542  Biso   1.000  O
  O241     1.0000 0.00000  0.00000  0.32875  Biso   1.000  O
  O242     1.0000 0.00000  0.00000  0.17125  Biso   1.000  O
  O243     1.0000 0.66667  0.33333  0.66208  Biso   1.000  O
  O244     1.0000 0.66667  0.33333  0.50458  Biso   1.000  O
  O245     1.0000 0.33333  0.66667  0.99542  Biso   1.000  O
  O246     1.0000 0.33333  0.66667  0.83792  Biso   1.000  O
