data_image0
_cell_length_a       15.2988
_cell_length_b       15.2988
_cell_length_c       93.559
_cell_angle_alpha    90
_cell_angle_beta     90
_cell_angle_gamma    120

_symmetry_space_group_name_H-M    "P 1"
_symmetry_int_tables_number       1

loop_
  _symmetry_equiv_pos_as_xyz
  'x, y, z'

loop_
  _atom_site_label
  _atom_site_occupancy
  _atom_site_fract_x
  _atom_site_fract_y
  _atom_site_fract_z
  _atom_site_thermal_displace_type
  _atom_site_B_iso_or_equiv
  _atom_site_type_symbol
  Gd1      1.0000 0.91755  0.09201  0.67773  Biso   1.000  Gd
  Gd2      1.0000 0.90799  0.82554  0.67773  Biso   1.000  Gd
  Gd3      1.0000 0.17446  0.08245  0.67773  Biso   1.000  Gd
  Gd4      1.0000 0.09201  0.91755  0.82227  Biso   1.000  Gd
  Gd5      1.0000 0.58422  0.42535  0.01107  Biso   1.000  Gd
  Gd6      1.0000 0.57465  0.15888  0.01107  Biso   1.000  Gd
  Gd7      1.0000 0.84112  0.41578  0.01107  Biso   1.000  Gd
  Gd8      1.0000 0.75868  0.25089  0.15560  Biso   1.000  Gd
  Gd9      1.0000 0.25089  0.75868  0.34440  Biso   1.000  Gd
  Gd10     1.0000 0.42535  0.58422  0.48893  Biso   1.000  Gd
  Gd11     1.0000 0.82554  0.90799  0.82227  Biso   1.000  Gd
  Gd12     1.0000 0.08245  0.17446  0.82227  Biso   1.000  Gd
  Gd13     1.0000 0.24132  0.49221  0.34440  Biso   1.000  Gd
  Gd14     1.0000 0.50779  0.74911  0.34440  Biso   1.000  Gd
  Gd15     1.0000 0.15888  0.57465  0.48893  Biso   1.000  Gd
  Gd16     1.0000 0.41578  0.84112  0.48893  Biso   1.000  Gd
  Gd17     1.0000 0.49221  0.24132  0.15560  Biso   1.000  Gd
  Gd18     1.0000 0.74911  0.50779  0.15560  Biso   1.000  Gd
  Gd19     1.0000 0.08245  0.90799  0.32227  Biso   1.000  Gd
  Gd20     1.0000 0.09201  0.17446  0.32227  Biso   1.000  Gd
  Gd21     1.0000 0.82554  0.91755  0.32227  Biso   1.000  Gd
  Gd22     1.0000 0.90799  0.08245  0.17773  Biso   1.000  Gd
  Gd23     1.0000 0.74911  0.24132  0.65560  Biso   1.000  Gd
  Gd24     1.0000 0.75868  0.50779  0.65560  Biso   1.000  Gd
  Gd25     1.0000 0.49221  0.25089  0.65560  Biso   1.000  Gd
  Gd26     1.0000 0.57465  0.41578  0.51107  Biso   1.000  Gd
  Gd27     1.0000 0.41578  0.57465  0.98893  Biso   1.000  Gd
  Gd28     1.0000 0.24132  0.74911  0.84440  Biso   1.000  Gd
  Gd29     1.0000 0.17446  0.09201  0.17773  Biso   1.000  Gd
  Gd30     1.0000 0.91755  0.82554  0.17773  Biso   1.000  Gd
  Gd31     1.0000 0.42535  0.84112  0.98893  Biso   1.000  Gd
  Gd32     1.0000 0.15888  0.58422  0.98893  Biso   1.000  Gd
  Gd33     1.0000 0.50779  0.75868  0.84440  Biso   1.000  Gd
  Gd34     1.0000 0.25089  0.49221  0.84440  Biso   1.000  Gd
  Gd35     1.0000 0.84112  0.42535  0.51107  Biso   1.000  Gd
  Gd36     1.0000 0.58422  0.15888  0.51107  Biso   1.000  Gd
  Cu1      1.0000 0.33330  0.66670  0.62593  Biso   1.000  Cu
  Cu2      1.0000 0.66670  0.33330  0.87407  Biso   1.000  Cu
  Cu3      1.0000 0.99997  0.00003  0.95926  Biso   1.000  Cu
  Cu4      1.0000 0.33337  0.66663  0.20740  Biso   1.000  Cu
  Cu5      1.0000 0.66663  0.33337  0.29260  Biso   1.000  Cu
  Cu6      1.0000 0.00003  0.99997  0.54074  Biso   1.000  Cu
  Cu7      1.0000 0.66670  0.33330  0.37407  Biso   1.000  Cu
  Cu8      1.0000 0.33330  0.66670  0.12593  Biso   1.000  Cu
  Cu9      1.0000 0.33337  0.66663  0.70740  Biso   1.000  Cu
  Cu10     1.0000 0.99997  0.00003  0.45926  Biso   1.000  Cu
  Cu11     1.0000 0.00003  0.99997  0.04074  Biso   1.000  Cu
  Cu12     1.0000 0.66663  0.33337  0.79260  Biso   1.000  Cu
  Cu13     1.0000 0.30537  0.82210  0.58710  Biso   1.000  Cu
  Cu14     1.0000 0.17790  0.48327  0.58710  Biso   1.000  Cu
  Cu15     1.0000 0.51673  0.69463  0.58710  Biso   1.000  Cu
  Cu16     1.0000 0.82210  0.30537  0.91290  Biso   1.000  Cu
  Cu17     1.0000 0.97204  0.15543  0.92043  Biso   1.000  Cu
  Cu18     1.0000 0.84457  0.81660  0.92043  Biso   1.000  Cu
  Cu19     1.0000 0.18340  0.02796  0.92043  Biso   1.000  Cu
  Cu20     1.0000 0.48877  0.63870  0.24623  Biso   1.000  Cu
  Cu21     1.0000 0.63870  0.48877  0.25377  Biso   1.000  Cu
  Cu22     1.0000 0.15543  0.97204  0.57957  Biso   1.000  Cu
  Cu23     1.0000 0.48327  0.17790  0.91290  Biso   1.000  Cu
  Cu24     1.0000 0.69463  0.51673  0.91290  Biso   1.000  Cu
  Cu25     1.0000 0.51123  0.14994  0.25377  Biso   1.000  Cu
  Cu26     1.0000 0.85006  0.36130  0.25377  Biso   1.000  Cu
  Cu27     1.0000 0.81660  0.84457  0.57957  Biso   1.000  Cu
  Cu28     1.0000 0.02796  0.18340  0.57957  Biso   1.000  Cu
  Cu29     1.0000 0.14994  0.51123  0.24623  Biso   1.000  Cu
  Cu30     1.0000 0.36130  0.85006  0.24623  Biso   1.000  Cu
  Cu31     1.0000 0.69463  0.17790  0.41290  Biso   1.000  Cu
  Cu32     1.0000 0.82210  0.51673  0.41290  Biso   1.000  Cu
  Cu33     1.0000 0.48327  0.30537  0.41290  Biso   1.000  Cu
  Cu34     1.0000 0.17790  0.69463  0.08710  Biso   1.000  Cu
  Cu35     1.0000 0.36130  0.51123  0.74623  Biso   1.000  Cu
  Cu36     1.0000 0.48877  0.85006  0.74623  Biso   1.000  Cu
  Cu37     1.0000 0.14994  0.63870  0.74623  Biso   1.000  Cu
  Cu38     1.0000 0.84457  0.02796  0.42043  Biso   1.000  Cu
  Cu39     1.0000 0.02796  0.84457  0.07957  Biso   1.000  Cu
  Cu40     1.0000 0.51123  0.36130  0.75377  Biso   1.000  Cu
  Cu41     1.0000 0.51673  0.82210  0.08710  Biso   1.000  Cu
  Cu42     1.0000 0.30537  0.48327  0.08710  Biso   1.000  Cu
  Cu43     1.0000 0.15543  0.18340  0.07957  Biso   1.000  Cu
  Cu44     1.0000 0.81660  0.97204  0.07957  Biso   1.000  Cu
  Cu45     1.0000 0.85006  0.48877  0.75377  Biso   1.000  Cu
  Cu46     1.0000 0.63870  0.14994  0.75377  Biso   1.000  Cu
  Cu47     1.0000 0.18340  0.15543  0.42043  Biso   1.000  Cu
  Cu48     1.0000 0.97204  0.81660  0.42043  Biso   1.000  Cu
  I1       1.0000 0.33330  0.66670  0.59794  Biso   1.000  I
  I2       1.0000 0.66670  0.33330  0.90206  Biso   1.000  I
  I3       1.0000 0.99997  0.00003  0.93127  Biso   1.000  I
  I4       1.0000 0.33337  0.66663  0.23539  Biso   1.000  I
  I5       1.0000 0.66663  0.33337  0.26461  Biso   1.000  I
  I6       1.0000 0.00003  0.99997  0.56873  Biso   1.000  I
  I7       1.0000 0.66670  0.33330  0.40206  Biso   1.000  I
  I8       1.0000 0.33330  0.66670  0.09794  Biso   1.000  I
  I9       1.0000 0.33337  0.66663  0.73539  Biso   1.000  I
  I10      1.0000 0.99997  0.00003  0.43127  Biso   1.000  I
  I11      1.0000 0.00003  0.99997  0.06873  Biso   1.000  I
  I12      1.0000 0.66663  0.33337  0.76461  Biso   1.000  I
  I13      1.0000 0.12071  0.78740  0.58340  Biso   1.000  I
  I14      1.0000 0.21260  0.33331  0.58340  Biso   1.000  I
  I15      1.0000 0.66669  0.87929  0.58340  Biso   1.000  I
  I16      1.0000 0.78740  0.12071  0.91660  Biso   1.000  I
  I17      1.0000 0.87927  0.66664  0.91673  Biso   1.000  I
  I18      1.0000 0.33336  0.21262  0.91673  Biso   1.000  I
  I19      1.0000 0.45407  0.45404  0.24993  Biso   1.000  I
  I20      1.0000 0.54593  0.99998  0.25007  Biso   1.000  I
  I21      1.0000 0.00002  0.54596  0.25007  Biso   1.000  I
  I22      1.0000 0.87929  0.21260  0.41660  Biso   1.000  I
  I23      1.0000 0.78740  0.66669  0.41660  Biso   1.000  I
  I24      1.0000 0.33331  0.12071  0.41660  Biso   1.000  I
  I25      1.0000 0.21260  0.87929  0.08340  Biso   1.000  I
  I26      1.0000 0.54596  0.54593  0.74993  Biso   1.000  I
  I27      1.0000 0.45407  0.00002  0.74993  Biso   1.000  I
  I28      1.0000 0.99998  0.45404  0.74993  Biso   1.000  I
  I29      1.0000 0.66669  0.78740  0.08340  Biso   1.000  I
  I30      1.0000 0.12071  0.33331  0.08340  Biso   1.000  I
  C1       1.0000 0.72940  0.87080  0.66468  Biso   1.000  C
  C2       1.0000 0.12920  0.85860  0.66468  Biso   1.000  C
  C3       1.0000 0.14140  0.27060  0.66468  Biso   1.000  C
  C4       1.0000 0.87080  0.72940  0.83532  Biso   1.000  C
  C5       1.0000 0.39607  0.20413  0.99801  Biso   1.000  C
  C6       1.0000 0.79587  0.19193  0.99801  Biso   1.000  C
  C7       1.0000 0.80807  0.60393  0.99801  Biso   1.000  C
  C8       1.0000 0.53747  0.06273  0.16865  Biso   1.000  C
  C9       1.0000 0.06273  0.53747  0.33135  Biso   1.000  C
  C10      1.0000 0.20413  0.39607  0.50199  Biso   1.000  C
  C11      1.0000 0.85860  0.12920  0.83532  Biso   1.000  C
  C12      1.0000 0.27060  0.14140  0.83532  Biso   1.000  C
  C13      1.0000 0.46253  0.52527  0.33135  Biso   1.000  C
  C14      1.0000 0.47473  0.93727  0.33135  Biso   1.000  C
  C15      1.0000 0.19193  0.79587  0.50199  Biso   1.000  C
  C16      1.0000 0.60393  0.80807  0.50199  Biso   1.000  C
  C17      1.0000 0.52527  0.46253  0.16865  Biso   1.000  C
  C18      1.0000 0.93727  0.47473  0.16865  Biso   1.000  C
  C19      1.0000 0.27060  0.12920  0.33532  Biso   1.000  C
  C20      1.0000 0.87080  0.14140  0.33532  Biso   1.000  C
  C21      1.0000 0.85860  0.72940  0.33532  Biso   1.000  C
  C22      1.0000 0.12920  0.27060  0.16468  Biso   1.000  C
  C23      1.0000 0.93727  0.46253  0.66865  Biso   1.000  C
  C24      1.0000 0.53747  0.47473  0.66865  Biso   1.000  C
  C25      1.0000 0.52527  0.06273  0.66865  Biso   1.000  C
  C26      1.0000 0.79587  0.60393  0.49801  Biso   1.000  C
  C27      1.0000 0.60393  0.79587  0.00199  Biso   1.000  C
  C28      1.0000 0.46253  0.93727  0.83135  Biso   1.000  C
  C29      1.0000 0.14140  0.87080  0.16468  Biso   1.000  C
  C30      1.0000 0.72940  0.85860  0.16468  Biso   1.000  C
  C31      1.0000 0.20413  0.80807  0.00199  Biso   1.000  C
  C32      1.0000 0.19193  0.39607  0.00199  Biso   1.000  C
  C33      1.0000 0.47473  0.53747  0.83135  Biso   1.000  C
  C34      1.0000 0.06273  0.52527  0.83135  Biso   1.000  C
  C35      1.0000 0.80807  0.20413  0.49801  Biso   1.000  C
  C36      1.0000 0.39607  0.19193  0.49801  Biso   1.000  C
  C37      1.0000 0.64370  0.82250  0.65410  Biso   1.000  C
  C38      1.0000 0.17750  0.82120  0.65410  Biso   1.000  C
  C39      1.0000 0.17880  0.35630  0.65410  Biso   1.000  C
  C40      1.0000 0.82250  0.64370  0.84590  Biso   1.000  C
  C41      1.0000 0.31037  0.15583  0.98743  Biso   1.000  C
  C42      1.0000 0.84417  0.15453  0.98743  Biso   1.000  C
  C43      1.0000 0.84547  0.68963  0.98743  Biso   1.000  C
  C44      1.0000 0.48917  0.97703  0.17923  Biso   1.000  C
  C45      1.0000 0.97703  0.48917  0.32077  Biso   1.000  C
  C46      1.0000 0.15583  0.31037  0.51257  Biso   1.000  C
  C47      1.0000 0.82120  0.17750  0.84590  Biso   1.000  C
  C48      1.0000 0.35630  0.17880  0.84590  Biso   1.000  C
  C49      1.0000 0.51083  0.48787  0.32077  Biso   1.000  C
  C50      1.0000 0.51213  0.02297  0.32077  Biso   1.000  C
  C51      1.0000 0.15453  0.84417  0.51257  Biso   1.000  C
  C52      1.0000 0.68963  0.84547  0.51257  Biso   1.000  C
  C53      1.0000 0.48787  0.51083  0.17923  Biso   1.000  C
  C54      1.0000 0.02297  0.51213  0.17923  Biso   1.000  C
  C55      1.0000 0.35630  0.17750  0.34590  Biso   1.000  C
  C56      1.0000 0.82250  0.17880  0.34590  Biso   1.000  C
  C57      1.0000 0.82120  0.64370  0.34590  Biso   1.000  C
  C58      1.0000 0.17750  0.35630  0.15410  Biso   1.000  C
  C59      1.0000 0.02297  0.51083  0.67923  Biso   1.000  C
  C60      1.0000 0.48917  0.51213  0.67923  Biso   1.000  C
  C61      1.0000 0.48787  0.97703  0.67923  Biso   1.000  C
  C62      1.0000 0.84417  0.68963  0.48743  Biso   1.000  C
  C63      1.0000 0.68963  0.84417  0.01257  Biso   1.000  C
  C64      1.0000 0.51083  0.02297  0.82077  Biso   1.000  C
  C65      1.0000 0.17880  0.82250  0.15410  Biso   1.000  C
  C66      1.0000 0.64370  0.82120  0.15410  Biso   1.000  C
  C67      1.0000 0.15583  0.84547  0.01257  Biso   1.000  C
  C68      1.0000 0.15453  0.31037  0.01257  Biso   1.000  C
  C69      1.0000 0.51213  0.48917  0.82077  Biso   1.000  C
  C70      1.0000 0.97703  0.48787  0.82077  Biso   1.000  C
  C71      1.0000 0.84547  0.15583  0.48743  Biso   1.000  C
  C72      1.0000 0.31037  0.15453  0.48743  Biso   1.000  C
  C73      1.0000 0.57770  0.72090  0.65456  Biso   1.000  C
  C74      1.0000 0.27910  0.85680  0.65456  Biso   1.000  C
  C75      1.0000 0.14320  0.42230  0.65456  Biso   1.000  C
  C76      1.0000 0.72090  0.57770  0.84544  Biso   1.000  C
  C77      1.0000 0.24437  0.05423  0.98789  Biso   1.000  C
  C78      1.0000 0.94577  0.19013  0.98789  Biso   1.000  C
  C79      1.0000 0.80987  0.75563  0.98789  Biso   1.000  C
  C80      1.0000 0.38757  0.91103  0.17877  Biso   1.000  C
  C81      1.0000 0.91103  0.38757  0.32123  Biso   1.000  C
  C82      1.0000 0.05423  0.24437  0.51211  Biso   1.000  C
  C83      1.0000 0.85680  0.27910  0.84544  Biso   1.000  C
  C84      1.0000 0.42230  0.14320  0.84544  Biso   1.000  C
  C85      1.0000 0.61243  0.52347  0.32123  Biso   1.000  C
  C86      1.0000 0.47653  0.08897  0.32123  Biso   1.000  C
  C87      1.0000 0.19013  0.94577  0.51211  Biso   1.000  C
  C88      1.0000 0.75563  0.80987  0.51211  Biso   1.000  C
  C89      1.0000 0.52347  0.61243  0.17877  Biso   1.000  C
  C90      1.0000 0.08897  0.47653  0.17877  Biso   1.000  C
  C91      1.0000 0.42230  0.27910  0.34544  Biso   1.000  C
  C92      1.0000 0.72090  0.14320  0.34544  Biso   1.000  C
  C93      1.0000 0.85680  0.57770  0.34544  Biso   1.000  C
  C94      1.0000 0.27910  0.42230  0.15456  Biso   1.000  C
  C95      1.0000 0.08897  0.61243  0.67877  Biso   1.000  C
  C96      1.0000 0.38757  0.47653  0.67877  Biso   1.000  C
  C97      1.0000 0.52347  0.91103  0.67877  Biso   1.000  C
  C98      1.0000 0.94577  0.75563  0.48789  Biso   1.000  C
  C99      1.0000 0.75563  0.94577  0.01211  Biso   1.000  C
  C100     1.0000 0.61243  0.08897  0.82123  Biso   1.000  C
  C101     1.0000 0.14320  0.72090  0.15456  Biso   1.000  C
  C102     1.0000 0.57770  0.85680  0.15456  Biso   1.000  C
  C103     1.0000 0.05423  0.80987  0.01211  Biso   1.000  C
  C104     1.0000 0.19013  0.24437  0.01211  Biso   1.000  C
  C105     1.0000 0.47653  0.38757  0.82123  Biso   1.000  C
  C106     1.0000 0.91103  0.52347  0.82123  Biso   1.000  C
  C107     1.0000 0.80987  0.05423  0.48789  Biso   1.000  C
  C108     1.0000 0.24437  0.19013  0.48789  Biso   1.000  C
  H1       1.0000 0.58850  0.68050  0.66090  Biso   1.000  H
  H2       1.0000 0.31950  0.90800  0.66090  Biso   1.000  H
  H3       1.0000 0.09200  0.41150  0.66090  Biso   1.000  H
  H4       1.0000 0.68050  0.58850  0.83910  Biso   1.000  H
  H5       1.0000 0.25517  0.01383  0.99423  Biso   1.000  H
  H6       1.0000 0.98617  0.24133  0.99423  Biso   1.000  H
  H7       1.0000 0.75867  0.74483  0.99423  Biso   1.000  H
  H8       1.0000 0.34717  0.92183  0.17243  Biso   1.000  H
  H9       1.0000 0.92183  0.34717  0.32757  Biso   1.000  H
  H10      1.0000 0.01383  0.25517  0.50577  Biso   1.000  H
  H11      1.0000 0.90800  0.31950  0.83910  Biso   1.000  H
  H12      1.0000 0.41150  0.09200  0.83910  Biso   1.000  H
  H13      1.0000 0.65283  0.57467  0.32757  Biso   1.000  H
  H14      1.0000 0.42533  0.07817  0.32757  Biso   1.000  H
  H15      1.0000 0.24133  0.98617  0.50577  Biso   1.000  H
  H16      1.0000 0.74483  0.75867  0.50577  Biso   1.000  H
  H17      1.0000 0.57467  0.65283  0.17243  Biso   1.000  H
  H18      1.0000 0.07817  0.42533  0.17243  Biso   1.000  H
  H19      1.0000 0.41150  0.31950  0.33910  Biso   1.000  H
  H20      1.0000 0.68050  0.09200  0.33910  Biso   1.000  H
  H21      1.0000 0.90800  0.58850  0.33910  Biso   1.000  H
  H22      1.0000 0.31950  0.41150  0.16090  Biso   1.000  H
  H23      1.0000 0.07817  0.65283  0.67243  Biso   1.000  H
  H24      1.0000 0.34717  0.42533  0.67243  Biso   1.000  H
  H25      1.0000 0.57467  0.92183  0.67243  Biso   1.000  H
  H26      1.0000 0.98617  0.74483  0.49423  Biso   1.000  H
  H27      1.0000 0.74483  0.98617  0.00577  Biso   1.000  H
  H28      1.0000 0.65283  0.07817  0.82757  Biso   1.000  H
  H29      1.0000 0.09200  0.68050  0.16090  Biso   1.000  H
  H30      1.0000 0.58850  0.90800  0.16090  Biso   1.000  H
  H31      1.0000 0.01383  0.75867  0.00577  Biso   1.000  H
  H32      1.0000 0.24133  0.25517  0.00577  Biso   1.000  H
  H33      1.0000 0.42533  0.34717  0.82757  Biso   1.000  H
  H34      1.0000 0.92183  0.57467  0.82757  Biso   1.000  H
  H35      1.0000 0.75867  0.01383  0.49423  Biso   1.000  H
  H36      1.0000 0.25517  0.24133  0.49423  Biso   1.000  H
  C109     1.0000 0.49540  0.67850  0.64563  Biso   1.000  C
  C110     1.0000 0.32150  0.81690  0.64563  Biso   1.000  C
  C111     1.0000 0.18310  0.50460  0.64563  Biso   1.000  C
  C112     1.0000 0.67850  0.49540  0.85437  Biso   1.000  C
  C113     1.0000 0.16207  0.01183  0.97896  Biso   1.000  C
  C114     1.0000 0.98817  0.15023  0.97896  Biso   1.000  C
  C115     1.0000 0.84977  0.83793  0.97896  Biso   1.000  C
  C116     1.0000 0.34517  0.82873  0.18770  Biso   1.000  C
  C117     1.0000 0.82873  0.34517  0.31230  Biso   1.000  C
  C118     1.0000 0.01183  0.16207  0.52104  Biso   1.000  C
  C119     1.0000 0.81690  0.32150  0.85437  Biso   1.000  C
  C120     1.0000 0.50460  0.18310  0.85437  Biso   1.000  C
  C121     1.0000 0.65483  0.48357  0.31230  Biso   1.000  C
  C122     1.0000 0.51643  0.17127  0.31230  Biso   1.000  C
  C123     1.0000 0.15023  0.98817  0.52104  Biso   1.000  C
  C124     1.0000 0.83793  0.84977  0.52104  Biso   1.000  C
  C125     1.0000 0.48357  0.65483  0.18770  Biso   1.000  C
  C126     1.0000 0.17127  0.51643  0.18770  Biso   1.000  C
  C127     1.0000 0.50460  0.32150  0.35437  Biso   1.000  C
  C128     1.0000 0.67850  0.18310  0.35437  Biso   1.000  C
  C129     1.0000 0.81690  0.49540  0.35437  Biso   1.000  C
  C130     1.0000 0.32150  0.50460  0.14563  Biso   1.000  C
  C131     1.0000 0.17127  0.65483  0.68770  Biso   1.000  C
  C132     1.0000 0.34517  0.51643  0.68770  Biso   1.000  C
  C133     1.0000 0.48357  0.82873  0.68770  Biso   1.000  C
  C134     1.0000 0.98817  0.83793  0.47896  Biso   1.000  C
  C135     1.0000 0.83793  0.98817  0.02104  Biso   1.000  C
  C136     1.0000 0.65483  0.17127  0.81230  Biso   1.000  C
  C137     1.0000 0.18310  0.67850  0.14563  Biso   1.000  C
  C138     1.0000 0.49540  0.81690  0.14563  Biso   1.000  C
  C139     1.0000 0.01183  0.84977  0.02104  Biso   1.000  C
  C140     1.0000 0.15023  0.16207  0.02104  Biso   1.000  C
  C141     1.0000 0.51643  0.34517  0.81230  Biso   1.000  C
  C142     1.0000 0.82873  0.48357  0.81230  Biso   1.000  C
  C143     1.0000 0.84977  0.01183  0.47896  Biso   1.000  C
  C144     1.0000 0.16207  0.15023  0.47896  Biso   1.000  C
  H37      1.0000 0.45000  0.60970  0.64660  Biso   1.000  H
  H38      1.0000 0.39030  0.84030  0.64660  Biso   1.000  H
  H39      1.0000 0.15970  0.55000  0.64660  Biso   1.000  H
  H40      1.0000 0.60970  0.45000  0.85340  Biso   1.000  H
  H41      1.0000 0.11667  0.94303  0.97993  Biso   1.000  H
  H42      1.0000 0.05697  0.17363  0.97993  Biso   1.000  H
  H43      1.0000 0.82637  0.88333  0.97993  Biso   1.000  H
  H44      1.0000 0.27637  0.78333  0.18673  Biso   1.000  H
  H45      1.0000 0.78333  0.27637  0.31327  Biso   1.000  H
  H46      1.0000 0.94303  0.11667  0.52007  Biso   1.000  H
  H47      1.0000 0.84030  0.39030  0.85340  Biso   1.000  H
  H48      1.0000 0.55000  0.15970  0.85340  Biso   1.000  H
  H49      1.0000 0.72363  0.50697  0.31327  Biso   1.000  H
  H50      1.0000 0.49303  0.21667  0.31327  Biso   1.000  H
  H51      1.0000 0.17363  0.05697  0.52007  Biso   1.000  H
  H52      1.0000 0.88333  0.82637  0.52007  Biso   1.000  H
  H53      1.0000 0.50697  0.72363  0.18673  Biso   1.000  H
  H54      1.0000 0.21667  0.49303  0.18673  Biso   1.000  H
  H55      1.0000 0.55000  0.39030  0.35340  Biso   1.000  H
  H56      1.0000 0.60970  0.15970  0.35340  Biso   1.000  H
  H57      1.0000 0.84030  0.45000  0.35340  Biso   1.000  H
  H58      1.0000 0.39030  0.55000  0.14660  Biso   1.000  H
  H59      1.0000 0.21667  0.72363  0.68673  Biso   1.000  H
  H60      1.0000 0.27637  0.49303  0.68673  Biso   1.000  H
  H61      1.0000 0.50697  0.78333  0.68673  Biso   1.000  H
  H62      1.0000 0.05697  0.88333  0.47993  Biso   1.000  H
  H63      1.0000 0.88333  0.05697  0.02007  Biso   1.000  H
  H64      1.0000 0.72363  0.21667  0.81327  Biso   1.000  H
  H65      1.0000 0.15970  0.60970  0.14660  Biso   1.000  H
  H66      1.0000 0.45000  0.84030  0.14660  Biso   1.000  H
  H67      1.0000 0.94303  0.82637  0.02007  Biso   1.000  H
  H68      1.0000 0.17363  0.11667  0.02007  Biso   1.000  H
  H69      1.0000 0.49303  0.27637  0.81327  Biso   1.000  H
  H70      1.0000 0.78333  0.50697  0.81327  Biso   1.000  H
  H71      1.0000 0.82637  0.94303  0.47993  Biso   1.000  H
  H72      1.0000 0.11667  0.17363  0.47993  Biso   1.000  H
  C145     1.0000 0.54490  0.82780  0.63469  Biso   1.000  C
  C146     1.0000 0.17220  0.71710  0.63469  Biso   1.000  C
  C147     1.0000 0.28290  0.45510  0.63469  Biso   1.000  C
  C148     1.0000 0.82780  0.54490  0.86531  Biso   1.000  C
  C149     1.0000 0.21157  0.16113  0.96802  Biso   1.000  C
  C150     1.0000 0.83887  0.05043  0.96802  Biso   1.000  C
  C151     1.0000 0.94957  0.78843  0.96802  Biso   1.000  C
  C152     1.0000 0.49447  0.87823  0.19864  Biso   1.000  C
  C153     1.0000 0.87823  0.49447  0.30136  Biso   1.000  C
  C154     1.0000 0.16113  0.21157  0.53198  Biso   1.000  C
  C155     1.0000 0.71710  0.17220  0.86531  Biso   1.000  C
  C156     1.0000 0.45510  0.28290  0.86531  Biso   1.000  C
  C157     1.0000 0.50553  0.38377  0.30136  Biso   1.000  C
  C158     1.0000 0.61623  0.12177  0.30136  Biso   1.000  C
  C159     1.0000 0.05043  0.83887  0.53198  Biso   1.000  C
  C160     1.0000 0.78843  0.94957  0.53198  Biso   1.000  C
  C161     1.0000 0.38377  0.50553  0.19864  Biso   1.000  C
  C162     1.0000 0.12177  0.61623  0.19864  Biso   1.000  C
  C163     1.0000 0.45510  0.17220  0.36531  Biso   1.000  C
  C164     1.0000 0.82780  0.28290  0.36531  Biso   1.000  C
  C165     1.0000 0.71710  0.54490  0.36531  Biso   1.000  C
  C166     1.0000 0.17220  0.45510  0.13469  Biso   1.000  C
  C167     1.0000 0.12177  0.50553  0.69864  Biso   1.000  C
  C168     1.0000 0.49447  0.61623  0.69864  Biso   1.000  C
  C169     1.0000 0.38377  0.87823  0.69864  Biso   1.000  C
  C170     1.0000 0.83887  0.78843  0.46802  Biso   1.000  C
  C171     1.0000 0.78843  0.83887  0.03198  Biso   1.000  C
  C172     1.0000 0.50553  0.12177  0.80136  Biso   1.000  C
  C173     1.0000 0.28290  0.82780  0.13469  Biso   1.000  C
  C174     1.0000 0.54490  0.71710  0.13469  Biso   1.000  C
  C175     1.0000 0.16113  0.94957  0.03198  Biso   1.000  C
  C176     1.0000 0.05043  0.21157  0.03198  Biso   1.000  C
  C177     1.0000 0.61623  0.49447  0.80136  Biso   1.000  C
  C178     1.0000 0.87823  0.38377  0.80136  Biso   1.000  C
  C179     1.0000 0.94957  0.16113  0.46802  Biso   1.000  C
  C180     1.0000 0.21157  0.05043  0.46802  Biso   1.000  C
  H73      1.0000 0.53680  0.86480  0.62750  Biso   1.000  H
  H74      1.0000 0.13520  0.67200  0.62750  Biso   1.000  H
  H75      1.0000 0.32800  0.46320  0.62750  Biso   1.000  H
  H76      1.0000 0.86480  0.53680  0.87250  Biso   1.000  H
  H77      1.0000 0.20347  0.19813  0.96083  Biso   1.000  H
  H78      1.0000 0.80187  0.00533  0.96083  Biso   1.000  H
  H79      1.0000 0.99467  0.79653  0.96083  Biso   1.000  H
  H80      1.0000 0.53147  0.87013  0.20583  Biso   1.000  H
  H81      1.0000 0.87013  0.53147  0.29417  Biso   1.000  H
  H82      1.0000 0.19813  0.20347  0.53917  Biso   1.000  H
  H83      1.0000 0.67200  0.13520  0.87250  Biso   1.000  H
  H84      1.0000 0.46320  0.32800  0.87250  Biso   1.000  H
  H85      1.0000 0.46853  0.33867  0.29417  Biso   1.000  H
  H86      1.0000 0.66133  0.12987  0.29417  Biso   1.000  H
  H87      1.0000 0.00533  0.80187  0.53917  Biso   1.000  H
  H88      1.0000 0.79653  0.99467  0.53917  Biso   1.000  H
  H89      1.0000 0.33867  0.46853  0.20583  Biso   1.000  H
  H90      1.0000 0.12987  0.66133  0.20583  Biso   1.000  H
  H91      1.0000 0.46320  0.13520  0.37250  Biso   1.000  H
  H92      1.0000 0.86480  0.32800  0.37250  Biso   1.000  H
  H93      1.0000 0.67200  0.53680  0.37250  Biso   1.000  H
  H94      1.0000 0.13520  0.46320  0.12750  Biso   1.000  H
  H95      1.0000 0.12987  0.46853  0.70583  Biso   1.000  H
  H96      1.0000 0.53147  0.66133  0.70583  Biso   1.000  H
  H97      1.0000 0.33867  0.87013  0.70583  Biso   1.000  H
  H98      1.0000 0.80187  0.79653  0.46083  Biso   1.000  H
  H99      1.0000 0.79653  0.80187  0.03917  Biso   1.000  H
  H100     1.0000 0.46853  0.12987  0.79417  Biso   1.000  H
  H101     1.0000 0.32800  0.86480  0.12750  Biso   1.000  H
  H102     1.0000 0.53680  0.67200  0.12750  Biso   1.000  H
  H103     1.0000 0.19813  0.99467  0.03917  Biso   1.000  H
  H104     1.0000 0.00533  0.20347  0.03917  Biso   1.000  H
  H105     1.0000 0.66133  0.53147  0.79417  Biso   1.000  H
  H106     1.0000 0.87013  0.33867  0.79417  Biso   1.000  H
  H107     1.0000 0.99467  0.19813  0.46083  Biso   1.000  H
  H108     1.0000 0.20347  0.00533  0.46083  Biso   1.000  H
  C181     1.0000 0.62660  0.87720  0.64376  Biso   1.000  C
  C182     1.0000 0.12280  0.74940  0.64376  Biso   1.000  C
  C183     1.0000 0.25060  0.37340  0.64376  Biso   1.000  C
  C184     1.0000 0.87720  0.62660  0.85624  Biso   1.000  C
  C185     1.0000 0.29327  0.21053  0.97709  Biso   1.000  C
  C186     1.0000 0.78947  0.08273  0.97709  Biso   1.000  C
  C187     1.0000 0.91727  0.70673  0.97709  Biso   1.000  C
  C188     1.0000 0.54387  0.95993  0.18957  Biso   1.000  C
  C189     1.0000 0.95993  0.54387  0.31043  Biso   1.000  C
  C190     1.0000 0.21053  0.29327  0.52291  Biso   1.000  C
  C191     1.0000 0.74940  0.12280  0.85624  Biso   1.000  C
  C192     1.0000 0.37340  0.25060  0.85624  Biso   1.000  C
  C193     1.0000 0.45613  0.41607  0.31043  Biso   1.000  C
  C194     1.0000 0.58393  0.04007  0.31043  Biso   1.000  C
  C195     1.0000 0.08273  0.78947  0.52291  Biso   1.000  C
  C196     1.0000 0.70673  0.91727  0.52291  Biso   1.000  C
  C197     1.0000 0.41607  0.45613  0.18957  Biso   1.000  C
  C198     1.0000 0.04007  0.58393  0.18957  Biso   1.000  C
  C199     1.0000 0.37340  0.12280  0.35624  Biso   1.000  C
  C200     1.0000 0.87720  0.25060  0.35624  Biso   1.000  C
  C201     1.0000 0.74940  0.62660  0.35624  Biso   1.000  C
  C202     1.0000 0.12280  0.37340  0.14376  Biso   1.000  C
  C203     1.0000 0.04007  0.45613  0.68957  Biso   1.000  C
  C204     1.0000 0.54387  0.58393  0.68957  Biso   1.000  C
  C205     1.0000 0.41607  0.95993  0.68957  Biso   1.000  C
  C206     1.0000 0.78947  0.70673  0.47709  Biso   1.000  C
  C207     1.0000 0.70673  0.78947  0.02291  Biso   1.000  C
  C208     1.0000 0.45613  0.04007  0.81043  Biso   1.000  C
  C209     1.0000 0.25060  0.87720  0.14376  Biso   1.000  C
  C210     1.0000 0.62660  0.74940  0.14376  Biso   1.000  C
  C211     1.0000 0.21053  0.91727  0.02291  Biso   1.000  C
  C212     1.0000 0.08273  0.29327  0.02291  Biso   1.000  C
  C213     1.0000 0.58393  0.54387  0.81043  Biso   1.000  C
  C214     1.0000 0.95993  0.41607  0.81043  Biso   1.000  C
  C215     1.0000 0.91727  0.21053  0.47709  Biso   1.000  C
  C216     1.0000 0.29327  0.08273  0.47709  Biso   1.000  C
  H109     1.0000 0.66980  0.94650  0.64300  Biso   1.000  H
  H110     1.0000 0.05350  0.72330  0.64300  Biso   1.000  H
  H111     1.0000 0.27670  0.33020  0.64300  Biso   1.000  H
  H112     1.0000 0.94650  0.66980  0.85700  Biso   1.000  H
  H113     1.0000 0.33647  0.27983  0.97633  Biso   1.000  H
  H114     1.0000 0.72017  0.05663  0.97633  Biso   1.000  H
  H115     1.0000 0.94337  0.66353  0.97633  Biso   1.000  H
  H116     1.0000 0.61317  0.00313  0.19033  Biso   1.000  H
  H117     1.0000 0.00313  0.61317  0.30967  Biso   1.000  H
  H118     1.0000 0.27983  0.33647  0.52367  Biso   1.000  H
  H119     1.0000 0.72330  0.05350  0.85700  Biso   1.000  H
  H120     1.0000 0.33020  0.27670  0.85700  Biso   1.000  H
  H121     1.0000 0.38683  0.38997  0.30967  Biso   1.000  H
  H122     1.0000 0.61003  0.99687  0.30967  Biso   1.000  H
  H123     1.0000 0.05663  0.72017  0.52367  Biso   1.000  H
  H124     1.0000 0.66353  0.94337  0.52367  Biso   1.000  H
  H125     1.0000 0.38997  0.38683  0.19033  Biso   1.000  H
  H126     1.0000 0.99687  0.61003  0.19033  Biso   1.000  H
  H127     1.0000 0.33020  0.05350  0.35700  Biso   1.000  H
  H128     1.0000 0.94650  0.27670  0.35700  Biso   1.000  H
  H129     1.0000 0.72330  0.66980  0.35700  Biso   1.000  H
  H130     1.0000 0.05350  0.33020  0.14300  Biso   1.000  H
  H131     1.0000 0.99687  0.38683  0.69033  Biso   1.000  H
  H132     1.0000 0.61317  0.61003  0.69033  Biso   1.000  H
  H133     1.0000 0.38997  0.00313  0.69033  Biso   1.000  H
  H134     1.0000 0.72017  0.66353  0.47633  Biso   1.000  H
  H135     1.0000 0.66353  0.72017  0.02367  Biso   1.000  H
  H136     1.0000 0.38683  0.99687  0.80967  Biso   1.000  H
  H137     1.0000 0.27670  0.94650  0.14300  Biso   1.000  H
  H138     1.0000 0.66980  0.72330  0.14300  Biso   1.000  H
  H139     1.0000 0.27983  0.94337  0.02367  Biso   1.000  H
  H140     1.0000 0.05663  0.33647  0.02367  Biso   1.000  H
  H141     1.0000 0.61003  0.61317  0.80967  Biso   1.000  H
  H142     1.0000 0.00313  0.38997  0.80967  Biso   1.000  H
  H143     1.0000 0.94337  0.27983  0.47633  Biso   1.000  H
  H144     1.0000 0.33647  0.05663  0.47633  Biso   1.000  H
  C217     1.0000 0.59240  0.14100  0.63212  Biso   1.000  C
  C218     1.0000 0.85900  0.45140  0.63212  Biso   1.000  C
  C219     1.0000 0.54860  0.40760  0.63212  Biso   1.000  C
  C220     1.0000 0.14100  0.59240  0.86788  Biso   1.000  C
  C221     1.0000 0.25907  0.47433  0.96545  Biso   1.000  C
  C222     1.0000 0.52567  0.78473  0.96545  Biso   1.000  C
  C223     1.0000 0.21527  0.74093  0.96545  Biso   1.000  C
  C224     1.0000 0.80767  0.92573  0.20121  Biso   1.000  C
  C225     1.0000 0.92573  0.80767  0.29879  Biso   1.000  C
  C226     1.0000 0.47433  0.25907  0.53455  Biso   1.000  C
  C227     1.0000 0.45140  0.85900  0.86788  Biso   1.000  C
  C228     1.0000 0.40760  0.54860  0.86788  Biso   1.000  C
  C229     1.0000 0.19233  0.11807  0.29879  Biso   1.000  C
  C230     1.0000 0.88193  0.07427  0.29879  Biso   1.000  C
  C231     1.0000 0.78473  0.52567  0.53455  Biso   1.000  C
  C232     1.0000 0.74093  0.21527  0.53455  Biso   1.000  C
  C233     1.0000 0.11807  0.19233  0.20121  Biso   1.000  C
  C234     1.0000 0.07427  0.88193  0.20121  Biso   1.000  C
  C235     1.0000 0.40760  0.85900  0.36788  Biso   1.000  C
  C236     1.0000 0.14100  0.54860  0.36788  Biso   1.000  C
  C237     1.0000 0.45140  0.59240  0.36788  Biso   1.000  C
  C238     1.0000 0.85900  0.40760  0.13212  Biso   1.000  C
  C239     1.0000 0.07427  0.19233  0.70121  Biso   1.000  C
  C240     1.0000 0.80767  0.88193  0.70121  Biso   1.000  C
  C241     1.0000 0.11807  0.92573  0.70121  Biso   1.000  C
  C242     1.0000 0.52567  0.74093  0.46545  Biso   1.000  C
  C243     1.0000 0.74093  0.52567  0.03455  Biso   1.000  C
  C244     1.0000 0.19233  0.07427  0.79879  Biso   1.000  C
  C245     1.0000 0.54860  0.14100  0.13212  Biso   1.000  C
  C246     1.0000 0.59240  0.45140  0.13212  Biso   1.000  C
  C247     1.0000 0.47433  0.21527  0.03455  Biso   1.000  C
  C248     1.0000 0.78473  0.25907  0.03455  Biso   1.000  C
  C249     1.0000 0.88193  0.80767  0.79879  Biso   1.000  C
  C250     1.0000 0.92573  0.11807  0.79879  Biso   1.000  C
  C251     1.0000 0.21527  0.47433  0.46545  Biso   1.000  C
  C252     1.0000 0.25907  0.78473  0.46545  Biso   1.000  C
  C253     1.0000 0.52250  0.06600  0.62141  Biso   1.000  C
  C254     1.0000 0.93400  0.45650  0.62141  Biso   1.000  C
  C255     1.0000 0.54350  0.47750  0.62141  Biso   1.000  C
  C256     1.0000 0.06600  0.52250  0.87859  Biso   1.000  C
  C257     1.0000 0.18917  0.39933  0.95474  Biso   1.000  C
  C258     1.0000 0.60067  0.78983  0.95474  Biso   1.000  C
  C259     1.0000 0.21017  0.81083  0.95474  Biso   1.000  C
  C260     1.0000 0.73267  0.85583  0.21192  Biso   1.000  C
  C261     1.0000 0.85583  0.73267  0.28808  Biso   1.000  C
  C262     1.0000 0.39933  0.18917  0.54526  Biso   1.000  C
  C263     1.0000 0.45650  0.93400  0.87859  Biso   1.000  C
  C264     1.0000 0.47750  0.54350  0.87859  Biso   1.000  C
  C265     1.0000 0.26733  0.12317  0.28808  Biso   1.000  C
  C266     1.0000 0.87683  0.14417  0.28808  Biso   1.000  C
  C267     1.0000 0.78983  0.60067  0.54526  Biso   1.000  C
  C268     1.0000 0.81083  0.21017  0.54526  Biso   1.000  C
  C269     1.0000 0.12317  0.26733  0.21192  Biso   1.000  C
  C270     1.0000 0.14417  0.87683  0.21192  Biso   1.000  C
  C271     1.0000 0.47750  0.93400  0.37859  Biso   1.000  C
  C272     1.0000 0.06600  0.54350  0.37859  Biso   1.000  C
  C273     1.0000 0.45650  0.52250  0.37859  Biso   1.000  C
  C274     1.0000 0.93400  0.47750  0.12141  Biso   1.000  C
  C275     1.0000 0.14417  0.26733  0.71192  Biso   1.000  C
  C276     1.0000 0.73267  0.87683  0.71192  Biso   1.000  C
  C277     1.0000 0.12317  0.85583  0.71192  Biso   1.000  C
  C278     1.0000 0.60067  0.81083  0.45474  Biso   1.000  C
  C279     1.0000 0.81083  0.60067  0.04526  Biso   1.000  C
  C280     1.0000 0.26733  0.14417  0.78808  Biso   1.000  C
  C281     1.0000 0.54350  0.06600  0.12141  Biso   1.000  C
  C282     1.0000 0.52250  0.45650  0.12141  Biso   1.000  C
  C283     1.0000 0.39933  0.21017  0.04526  Biso   1.000  C
  C284     1.0000 0.78983  0.18917  0.04526  Biso   1.000  C
  C285     1.0000 0.87683  0.73267  0.78808  Biso   1.000  C
  C286     1.0000 0.85583  0.12317  0.78808  Biso   1.000  C
  C287     1.0000 0.21017  0.39933  0.45474  Biso   1.000  C
  C288     1.0000 0.18917  0.78983  0.45474  Biso   1.000  C
  C289     1.0000 0.41930  0.02520  0.62255  Biso   1.000  C
  C290     1.0000 0.97480  0.39410  0.62255  Biso   1.000  C
  C291     1.0000 0.60590  0.58070  0.62255  Biso   1.000  C
  C292     1.0000 0.02520  0.41930  0.87745  Biso   1.000  C
  C293     1.0000 0.08597  0.35853  0.95588  Biso   1.000  C
  C294     1.0000 0.64147  0.72743  0.95588  Biso   1.000  C
  C295     1.0000 0.27257  0.91403  0.95588  Biso   1.000  C
  C296     1.0000 0.69187  0.75263  0.21078  Biso   1.000  C
  C297     1.0000 0.75263  0.69187  0.28922  Biso   1.000  C
  C298     1.0000 0.35853  0.08597  0.54412  Biso   1.000  C
  C299     1.0000 0.39410  0.97480  0.87745  Biso   1.000  C
  C300     1.0000 0.58070  0.60590  0.87745  Biso   1.000  C
  C301     1.0000 0.30813  0.06077  0.28922  Biso   1.000  C
  C302     1.0000 0.93923  0.24737  0.28922  Biso   1.000  C
  C303     1.0000 0.72743  0.64147  0.54412  Biso   1.000  C
  C304     1.0000 0.91403  0.27257  0.54412  Biso   1.000  C
  C305     1.0000 0.06077  0.30813  0.21078  Biso   1.000  C
  C306     1.0000 0.24737  0.93923  0.21078  Biso   1.000  C
  C307     1.0000 0.58070  0.97480  0.37745  Biso   1.000  C
  C308     1.0000 0.02520  0.60590  0.37745  Biso   1.000  C
  C309     1.0000 0.39410  0.41930  0.37745  Biso   1.000  C
  C310     1.0000 0.97480  0.58070  0.12255  Biso   1.000  C
  C311     1.0000 0.24737  0.30813  0.71078  Biso   1.000  C
  C312     1.0000 0.69187  0.93923  0.71078  Biso   1.000  C
  C313     1.0000 0.06077  0.75263  0.71078  Biso   1.000  C
  C314     1.0000 0.64147  0.91403  0.45588  Biso   1.000  C
  C315     1.0000 0.91403  0.64147  0.04412  Biso   1.000  C
  C316     1.0000 0.30813  0.24737  0.78922  Biso   1.000  C
  C317     1.0000 0.60590  0.02520  0.12255  Biso   1.000  C
  C318     1.0000 0.41930  0.39410  0.12255  Biso   1.000  C
  C319     1.0000 0.35853  0.27257  0.04412  Biso   1.000  C
  C320     1.0000 0.72743  0.08597  0.04412  Biso   1.000  C
  C321     1.0000 0.93923  0.69187  0.78922  Biso   1.000  C
  C322     1.0000 0.75263  0.06077  0.78922  Biso   1.000  C
  C323     1.0000 0.27257  0.35853  0.45588  Biso   1.000  C
  C324     1.0000 0.08597  0.72743  0.45588  Biso   1.000  C
  H145     1.0000 0.39200  0.04440  0.63000  Biso   1.000  H
  H146     1.0000 0.95560  0.34760  0.63000  Biso   1.000  H
  H147     1.0000 0.65240  0.60800  0.63000  Biso   1.000  H
  H148     1.0000 0.04440  0.39200  0.87000  Biso   1.000  H
  H149     1.0000 0.05867  0.37773  0.96333  Biso   1.000  H
  H150     1.0000 0.62227  0.68093  0.96333  Biso   1.000  H
  H151     1.0000 0.31907  0.94133  0.96333  Biso   1.000  H
  H152     1.0000 0.71107  0.72533  0.20333  Biso   1.000  H
  H153     1.0000 0.72533  0.71107  0.29667  Biso   1.000  H
  H154     1.0000 0.37773  0.05867  0.53667  Biso   1.000  H
  H155     1.0000 0.34760  0.95560  0.87000  Biso   1.000  H
  H156     1.0000 0.60800  0.65240  0.87000  Biso   1.000  H
  H157     1.0000 0.28893  0.01427  0.29667  Biso   1.000  H
  H158     1.0000 0.98573  0.27467  0.29667  Biso   1.000  H
  H159     1.0000 0.68093  0.62227  0.53667  Biso   1.000  H
  H160     1.0000 0.94133  0.31907  0.53667  Biso   1.000  H
  H161     1.0000 0.01427  0.28893  0.20333  Biso   1.000  H
  H162     1.0000 0.27467  0.98573  0.20333  Biso   1.000  H
  H163     1.0000 0.60800  0.95560  0.37000  Biso   1.000  H
  H164     1.0000 0.04440  0.65240  0.37000  Biso   1.000  H
  H165     1.0000 0.34760  0.39200  0.37000  Biso   1.000  H
  H166     1.0000 0.95560  0.60800  0.13000  Biso   1.000  H
  H167     1.0000 0.27467  0.28893  0.70333  Biso   1.000  H
  H168     1.0000 0.71107  0.98573  0.70333  Biso   1.000  H
  H169     1.0000 0.01427  0.72533  0.70333  Biso   1.000  H
  H170     1.0000 0.62227  0.94133  0.46333  Biso   1.000  H
  H171     1.0000 0.94133  0.62227  0.03667  Biso   1.000  H
  H172     1.0000 0.28893  0.27467  0.79667  Biso   1.000  H
  H173     1.0000 0.65240  0.04440  0.13000  Biso   1.000  H
  H174     1.0000 0.39200  0.34760  0.13000  Biso   1.000  H
  H175     1.0000 0.37773  0.31907  0.03667  Biso   1.000  H
  H176     1.0000 0.68093  0.05867  0.03667  Biso   1.000  H
  H177     1.0000 0.98573  0.71107  0.79667  Biso   1.000  H
  H178     1.0000 0.72533  0.01427  0.79667  Biso   1.000  H
  H179     1.0000 0.31907  0.37773  0.46333  Biso   1.000  H
  H180     1.0000 0.05867  0.68093  0.46333  Biso   1.000  H
  C325     1.0000 0.35800  0.95620  0.61257  Biso   1.000  C
  C326     1.0000 0.04380  0.40180  0.61257  Biso   1.000  C
  C327     1.0000 0.59820  0.64200  0.61257  Biso   1.000  C
  C328     1.0000 0.95620  0.35800  0.88743  Biso   1.000  C
  C329     1.0000 0.02467  0.28953  0.94590  Biso   1.000  C
  C330     1.0000 0.71047  0.73513  0.94590  Biso   1.000  C
  C331     1.0000 0.26487  0.97533  0.94590  Biso   1.000  C
  C332     1.0000 0.62287  0.69133  0.22076  Biso   1.000  C
  C333     1.0000 0.69133  0.62287  0.27924  Biso   1.000  C
  C334     1.0000 0.28953  0.02467  0.55410  Biso   1.000  C
  C335     1.0000 0.40180  0.04380  0.88743  Biso   1.000  C
  C336     1.0000 0.64200  0.59820  0.88743  Biso   1.000  C
  C337     1.0000 0.37713  0.06847  0.27924  Biso   1.000  C
  C338     1.0000 0.93153  0.30867  0.27924  Biso   1.000  C
  C339     1.0000 0.73513  0.71047  0.55410  Biso   1.000  C
  C340     1.0000 0.97533  0.26487  0.55410  Biso   1.000  C
  C341     1.0000 0.06847  0.37713  0.22076  Biso   1.000  C
  C342     1.0000 0.30867  0.93153  0.22076  Biso   1.000  C
  C343     1.0000 0.64200  0.04380  0.38743  Biso   1.000  C
  C344     1.0000 0.95620  0.59820  0.38743  Biso   1.000  C
  C345     1.0000 0.40180  0.35800  0.38743  Biso   1.000  C
  C346     1.0000 0.04380  0.64200  0.11257  Biso   1.000  C
  C347     1.0000 0.30867  0.37713  0.72076  Biso   1.000  C
  C348     1.0000 0.62287  0.93153  0.72076  Biso   1.000  C
  C349     1.0000 0.06847  0.69133  0.72076  Biso   1.000  C
  C350     1.0000 0.71047  0.97533  0.44590  Biso   1.000  C
  C351     1.0000 0.97533  0.71047  0.05410  Biso   1.000  C
  C352     1.0000 0.37713  0.30867  0.77924  Biso   1.000  C
  C353     1.0000 0.59820  0.95620  0.11257  Biso   1.000  C
  C354     1.0000 0.35800  0.40180  0.11257  Biso   1.000  C
  C355     1.0000 0.28953  0.26487  0.05410  Biso   1.000  C
  C356     1.0000 0.73513  0.02467  0.05410  Biso   1.000  C
  C357     1.0000 0.93153  0.62287  0.77924  Biso   1.000  C
  C358     1.0000 0.69133  0.06847  0.77924  Biso   1.000  C
  C359     1.0000 0.26487  0.28953  0.44590  Biso   1.000  C
  C360     1.0000 0.02467  0.73513  0.44590  Biso   1.000  C
  H181     1.0000 0.28860  0.92940  0.61340  Biso   1.000  H
  H182     1.0000 0.07060  0.35920  0.61340  Biso   1.000  H
  H183     1.0000 0.64080  0.71140  0.61340  Biso   1.000  H
  H184     1.0000 0.92940  0.28860  0.88660  Biso   1.000  H
  H185     1.0000 0.95527  0.26273  0.94673  Biso   1.000  H
  H186     1.0000 0.73727  0.69253  0.94673  Biso   1.000  H
  H187     1.0000 0.30747  0.04473  0.94673  Biso   1.000  H
  H188     1.0000 0.59607  0.62193  0.21993  Biso   1.000  H
  H189     1.0000 0.62193  0.59607  0.28007  Biso   1.000  H
  H190     1.0000 0.26273  0.95527  0.55327  Biso   1.000  H
  H191     1.0000 0.35920  0.07060  0.88660  Biso   1.000  H
  H192     1.0000 0.71140  0.64080  0.88660  Biso   1.000  H
  H193     1.0000 0.40393  0.02587  0.28007  Biso   1.000  H
  H194     1.0000 0.97413  0.37807  0.28007  Biso   1.000  H
  H195     1.0000 0.69253  0.73727  0.55327  Biso   1.000  H
  H196     1.0000 0.04473  0.30747  0.55327  Biso   1.000  H
  H197     1.0000 0.02587  0.40393  0.21993  Biso   1.000  H
  H198     1.0000 0.37807  0.97413  0.21993  Biso   1.000  H
  H199     1.0000 0.71140  0.07060  0.38660  Biso   1.000  H
  H200     1.0000 0.92940  0.64080  0.38660  Biso   1.000  H
  H201     1.0000 0.35920  0.28860  0.38660  Biso   1.000  H
  H202     1.0000 0.07060  0.71140  0.11340  Biso   1.000  H
  H203     1.0000 0.37807  0.40393  0.71993  Biso   1.000  H
  H204     1.0000 0.59607  0.97413  0.71993  Biso   1.000  H
  H205     1.0000 0.02587  0.62193  0.71993  Biso   1.000  H
  H206     1.0000 0.73727  0.04473  0.44673  Biso   1.000  H
  H207     1.0000 0.04473  0.73727  0.05327  Biso   1.000  H
  H208     1.0000 0.40393  0.37807  0.78007  Biso   1.000  H
  H209     1.0000 0.64080  0.92940  0.11340  Biso   1.000  H
  H210     1.0000 0.28860  0.35920  0.11340  Biso   1.000  H
  H211     1.0000 0.26273  0.30747  0.05327  Biso   1.000  H
  H212     1.0000 0.69253  0.95527  0.05327  Biso   1.000  H
  H213     1.0000 0.97413  0.59607  0.78007  Biso   1.000  H
  H214     1.0000 0.62193  0.02587  0.78007  Biso   1.000  H
  H215     1.0000 0.30747  0.26273  0.44673  Biso   1.000  H
  H216     1.0000 0.95527  0.69253  0.44673  Biso   1.000  H
  C361     1.0000 0.49240  0.96260  0.60125  Biso   1.000  C
  C362     1.0000 0.03740  0.52980  0.60125  Biso   1.000  C
  C363     1.0000 0.47020  0.50760  0.60125  Biso   1.000  C
  C364     1.0000 0.96260  0.49240  0.89875  Biso   1.000  C
  C365     1.0000 0.15907  0.29593  0.93458  Biso   1.000  C
  C366     1.0000 0.70407  0.86313  0.93458  Biso   1.000  C
  C367     1.0000 0.13687  0.84093  0.93458  Biso   1.000  C
  C368     1.0000 0.62927  0.82573  0.23208  Biso   1.000  C
  C369     1.0000 0.82573  0.62927  0.26792  Biso   1.000  C
  C370     1.0000 0.29593  0.15907  0.56542  Biso   1.000  C
  C371     1.0000 0.52980  0.03740  0.89875  Biso   1.000  C
  C372     1.0000 0.50760  0.47020  0.89875  Biso   1.000  C
  C373     1.0000 0.37073  0.19647  0.26792  Biso   1.000  C
  C374     1.0000 0.80353  0.17427  0.26792  Biso   1.000  C
  C375     1.0000 0.86313  0.70407  0.56542  Biso   1.000  C
  C376     1.0000 0.84093  0.13687  0.56542  Biso   1.000  C
  C377     1.0000 0.19647  0.37073  0.23208  Biso   1.000  C
  C378     1.0000 0.17427  0.80353  0.23208  Biso   1.000  C
  C379     1.0000 0.50760  0.03740  0.39875  Biso   1.000  C
  C380     1.0000 0.96260  0.47020  0.39875  Biso   1.000  C
  C381     1.0000 0.52980  0.49240  0.39875  Biso   1.000  C
  C382     1.0000 0.03740  0.50760  0.10125  Biso   1.000  C
  C383     1.0000 0.17427  0.37073  0.73208  Biso   1.000  C
  C384     1.0000 0.62927  0.80353  0.73208  Biso   1.000  C
  C385     1.0000 0.19647  0.82573  0.73208  Biso   1.000  C
  C386     1.0000 0.70407  0.84093  0.43458  Biso   1.000  C
  C387     1.0000 0.84093  0.70407  0.06542  Biso   1.000  C
  C388     1.0000 0.37073  0.17427  0.76792  Biso   1.000  C
  C389     1.0000 0.47020  0.96260  0.10125  Biso   1.000  C
  C390     1.0000 0.49240  0.52980  0.10125  Biso   1.000  C
  C391     1.0000 0.29593  0.13687  0.06542  Biso   1.000  C
  C392     1.0000 0.86313  0.15907  0.06542  Biso   1.000  C
  C393     1.0000 0.80353  0.62927  0.76792  Biso   1.000  C
  C394     1.0000 0.82573  0.19647  0.76792  Biso   1.000  C
  C395     1.0000 0.13687  0.29593  0.43458  Biso   1.000  C
  C396     1.0000 0.15907  0.86313  0.43458  Biso   1.000  C
  H217     1.0000 0.51810  0.94010  0.59410  Biso   1.000  H
  H218     1.0000 0.05990  0.57800  0.59410  Biso   1.000  H
  H219     1.0000 0.42200  0.48190  0.59410  Biso   1.000  H
  H220     1.0000 0.94010  0.51810  0.90590  Biso   1.000  H
  H221     1.0000 0.18477  0.27343  0.92743  Biso   1.000  H
  H222     1.0000 0.72657  0.91133  0.92743  Biso   1.000  H
  H223     1.0000 0.08867  0.81523  0.92743  Biso   1.000  H
  H224     1.0000 0.60677  0.85143  0.23923  Biso   1.000  H
  H225     1.0000 0.85143  0.60677  0.26077  Biso   1.000  H
  H226     1.0000 0.27343  0.18477  0.57257  Biso   1.000  H
  H227     1.0000 0.57800  0.05990  0.90590  Biso   1.000  H
  H228     1.0000 0.48190  0.42200  0.90590  Biso   1.000  H
  H229     1.0000 0.39323  0.24467  0.26077  Biso   1.000  H
  H230     1.0000 0.75533  0.14857  0.26077  Biso   1.000  H
  H231     1.0000 0.91133  0.72657  0.57257  Biso   1.000  H
  H232     1.0000 0.81523  0.08867  0.57257  Biso   1.000  H
  H233     1.0000 0.24467  0.39323  0.23923  Biso   1.000  H
  H234     1.0000 0.14857  0.75533  0.23923  Biso   1.000  H
  H235     1.0000 0.48190  0.05990  0.40590  Biso   1.000  H
  H236     1.0000 0.94010  0.42200  0.40590  Biso   1.000  H
  H237     1.0000 0.57800  0.51810  0.40590  Biso   1.000  H
  H238     1.0000 0.05990  0.48190  0.09410  Biso   1.000  H
  H239     1.0000 0.14857  0.39323  0.73923  Biso   1.000  H
  H240     1.0000 0.60677  0.75533  0.73923  Biso   1.000  H
  H241     1.0000 0.24467  0.85143  0.73923  Biso   1.000  H
  H242     1.0000 0.72657  0.81523  0.42743  Biso   1.000  H
  H243     1.0000 0.81523  0.72657  0.07257  Biso   1.000  H
  H244     1.0000 0.39323  0.14857  0.76077  Biso   1.000  H
  H245     1.0000 0.42200  0.94010  0.09410  Biso   1.000  H
  H246     1.0000 0.51810  0.57800  0.09410  Biso   1.000  H
  H247     1.0000 0.27343  0.08867  0.07257  Biso   1.000  H
  H248     1.0000 0.91133  0.18477  0.07257  Biso   1.000  H
  H249     1.0000 0.75533  0.60677  0.76077  Biso   1.000  H
  H250     1.0000 0.85143  0.24467  0.76077  Biso   1.000  H
  H251     1.0000 0.08867  0.27343  0.42743  Biso   1.000  H
  H252     1.0000 0.18477  0.91133  0.42743  Biso   1.000  H
  C397     1.0000 0.55880  0.03210  0.61074  Biso   1.000  C
  C398     1.0000 0.96790  0.52670  0.61074  Biso   1.000  C
  C399     1.0000 0.47330  0.44120  0.61074  Biso   1.000  C
  C400     1.0000 0.03210  0.55880  0.88926  Biso   1.000  C
  C401     1.0000 0.22547  0.36543  0.94407  Biso   1.000  C
  C402     1.0000 0.63457  0.86003  0.94407  Biso   1.000  C
  C403     1.0000 0.13997  0.77453  0.94407  Biso   1.000  C
  C404     1.0000 0.69877  0.89213  0.22259  Biso   1.000  C
  C405     1.0000 0.89213  0.69877  0.27741  Biso   1.000  C
  C406     1.0000 0.36543  0.22547  0.55593  Biso   1.000  C
  C407     1.0000 0.52670  0.96790  0.88926  Biso   1.000  C
  C408     1.0000 0.44120  0.47330  0.88926  Biso   1.000  C
  C409     1.0000 0.30123  0.19337  0.27741  Biso   1.000  C
  C410     1.0000 0.80663  0.10787  0.27741  Biso   1.000  C
  C411     1.0000 0.86003  0.63457  0.55593  Biso   1.000  C
  C412     1.0000 0.77453  0.13997  0.55593  Biso   1.000  C
  C413     1.0000 0.19337  0.30123  0.22259  Biso   1.000  C
  C414     1.0000 0.10787  0.80663  0.22259  Biso   1.000  C
  C415     1.0000 0.44120  0.96790  0.38926  Biso   1.000  C
  C416     1.0000 0.03210  0.47330  0.38926  Biso   1.000  C
  C417     1.0000 0.52670  0.55880  0.38926  Biso   1.000  C
  C418     1.0000 0.96790  0.44120  0.11074  Biso   1.000  C
  C419     1.0000 0.10787  0.30123  0.72259  Biso   1.000  C
  C420     1.0000 0.69877  0.80663  0.72259  Biso   1.000  C
  C421     1.0000 0.19337  0.89213  0.72259  Biso   1.000  C
  C422     1.0000 0.63457  0.77453  0.44407  Biso   1.000  C
  C423     1.0000 0.77453  0.63457  0.05593  Biso   1.000  C
  C424     1.0000 0.30123  0.10787  0.77741  Biso   1.000  C
  C425     1.0000 0.47330  0.03210  0.11074  Biso   1.000  C
  C426     1.0000 0.55880  0.52670  0.11074  Biso   1.000  C
  C427     1.0000 0.36543  0.13997  0.05593  Biso   1.000  C
  C428     1.0000 0.86003  0.22547  0.05593  Biso   1.000  C
  C429     1.0000 0.80663  0.69877  0.77741  Biso   1.000  C
  C430     1.0000 0.89213  0.19337  0.77741  Biso   1.000  C
  C431     1.0000 0.13997  0.36543  0.44407  Biso   1.000  C
  C432     1.0000 0.22547  0.86003  0.44407  Biso   1.000  C
  H253     1.0000 0.62770  0.05590  0.61000  Biso   1.000  H
  H254     1.0000 0.94410  0.57180  0.61000  Biso   1.000  H
  H255     1.0000 0.42820  0.37230  0.61000  Biso   1.000  H
  H256     1.0000 0.05590  0.62770  0.89000  Biso   1.000  H
  H257     1.0000 0.29437  0.38923  0.94333  Biso   1.000  H
  H258     1.0000 0.61077  0.90513  0.94333  Biso   1.000  H
  H259     1.0000 0.09487  0.70563  0.94333  Biso   1.000  H
  H260     1.0000 0.72257  0.96103  0.22333  Biso   1.000  H
  H261     1.0000 0.96103  0.72257  0.27667  Biso   1.000  H
  H262     1.0000 0.38923  0.29437  0.55667  Biso   1.000  H
  H263     1.0000 0.57180  0.94410  0.89000  Biso   1.000  H
  H264     1.0000 0.37230  0.42820  0.89000  Biso   1.000  H
  H265     1.0000 0.27743  0.23847  0.27667  Biso   1.000  H
  H266     1.0000 0.76153  0.03897  0.27667  Biso   1.000  H
  H267     1.0000 0.90513  0.61077  0.55667  Biso   1.000  H
  H268     1.0000 0.70563  0.09487  0.55667  Biso   1.000  H
  H269     1.0000 0.23847  0.27743  0.22333  Biso   1.000  H
  H270     1.0000 0.03897  0.76153  0.22333  Biso   1.000  H
  H271     1.0000 0.37230  0.94410  0.39000  Biso   1.000  H
  H272     1.0000 0.05590  0.42820  0.39000  Biso   1.000  H
  H273     1.0000 0.57180  0.62770  0.39000  Biso   1.000  H
  H274     1.0000 0.94410  0.37230  0.11000  Biso   1.000  H
  H275     1.0000 0.03897  0.27743  0.72333  Biso   1.000  H
  H276     1.0000 0.72257  0.76153  0.72333  Biso   1.000  H
  H277     1.0000 0.23847  0.96103  0.72333  Biso   1.000  H
  H278     1.0000 0.61077  0.70563  0.44333  Biso   1.000  H
  H279     1.0000 0.70563  0.61077  0.05667  Biso   1.000  H
  H280     1.0000 0.27743  0.03897  0.77667  Biso   1.000  H
  H281     1.0000 0.42820  0.05590  0.11000  Biso   1.000  H
  H282     1.0000 0.62770  0.57180  0.11000  Biso   1.000  H
  H283     1.0000 0.38923  0.09487  0.05667  Biso   1.000  H
  H284     1.0000 0.90513  0.29437  0.05667  Biso   1.000  H
  H285     1.0000 0.76153  0.72257  0.77667  Biso   1.000  H
  H286     1.0000 0.96103  0.23847  0.77667  Biso   1.000  H
  H287     1.0000 0.09487  0.38923  0.44333  Biso   1.000  H
  H288     1.0000 0.29437  0.90513  0.44333  Biso   1.000  H
  C433     1.0000 0.43030  0.90300  0.52198  Biso   1.000  C
  C434     1.0000 0.09700  0.52730  0.52198  Biso   1.000  C
  C435     1.0000 0.47270  0.56970  0.52198  Biso   1.000  C
  C436     1.0000 0.90300  0.43030  0.97802  Biso   1.000  C
  C437     1.0000 0.09697  0.23633  0.85531  Biso   1.000  C
  C438     1.0000 0.76367  0.86063  0.85531  Biso   1.000  C
  C439     1.0000 0.13937  0.90303  0.85531  Biso   1.000  C
  C440     1.0000 0.56967  0.76363  0.31135  Biso   1.000  C
  C441     1.0000 0.76363  0.56967  0.18865  Biso   1.000  C
  C442     1.0000 0.23633  0.09697  0.64469  Biso   1.000  C
  C443     1.0000 0.52730  0.09700  0.97802  Biso   1.000  C
  C444     1.0000 0.56970  0.47270  0.97802  Biso   1.000  C
  C445     1.0000 0.43033  0.19397  0.18865  Biso   1.000  C
  C446     1.0000 0.80603  0.23637  0.18865  Biso   1.000  C
  C447     1.0000 0.86063  0.76367  0.64469  Biso   1.000  C
  C448     1.0000 0.90303  0.13937  0.64469  Biso   1.000  C
  C449     1.0000 0.19397  0.43033  0.31135  Biso   1.000  C
  C450     1.0000 0.23637  0.80603  0.31135  Biso   1.000  C
  C451     1.0000 0.56970  0.09700  0.47802  Biso   1.000  C
  C452     1.0000 0.90300  0.47270  0.47802  Biso   1.000  C
  C453     1.0000 0.52730  0.43030  0.47802  Biso   1.000  C
  C454     1.0000 0.09700  0.56970  0.02198  Biso   1.000  C
  C455     1.0000 0.23637  0.43033  0.81135  Biso   1.000  C
  C456     1.0000 0.56967  0.80603  0.81135  Biso   1.000  C
  C457     1.0000 0.19397  0.76363  0.81135  Biso   1.000  C
  C458     1.0000 0.76367  0.90303  0.35531  Biso   1.000  C
  C459     1.0000 0.90303  0.76367  0.14469  Biso   1.000  C
  C460     1.0000 0.43033  0.23637  0.68865  Biso   1.000  C
  C461     1.0000 0.47270  0.90300  0.02198  Biso   1.000  C
  C462     1.0000 0.43030  0.52730  0.02198  Biso   1.000  C
  C463     1.0000 0.23633  0.13937  0.14469  Biso   1.000  C
  C464     1.0000 0.86063  0.09697  0.14469  Biso   1.000  C
  C465     1.0000 0.80603  0.56967  0.68865  Biso   1.000  C
  C466     1.0000 0.76363  0.19397  0.68865  Biso   1.000  C
  C467     1.0000 0.13937  0.23633  0.35531  Biso   1.000  C
  C468     1.0000 0.09697  0.86063  0.35531  Biso   1.000  C
  C469     1.0000 0.40760  0.88410  0.53755  Biso   1.000  C
  C470     1.0000 0.11590  0.52350  0.53755  Biso   1.000  C
  C471     1.0000 0.47650  0.59240  0.53755  Biso   1.000  C
  C472     1.0000 0.88410  0.40760  0.96245  Biso   1.000  C
  C473     1.0000 0.07427  0.21743  0.87088  Biso   1.000  C
  C474     1.0000 0.78257  0.85683  0.87088  Biso   1.000  C
  C475     1.0000 0.14317  0.92573  0.87088  Biso   1.000  C
  C476     1.0000 0.55077  0.74093  0.29578  Biso   1.000  C
  C477     1.0000 0.74093  0.55077  0.20422  Biso   1.000  C
  C478     1.0000 0.21743  0.07427  0.62912  Biso   1.000  C
  C479     1.0000 0.52350  0.11590  0.96245  Biso   1.000  C
  C480     1.0000 0.59240  0.47650  0.96245  Biso   1.000  C
  C481     1.0000 0.44923  0.19017  0.20422  Biso   1.000  C
  C482     1.0000 0.80983  0.25907  0.20422  Biso   1.000  C
  C483     1.0000 0.85683  0.78257  0.62912  Biso   1.000  C
  C484     1.0000 0.92573  0.14317  0.62912  Biso   1.000  C
  C485     1.0000 0.19017  0.44923  0.29578  Biso   1.000  C
  C486     1.0000 0.25907  0.80983  0.29578  Biso   1.000  C
  C487     1.0000 0.59240  0.11590  0.46245  Biso   1.000  C
  C488     1.0000 0.88410  0.47650  0.46245  Biso   1.000  C
  C489     1.0000 0.52350  0.40760  0.46245  Biso   1.000  C
  C490     1.0000 0.11590  0.59240  0.03755  Biso   1.000  C
  C491     1.0000 0.25907  0.44923  0.79578  Biso   1.000  C
  C492     1.0000 0.55077  0.80983  0.79578  Biso   1.000  C
  C493     1.0000 0.19017  0.74093  0.79578  Biso   1.000  C
  C494     1.0000 0.78257  0.92573  0.37088  Biso   1.000  C
  C495     1.0000 0.92573  0.78257  0.12912  Biso   1.000  C
  C496     1.0000 0.44923  0.25907  0.70422  Biso   1.000  C
  C497     1.0000 0.47650  0.88410  0.03755  Biso   1.000  C
  C498     1.0000 0.40760  0.52350  0.03755  Biso   1.000  C
  C499     1.0000 0.21743  0.14317  0.12912  Biso   1.000  C
  C500     1.0000 0.85683  0.07427  0.12912  Biso   1.000  C
  C501     1.0000 0.80983  0.55077  0.70422  Biso   1.000  C
  C502     1.0000 0.74093  0.19017  0.70422  Biso   1.000  C
  C503     1.0000 0.14317  0.21743  0.37088  Biso   1.000  C
  C504     1.0000 0.07427  0.85683  0.37088  Biso   1.000  C
  C505     1.0000 0.46970  0.95050  0.54811  Biso   1.000  C
  C506     1.0000 0.04950  0.51920  0.54811  Biso   1.000  C
  C507     1.0000 0.48080  0.53030  0.54811  Biso   1.000  C
  C508     1.0000 0.95050  0.46970  0.95189  Biso   1.000  C
  C509     1.0000 0.13637  0.28383  0.88144  Biso   1.000  C
  C510     1.0000 0.71617  0.85253  0.88144  Biso   1.000  C
  C511     1.0000 0.14747  0.86363  0.88144  Biso   1.000  C
  C512     1.0000 0.61717  0.80303  0.28522  Biso   1.000  C
  C513     1.0000 0.80303  0.61717  0.21478  Biso   1.000  C
  C514     1.0000 0.28383  0.13637  0.61856  Biso   1.000  C
  C515     1.0000 0.51920  0.04950  0.95189  Biso   1.000  C
  C516     1.0000 0.53030  0.48080  0.95189  Biso   1.000  C
  C517     1.0000 0.38283  0.18587  0.21478  Biso   1.000  C
  C518     1.0000 0.81413  0.19697  0.21478  Biso   1.000  C
  C519     1.0000 0.85253  0.71617  0.61856  Biso   1.000  C
  C520     1.0000 0.86363  0.14747  0.61856  Biso   1.000  C
  C521     1.0000 0.18587  0.38283  0.28522  Biso   1.000  C
  C522     1.0000 0.19697  0.81413  0.28522  Biso   1.000  C
  C523     1.0000 0.53030  0.04950  0.45189  Biso   1.000  C
  C524     1.0000 0.95050  0.48080  0.45189  Biso   1.000  C
  C525     1.0000 0.51920  0.46970  0.45189  Biso   1.000  C
  C526     1.0000 0.04950  0.53030  0.04811  Biso   1.000  C
  C527     1.0000 0.19697  0.38283  0.78522  Biso   1.000  C
  C528     1.0000 0.61717  0.81413  0.78522  Biso   1.000  C
  C529     1.0000 0.18587  0.80303  0.78522  Biso   1.000  C
  C530     1.0000 0.71617  0.86363  0.38144  Biso   1.000  C
  C531     1.0000 0.86363  0.71617  0.11856  Biso   1.000  C
  C532     1.0000 0.38283  0.19697  0.71478  Biso   1.000  C
  C533     1.0000 0.48080  0.95050  0.04811  Biso   1.000  C
  C534     1.0000 0.46970  0.51920  0.04811  Biso   1.000  C
  C535     1.0000 0.28383  0.14747  0.11856  Biso   1.000  C
  C536     1.0000 0.85253  0.13637  0.11856  Biso   1.000  C
  C537     1.0000 0.81413  0.61717  0.71478  Biso   1.000  C
  C538     1.0000 0.80303  0.18587  0.71478  Biso   1.000  C
  C539     1.0000 0.14747  0.28383  0.38144  Biso   1.000  C
  C540     1.0000 0.13637  0.85253  0.38144  Biso   1.000  C
  H289     1.0000 0.52850  0.00930  0.54570  Biso   1.000  H
  H290     1.0000 0.99070  0.51920  0.54570  Biso   1.000  H
  H291     1.0000 0.48080  0.47150  0.54570  Biso   1.000  H
  H292     1.0000 0.00930  0.52850  0.95430  Biso   1.000  H
  H293     1.0000 0.19517  0.34263  0.87903  Biso   1.000  H
  H294     1.0000 0.65737  0.85253  0.87903  Biso   1.000  H
  H295     1.0000 0.14747  0.80483  0.87903  Biso   1.000  H
  H296     1.0000 0.67597  0.86183  0.28763  Biso   1.000  H
  H297     1.0000 0.86183  0.67597  0.21237  Biso   1.000  H
  H298     1.0000 0.34263  0.19517  0.62097  Biso   1.000  H
  H299     1.0000 0.51920  0.99070  0.95430  Biso   1.000  H
  H300     1.0000 0.47150  0.48080  0.95430  Biso   1.000  H
  H301     1.0000 0.32403  0.18587  0.21237  Biso   1.000  H
  H302     1.0000 0.81413  0.13817  0.21237  Biso   1.000  H
  H303     1.0000 0.85253  0.65737  0.62097  Biso   1.000  H
  H304     1.0000 0.80483  0.14747  0.62097  Biso   1.000  H
  H305     1.0000 0.18587  0.32403  0.28763  Biso   1.000  H
  H306     1.0000 0.13817  0.81413  0.28763  Biso   1.000  H
  H307     1.0000 0.47150  0.99070  0.45430  Biso   1.000  H
  H308     1.0000 0.00930  0.48080  0.45430  Biso   1.000  H
  H309     1.0000 0.51920  0.52850  0.45430  Biso   1.000  H
  H310     1.0000 0.99070  0.47150  0.04570  Biso   1.000  H
  H311     1.0000 0.13817  0.32403  0.78763  Biso   1.000  H
  H312     1.0000 0.67597  0.81413  0.78763  Biso   1.000  H
  H313     1.0000 0.18587  0.86183  0.78763  Biso   1.000  H
  H314     1.0000 0.65737  0.80483  0.37903  Biso   1.000  H
  H315     1.0000 0.80483  0.65737  0.12097  Biso   1.000  H
  H316     1.0000 0.32403  0.13817  0.71237  Biso   1.000  H
  H317     1.0000 0.48080  0.00930  0.04570  Biso   1.000  H
  H318     1.0000 0.52850  0.51920  0.04570  Biso   1.000  H
  H319     1.0000 0.34263  0.14747  0.12097  Biso   1.000  H
  H320     1.0000 0.85253  0.19517  0.12097  Biso   1.000  H
  H321     1.0000 0.81413  0.67597  0.71237  Biso   1.000  H
  H322     1.0000 0.86183  0.18587  0.71237  Biso   1.000  H
  H323     1.0000 0.14747  0.34263  0.37903  Biso   1.000  H
  H324     1.0000 0.19517  0.85253  0.37903  Biso   1.000  H
  C541     1.0000 0.44260  0.92770  0.56222  Biso   1.000  C
  C542     1.0000 0.07230  0.51490  0.56222  Biso   1.000  C
  C543     1.0000 0.48510  0.55740  0.56222  Biso   1.000  C
  C544     1.0000 0.92770  0.44260  0.93778  Biso   1.000  C
  C545     1.0000 0.10927  0.26103  0.89555  Biso   1.000  C
  C546     1.0000 0.73897  0.84823  0.89555  Biso   1.000  C
  C547     1.0000 0.15177  0.89073  0.89555  Biso   1.000  C
  C548     1.0000 0.59437  0.77593  0.27111  Biso   1.000  C
  C549     1.0000 0.77593  0.59437  0.22889  Biso   1.000  C
  C550     1.0000 0.26103  0.10927  0.60445  Biso   1.000  C
  C551     1.0000 0.51490  0.07230  0.93778  Biso   1.000  C
  C552     1.0000 0.55740  0.48510  0.93778  Biso   1.000  C
  C553     1.0000 0.40563  0.18157  0.22889  Biso   1.000  C
  C554     1.0000 0.81843  0.22407  0.22889  Biso   1.000  C
  C555     1.0000 0.84823  0.73897  0.60445  Biso   1.000  C
  C556     1.0000 0.89073  0.15177  0.60445  Biso   1.000  C
  C557     1.0000 0.18157  0.40563  0.27111  Biso   1.000  C
  C558     1.0000 0.22407  0.81843  0.27111  Biso   1.000  C
  C559     1.0000 0.55740  0.07230  0.43778  Biso   1.000  C
  C560     1.0000 0.92770  0.48510  0.43778  Biso   1.000  C
  C561     1.0000 0.51490  0.44260  0.43778  Biso   1.000  C
  C562     1.0000 0.07230  0.55740  0.06222  Biso   1.000  C
  C563     1.0000 0.22407  0.40563  0.77111  Biso   1.000  C
  C564     1.0000 0.59437  0.81843  0.77111  Biso   1.000  C
  C565     1.0000 0.18157  0.77593  0.77111  Biso   1.000  C
  C566     1.0000 0.73897  0.89073  0.39555  Biso   1.000  C
  C567     1.0000 0.89073  0.73897  0.10445  Biso   1.000  C
  C568     1.0000 0.40563  0.22407  0.72889  Biso   1.000  C
  C569     1.0000 0.48510  0.92770  0.06222  Biso   1.000  C
  C570     1.0000 0.44260  0.51490  0.06222  Biso   1.000  C
  C571     1.0000 0.26103  0.15177  0.10445  Biso   1.000  C
  C572     1.0000 0.84823  0.10927  0.10445  Biso   1.000  C
  C573     1.0000 0.81843  0.59437  0.72889  Biso   1.000  C
  C574     1.0000 0.77593  0.18157  0.72889  Biso   1.000  C
  C575     1.0000 0.15177  0.26103  0.39555  Biso   1.000  C
  C576     1.0000 0.10927  0.84823  0.39555  Biso   1.000  C
  H325     1.0000 0.48520  0.97210  0.56920  Biso   1.000  H
  H326     1.0000 0.02790  0.51310  0.56920  Biso   1.000  H
  H327     1.0000 0.48690  0.51480  0.56920  Biso   1.000  H
  H328     1.0000 0.97210  0.48520  0.93080  Biso   1.000  H
  H329     1.0000 0.15187  0.30543  0.90253  Biso   1.000  H
  H330     1.0000 0.69457  0.84643  0.90253  Biso   1.000  H
  H331     1.0000 0.15357  0.84813  0.90253  Biso   1.000  H
  H332     1.0000 0.63877  0.81853  0.26413  Biso   1.000  H
  H333     1.0000 0.81853  0.63877  0.23587  Biso   1.000  H
  H334     1.0000 0.30543  0.15187  0.59747  Biso   1.000  H
  H335     1.0000 0.51310  0.02790  0.93080  Biso   1.000  H
  H336     1.0000 0.51480  0.48690  0.93080  Biso   1.000  H
  H337     1.0000 0.36123  0.17977  0.23587  Biso   1.000  H
  H338     1.0000 0.82023  0.18147  0.23587  Biso   1.000  H
  H339     1.0000 0.84643  0.69457  0.59747  Biso   1.000  H
  H340     1.0000 0.84813  0.15357  0.59747  Biso   1.000  H
  H341     1.0000 0.17977  0.36123  0.26413  Biso   1.000  H
  H342     1.0000 0.18147  0.82023  0.26413  Biso   1.000  H
  H343     1.0000 0.51480  0.02790  0.43080  Biso   1.000  H
  H344     1.0000 0.97210  0.48690  0.43080  Biso   1.000  H
  H345     1.0000 0.51310  0.48520  0.43080  Biso   1.000  H
  H346     1.0000 0.02790  0.51480  0.06920  Biso   1.000  H
  H347     1.0000 0.18147  0.36123  0.76413  Biso   1.000  H
  H348     1.0000 0.63877  0.82023  0.76413  Biso   1.000  H
  H349     1.0000 0.17977  0.81853  0.76413  Biso   1.000  H
  H350     1.0000 0.69457  0.84813  0.40253  Biso   1.000  H
  H351     1.0000 0.84813  0.69457  0.09747  Biso   1.000  H
  H352     1.0000 0.36123  0.18147  0.73587  Biso   1.000  H
  H353     1.0000 0.48690  0.97210  0.06920  Biso   1.000  H
  H354     1.0000 0.48520  0.51310  0.06920  Biso   1.000  H
  H355     1.0000 0.30543  0.15357  0.09747  Biso   1.000  H
  H356     1.0000 0.84643  0.15187  0.09747  Biso   1.000  H
  H357     1.0000 0.82023  0.63877  0.73587  Biso   1.000  H
  H358     1.0000 0.81853  0.17977  0.73587  Biso   1.000  H
  H359     1.0000 0.15357  0.30543  0.40253  Biso   1.000  H
  H360     1.0000 0.15187  0.84643  0.40253  Biso   1.000  H
  C577     1.0000 0.29890  0.78150  0.55622  Biso   1.000  C
  C578     1.0000 0.21850  0.51740  0.55622  Biso   1.000  C
  C579     1.0000 0.48260  0.70110  0.55622  Biso   1.000  C
  C580     1.0000 0.78150  0.29890  0.94378  Biso   1.000  C
  C581     1.0000 0.96557  0.11483  0.88955  Biso   1.000  C
  C582     1.0000 0.88517  0.85073  0.88955  Biso   1.000  C
  C583     1.0000 0.14927  0.03443  0.88955  Biso   1.000  C
  C584     1.0000 0.44817  0.63223  0.27711  Biso   1.000  C
  C585     1.0000 0.63223  0.44817  0.22289  Biso   1.000  C
  C586     1.0000 0.11483  0.96557  0.61045  Biso   1.000  C
  C587     1.0000 0.51740  0.21850  0.94378  Biso   1.000  C
  C588     1.0000 0.70110  0.48260  0.94378  Biso   1.000  C
  C589     1.0000 0.55183  0.18407  0.22289  Biso   1.000  C
  C590     1.0000 0.81593  0.36777  0.22289  Biso   1.000  C
  C591     1.0000 0.85073  0.88517  0.61045  Biso   1.000  C
  C592     1.0000 0.03443  0.14927  0.61045  Biso   1.000  C
  C593     1.0000 0.18407  0.55183  0.27711  Biso   1.000  C
  C594     1.0000 0.36777  0.81593  0.27711  Biso   1.000  C
  C595     1.0000 0.70110  0.21850  0.44378  Biso   1.000  C
  C596     1.0000 0.78150  0.48260  0.44378  Biso   1.000  C
  C597     1.0000 0.51740  0.29890  0.44378  Biso   1.000  C
  C598     1.0000 0.21850  0.70110  0.05622  Biso   1.000  C
  C599     1.0000 0.36777  0.55183  0.77711  Biso   1.000  C
  C600     1.0000 0.44817  0.81593  0.77711  Biso   1.000  C
  C601     1.0000 0.18407  0.63223  0.77711  Biso   1.000  C
  C602     1.0000 0.88517  0.03443  0.38955  Biso   1.000  C
  C603     1.0000 0.03443  0.88517  0.11045  Biso   1.000  C
  C604     1.0000 0.55183  0.36777  0.72289  Biso   1.000  C
  C605     1.0000 0.48260  0.78150  0.05622  Biso   1.000  C
  C606     1.0000 0.29890  0.51740  0.05622  Biso   1.000  C
  C607     1.0000 0.11483  0.14927  0.11045  Biso   1.000  C
  C608     1.0000 0.85073  0.96557  0.11045  Biso   1.000  C
  C609     1.0000 0.81593  0.44817  0.72289  Biso   1.000  C
  C610     1.0000 0.63223  0.18407  0.72289  Biso   1.000  C
  C611     1.0000 0.14927  0.11483  0.38955  Biso   1.000  C
  C612     1.0000 0.96557  0.85073  0.38955  Biso   1.000  C
  H361     1.0000 0.23940  0.72390  0.55890  Biso   1.000  H
  H362     1.0000 0.27610  0.51550  0.55890  Biso   1.000  H
  H363     1.0000 0.48450  0.76060  0.55890  Biso   1.000  H
  H364     1.0000 0.72390  0.23940  0.94110  Biso   1.000  H
  H365     1.0000 0.90607  0.05723  0.89223  Biso   1.000  H
  H366     1.0000 0.94277  0.84883  0.89223  Biso   1.000  H
  H367     1.0000 0.15117  0.09393  0.89223  Biso   1.000  H
  H368     1.0000 0.39057  0.57273  0.27443  Biso   1.000  H
  H369     1.0000 0.57273  0.39057  0.22557  Biso   1.000  H
  H370     1.0000 0.05723  0.90607  0.60777  Biso   1.000  H
  H371     1.0000 0.51550  0.27610  0.94110  Biso   1.000  H
  H372     1.0000 0.76060  0.48450  0.94110  Biso   1.000  H
  H373     1.0000 0.60943  0.18217  0.22557  Biso   1.000  H
  H374     1.0000 0.81783  0.42727  0.22557  Biso   1.000  H
  H375     1.0000 0.84883  0.94277  0.60777  Biso   1.000  H
  H376     1.0000 0.09393  0.15117  0.60777  Biso   1.000  H
  H377     1.0000 0.18217  0.60943  0.27443  Biso   1.000  H
  H378     1.0000 0.42727  0.81783  0.27443  Biso   1.000  H
  H379     1.0000 0.76060  0.27610  0.44110  Biso   1.000  H
  H380     1.0000 0.72390  0.48450  0.44110  Biso   1.000  H
  H381     1.0000 0.51550  0.23940  0.44110  Biso   1.000  H
  H382     1.0000 0.27610  0.76060  0.05890  Biso   1.000  H
  H383     1.0000 0.42727  0.60943  0.77443  Biso   1.000  H
  H384     1.0000 0.39057  0.81783  0.77443  Biso   1.000  H
  H385     1.0000 0.18217  0.57273  0.77443  Biso   1.000  H
  H386     1.0000 0.94277  0.09393  0.39223  Biso   1.000  H
  H387     1.0000 0.09393  0.94277  0.10777  Biso   1.000  H
  H388     1.0000 0.60943  0.42727  0.72557  Biso   1.000  H
  H389     1.0000 0.48450  0.72390  0.05890  Biso   1.000  H
  H390     1.0000 0.23940  0.51550  0.05890  Biso   1.000  H
  H391     1.0000 0.05723  0.15117  0.10777  Biso   1.000  H
  H392     1.0000 0.84883  0.90607  0.10777  Biso   1.000  H
  H393     1.0000 0.81783  0.39057  0.72557  Biso   1.000  H
  H394     1.0000 0.57273  0.18217  0.72557  Biso   1.000  H
  H395     1.0000 0.15117  0.05723  0.39223  Biso   1.000  H
  H396     1.0000 0.90607  0.84883  0.39223  Biso   1.000  H
  C613     1.0000 0.32140  0.79720  0.54188  Biso   1.000  C
  C614     1.0000 0.20280  0.52420  0.54188  Biso   1.000  C
  C615     1.0000 0.47580  0.67860  0.54188  Biso   1.000  C
  C616     1.0000 0.79720  0.32140  0.95812  Biso   1.000  C
  C617     1.0000 0.98807  0.13053  0.87521  Biso   1.000  C
  C618     1.0000 0.86947  0.85753  0.87521  Biso   1.000  C
  C619     1.0000 0.14247  0.01193  0.87521  Biso   1.000  C
  C620     1.0000 0.46387  0.65473  0.29145  Biso   1.000  C
  C621     1.0000 0.65473  0.46387  0.20855  Biso   1.000  C
  C622     1.0000 0.13053  0.98807  0.62479  Biso   1.000  C
  C623     1.0000 0.52420  0.20280  0.95812  Biso   1.000  C
  C624     1.0000 0.67860  0.47580  0.95812  Biso   1.000  C
  C625     1.0000 0.53613  0.19087  0.20855  Biso   1.000  C
  C626     1.0000 0.80913  0.34527  0.20855  Biso   1.000  C
  C627     1.0000 0.85753  0.86947  0.62479  Biso   1.000  C
  C628     1.0000 0.01193  0.14247  0.62479  Biso   1.000  C
  C629     1.0000 0.19087  0.53613  0.29145  Biso   1.000  C
  C630     1.0000 0.34527  0.80913  0.29145  Biso   1.000  C
  C631     1.0000 0.67860  0.20280  0.45812  Biso   1.000  C
  C632     1.0000 0.79720  0.47580  0.45812  Biso   1.000  C
  C633     1.0000 0.52420  0.32140  0.45812  Biso   1.000  C
  C634     1.0000 0.20280  0.67860  0.04188  Biso   1.000  C
  C635     1.0000 0.34527  0.53613  0.79145  Biso   1.000  C
  C636     1.0000 0.46387  0.80913  0.79145  Biso   1.000  C
  C637     1.0000 0.19087  0.65473  0.79145  Biso   1.000  C
  C638     1.0000 0.86947  0.01193  0.37521  Biso   1.000  C
  C639     1.0000 0.01193  0.86947  0.12479  Biso   1.000  C
  C640     1.0000 0.53613  0.34527  0.70855  Biso   1.000  C
  C641     1.0000 0.47580  0.79720  0.04188  Biso   1.000  C
  C642     1.0000 0.32140  0.52420  0.04188  Biso   1.000  C
  C643     1.0000 0.13053  0.14247  0.12479  Biso   1.000  C
  C644     1.0000 0.85753  0.98807  0.12479  Biso   1.000  C
  C645     1.0000 0.80913  0.46387  0.70855  Biso   1.000  C
  C646     1.0000 0.65473  0.19087  0.70855  Biso   1.000  C
  C647     1.0000 0.14247  0.13053  0.37521  Biso   1.000  C
  C648     1.0000 0.98807  0.85753  0.37521  Biso   1.000  C
  H397     1.0000 0.27920  0.75000  0.53520  Biso   1.000  H
  H398     1.0000 0.25000  0.52920  0.53520  Biso   1.000  H
  H399     1.0000 0.47080  0.72080  0.53520  Biso   1.000  H
  H400     1.0000 0.75000  0.27920  0.96480  Biso   1.000  H
  H401     1.0000 0.94587  0.08333  0.86853  Biso   1.000  H
  H402     1.0000 0.91667  0.86253  0.86853  Biso   1.000  H
  H403     1.0000 0.13747  0.05413  0.86853  Biso   1.000  H
  H404     1.0000 0.41667  0.61253  0.29813  Biso   1.000  H
  H405     1.0000 0.61253  0.41667  0.20187  Biso   1.000  H
  H406     1.0000 0.08333  0.94587  0.63147  Biso   1.000  H
  H407     1.0000 0.52920  0.25000  0.96480  Biso   1.000  H
  H408     1.0000 0.72080  0.47080  0.96480  Biso   1.000  H
  H409     1.0000 0.58333  0.19587  0.20187  Biso   1.000  H
  H410     1.0000 0.80413  0.38747  0.20187  Biso   1.000  H
  H411     1.0000 0.86253  0.91667  0.63147  Biso   1.000  H
  H412     1.0000 0.05413  0.13747  0.63147  Biso   1.000  H
  H413     1.0000 0.19587  0.58333  0.29813  Biso   1.000  H
  H414     1.0000 0.38747  0.80413  0.29813  Biso   1.000  H
  H415     1.0000 0.72080  0.25000  0.46480  Biso   1.000  H
  H416     1.0000 0.75000  0.47080  0.46480  Biso   1.000  H
  H417     1.0000 0.52920  0.27920  0.46480  Biso   1.000  H
  H418     1.0000 0.25000  0.72080  0.03520  Biso   1.000  H
  H419     1.0000 0.38747  0.58333  0.79813  Biso   1.000  H
  H420     1.0000 0.41667  0.80413  0.79813  Biso   1.000  H
  H421     1.0000 0.19587  0.61253  0.79813  Biso   1.000  H
  H422     1.0000 0.91667  0.05413  0.36853  Biso   1.000  H
  H423     1.0000 0.05413  0.91667  0.13147  Biso   1.000  H
  H424     1.0000 0.58333  0.38747  0.70187  Biso   1.000  H
  H425     1.0000 0.47080  0.75000  0.03520  Biso   1.000  H
  H426     1.0000 0.27920  0.52920  0.03520  Biso   1.000  H
  H427     1.0000 0.08333  0.13747  0.13147  Biso   1.000  H
  H428     1.0000 0.86253  0.94587  0.13147  Biso   1.000  H
  H429     1.0000 0.80413  0.41667  0.70187  Biso   1.000  H
  H430     1.0000 0.61253  0.19587  0.70187  Biso   1.000  H
  H431     1.0000 0.13747  0.08333  0.36853  Biso   1.000  H
  H432     1.0000 0.94587  0.86253  0.36853  Biso   1.000  H
  N1       1.0000 0.47660  0.72920  0.63579  Biso   1.000  N
  N2       1.0000 0.27080  0.74740  0.63579  Biso   1.000  N
  N3       1.0000 0.25260  0.52340  0.63579  Biso   1.000  N
  N4       1.0000 0.72920  0.47660  0.86421  Biso   1.000  N
  N5       1.0000 0.14327  0.06253  0.96912  Biso   1.000  N
  N6       1.0000 0.93747  0.08073  0.96912  Biso   1.000  N
  N7       1.0000 0.91927  0.85673  0.96912  Biso   1.000  N
  N8       1.0000 0.39587  0.80993  0.19754  Biso   1.000  N
  N9       1.0000 0.80993  0.39587  0.30246  Biso   1.000  N
  N10      1.0000 0.06253  0.14327  0.53088  Biso   1.000  N
  N11      1.0000 0.74740  0.27080  0.86421  Biso   1.000  N
  N12      1.0000 0.52340  0.25260  0.86421  Biso   1.000  N
  N13      1.0000 0.60413  0.41407  0.30246  Biso   1.000  N
  N14      1.0000 0.58593  0.19007  0.30246  Biso   1.000  N
  N15      1.0000 0.08073  0.93747  0.53088  Biso   1.000  N
  N16      1.0000 0.85673  0.91927  0.53088  Biso   1.000  N
  N17      1.0000 0.41407  0.60413  0.19754  Biso   1.000  N
  N18      1.0000 0.19007  0.58593  0.19754  Biso   1.000  N
  N19      1.0000 0.52340  0.27080  0.36421  Biso   1.000  N
  N20      1.0000 0.72920  0.25260  0.36421  Biso   1.000  N
  N21      1.0000 0.74740  0.47660  0.36421  Biso   1.000  N
  N22      1.0000 0.27080  0.52340  0.13579  Biso   1.000  N
  N23      1.0000 0.19007  0.60413  0.69754  Biso   1.000  N
  N24      1.0000 0.39587  0.58593  0.69754  Biso   1.000  N
  N25      1.0000 0.41407  0.80993  0.69754  Biso   1.000  N
  N26      1.0000 0.93747  0.85673  0.46912  Biso   1.000  N
  N27      1.0000 0.85673  0.93747  0.03088  Biso   1.000  N
  N28      1.0000 0.60413  0.19007  0.80246  Biso   1.000  N
  N29      1.0000 0.25260  0.72920  0.13579  Biso   1.000  N
  N30      1.0000 0.47660  0.74740  0.13579  Biso   1.000  N
  N31      1.0000 0.06253  0.91927  0.03088  Biso   1.000  N
  N32      1.0000 0.08073  0.14327  0.03088  Biso   1.000  N
  N33      1.0000 0.58593  0.39587  0.80246  Biso   1.000  N
  N34      1.0000 0.80993  0.41407  0.80246  Biso   1.000  N
  N35      1.0000 0.91927  0.06253  0.46912  Biso   1.000  N
  N36      1.0000 0.14327  0.08073  0.46912  Biso   1.000  N
  N37      1.0000 0.39320  0.92560  0.60178  Biso   1.000  N
  N38      1.0000 0.07440  0.46760  0.60178  Biso   1.000  N
  N39      1.0000 0.53240  0.60680  0.60178  Biso   1.000  N
  N40      1.0000 0.92560  0.39320  0.89822  Biso   1.000  N
  N41      1.0000 0.05987  0.25893  0.93511  Biso   1.000  N
  N42      1.0000 0.74107  0.80093  0.93511  Biso   1.000  N
  N43      1.0000 0.19907  0.94013  0.93511  Biso   1.000  N
  N44      1.0000 0.59227  0.72653  0.23155  Biso   1.000  N
  N45      1.0000 0.72653  0.59227  0.26845  Biso   1.000  N
  N46      1.0000 0.25893  0.05987  0.56489  Biso   1.000  N
  N47      1.0000 0.46760  0.07440  0.89822  Biso   1.000  N
  N48      1.0000 0.60680  0.53240  0.89822  Biso   1.000  N
  N49      1.0000 0.40773  0.13427  0.26845  Biso   1.000  N
  N50      1.0000 0.86573  0.27347  0.26845  Biso   1.000  N
  N51      1.0000 0.80093  0.74107  0.56489  Biso   1.000  N
  N52      1.0000 0.94013  0.19907  0.56489  Biso   1.000  N
  N53      1.0000 0.13427  0.40773  0.23155  Biso   1.000  N
  N54      1.0000 0.27347  0.86573  0.23155  Biso   1.000  N
  N55      1.0000 0.60680  0.07440  0.39822  Biso   1.000  N
  N56      1.0000 0.92560  0.53240  0.39822  Biso   1.000  N
  N57      1.0000 0.46760  0.39320  0.39822  Biso   1.000  N
  N58      1.0000 0.07440  0.60680  0.10178  Biso   1.000  N
  N59      1.0000 0.27347  0.40773  0.73155  Biso   1.000  N
  N60      1.0000 0.59227  0.86573  0.73155  Biso   1.000  N
  N61      1.0000 0.13427  0.72653  0.73155  Biso   1.000  N
  N62      1.0000 0.74107  0.94013  0.43511  Biso   1.000  N
  N63      1.0000 0.94013  0.74107  0.06489  Biso   1.000  N
  N64      1.0000 0.40773  0.27347  0.76845  Biso   1.000  N
  N65      1.0000 0.53240  0.92560  0.10178  Biso   1.000  N
  N66      1.0000 0.39320  0.46760  0.10178  Biso   1.000  N
  N67      1.0000 0.25893  0.19907  0.06489  Biso   1.000  N
  N68      1.0000 0.80093  0.05987  0.06489  Biso   1.000  N
  N69      1.0000 0.86573  0.59227  0.76845  Biso   1.000  N
  N70      1.0000 0.72653  0.13427  0.76845  Biso   1.000  N
  N71      1.0000 0.19907  0.25893  0.43511  Biso   1.000  N
  N72      1.0000 0.05987  0.80093  0.43511  Biso   1.000  N
  N73      1.0000 0.35750  0.84420  0.56657  Biso   1.000  N
  N74      1.0000 0.15580  0.51330  0.56657  Biso   1.000  N
  N75      1.0000 0.48670  0.64250  0.56657  Biso   1.000  N
  N76      1.0000 0.84420  0.35750  0.93343  Biso   1.000  N
  N77      1.0000 0.02417  0.17753  0.89990  Biso   1.000  N
  N78      1.0000 0.82247  0.84663  0.89990  Biso   1.000  N
  N79      1.0000 0.15337  0.97583  0.89990  Biso   1.000  N
  N80      1.0000 0.51087  0.69083  0.26676  Biso   1.000  N
  N81      1.0000 0.69083  0.51087  0.23324  Biso   1.000  N
  N82      1.0000 0.17753  0.02417  0.60010  Biso   1.000  N
  N83      1.0000 0.51330  0.15580  0.93343  Biso   1.000  N
  N84      1.0000 0.64250  0.48670  0.93343  Biso   1.000  N
  N85      1.0000 0.48913  0.17997  0.23324  Biso   1.000  N
  N86      1.0000 0.82003  0.30917  0.23324  Biso   1.000  N
  N87      1.0000 0.84663  0.82247  0.60010  Biso   1.000  N
  N88      1.0000 0.97583  0.15337  0.60010  Biso   1.000  N
  N89      1.0000 0.17997  0.48913  0.26676  Biso   1.000  N
  N90      1.0000 0.30917  0.82003  0.26676  Biso   1.000  N
  N91      1.0000 0.64250  0.15580  0.43343  Biso   1.000  N
  N92      1.0000 0.84420  0.48670  0.43343  Biso   1.000  N
  N93      1.0000 0.51330  0.35750  0.43343  Biso   1.000  N
  N94      1.0000 0.15580  0.64250  0.06657  Biso   1.000  N
  N95      1.0000 0.30917  0.48913  0.76676  Biso   1.000  N
  N96      1.0000 0.51087  0.82003  0.76676  Biso   1.000  N
  N97      1.0000 0.17997  0.69083  0.76676  Biso   1.000  N
  N98      1.0000 0.82247  0.97583  0.39990  Biso   1.000  N
  N99      1.0000 0.97583  0.82247  0.10010  Biso   1.000  N
  N100     1.0000 0.48913  0.30917  0.73324  Biso   1.000  N
  N101     1.0000 0.48670  0.84420  0.06657  Biso   1.000  N
  N102     1.0000 0.35750  0.51330  0.06657  Biso   1.000  N
  N103     1.0000 0.17753  0.15337  0.10010  Biso   1.000  N
  N104     1.0000 0.84663  0.02417  0.10010  Biso   1.000  N
  N105     1.0000 0.82003  0.51087  0.73324  Biso   1.000  N
  N106     1.0000 0.69083  0.17997  0.73324  Biso   1.000  N
  N107     1.0000 0.15337  0.17753  0.39990  Biso   1.000  N
  N108     1.0000 0.02417  0.84663  0.39990  Biso   1.000  N
  O1       1.0000 0.80280  0.33330  0.58330  Biso   1.000  O
  O2       1.0000 0.66670  0.46950  0.58330  Biso   1.000  O
  O3       1.0000 0.53050  0.19720  0.58330  Biso   1.000  O
  O4       1.0000 0.33330  0.80280  0.91670  Biso   1.000  O
  O5       1.0000 0.46947  0.66663  0.91663  Biso   1.000  O
  O6       1.0000 0.19717  0.53053  0.91663  Biso   1.000  O
  O7       1.0000 0.99997  0.13613  0.25003  Biso   1.000  O
  O8       1.0000 0.13613  0.99997  0.24997  Biso   1.000  O
  O9       1.0000 0.86383  0.86387  0.24997  Biso   1.000  O
  O10      1.0000 0.19720  0.66670  0.41670  Biso   1.000  O
  O11      1.0000 0.33330  0.53050  0.41670  Biso   1.000  O
  O12      1.0000 0.46950  0.80280  0.41670  Biso   1.000  O
  O13      1.0000 0.66670  0.19720  0.08330  Biso   1.000  O
  O14      1.0000 0.86387  0.00003  0.75003  Biso   1.000  O
  O15      1.0000 0.99997  0.86383  0.75003  Biso   1.000  O
  O16      1.0000 0.13617  0.13613  0.75003  Biso   1.000  O
  O17      1.0000 0.53053  0.33337  0.08337  Biso   1.000  O
  O18      1.0000 0.80280  0.46950  0.08330  Biso   1.000  O
  O19      1.0000 0.76690  0.96310  0.66686  Biso   1.000  O
  O20      1.0000 0.03690  0.80380  0.66686  Biso   1.000  O
  O21      1.0000 0.19620  0.23310  0.66686  Biso   1.000  O
  O22      1.0000 0.96310  0.76690  0.83314  Biso   1.000  O
  O23      1.0000 0.43357  0.29643  0.00019  Biso   1.000  O
  O24      1.0000 0.70357  0.13713  0.00019  Biso   1.000  O
  O25      1.0000 0.86287  0.56643  0.00019  Biso   1.000  O
  O26      1.0000 0.62977  0.10023  0.16647  Biso   1.000  O
  O27      1.0000 0.10023  0.62977  0.33353  Biso   1.000  O
  O28      1.0000 0.29643  0.43357  0.49981  Biso   1.000  O
  O29      1.0000 0.80380  0.03690  0.83314  Biso   1.000  O
  O30      1.0000 0.23310  0.19620  0.83314  Biso   1.000  O
  O31      1.0000 0.37023  0.47047  0.33353  Biso   1.000  O
  O32      1.0000 0.52953  0.89977  0.33353  Biso   1.000  O
  O33      1.0000 0.13713  0.70357  0.49981  Biso   1.000  O
  O34      1.0000 0.56643  0.86287  0.49981  Biso   1.000  O
  O35      1.0000 0.47047  0.37023  0.16647  Biso   1.000  O
  O36      1.0000 0.89977  0.52953  0.16647  Biso   1.000  O
  O37      1.0000 0.23310  0.03690  0.33314  Biso   1.000  O
  O38      1.0000 0.96310  0.19620  0.33314  Biso   1.000  O
  O39      1.0000 0.80380  0.76690  0.33314  Biso   1.000  O
  O40      1.0000 0.03690  0.23310  0.16686  Biso   1.000  O
  O41      1.0000 0.89977  0.37023  0.66647  Biso   1.000  O
  O42      1.0000 0.62977  0.52953  0.66647  Biso   1.000  O
  O43      1.0000 0.47047  0.10023  0.66647  Biso   1.000  O
  O44      1.0000 0.70357  0.56643  0.50019  Biso   1.000  O
  O45      1.0000 0.56643  0.70357  0.99981  Biso   1.000  O
  O46      1.0000 0.37023  0.89977  0.83353  Biso   1.000  O
  O47      1.0000 0.19620  0.96310  0.16686  Biso   1.000  O
  O48      1.0000 0.76690  0.80380  0.16686  Biso   1.000  O
  O49      1.0000 0.29643  0.86287  0.99981  Biso   1.000  O
  O50      1.0000 0.13713  0.43357  0.99981  Biso   1.000  O
  O51      1.0000 0.52953  0.62977  0.83353  Biso   1.000  O
  O52      1.0000 0.10023  0.47047  0.83353  Biso   1.000  O
  O53      1.0000 0.86287  0.29643  0.50019  Biso   1.000  O
  O54      1.0000 0.43357  0.13713  0.50019  Biso   1.000  O
  O55      1.0000 0.05910  0.24540  0.67070  Biso   1.000  O
  O56      1.0000 0.75460  0.81370  0.67070  Biso   1.000  O
  O57      1.0000 0.18630  0.94090  0.67070  Biso   1.000  O
  O58      1.0000 0.24540  0.05910  0.82930  Biso   1.000  O
  O59      1.0000 0.72577  0.57873  0.00403  Biso   1.000  O
  O60      1.0000 0.42127  0.14703  0.00403  Biso   1.000  O
  O61      1.0000 0.85297  0.27423  0.00403  Biso   1.000  O
  O62      1.0000 0.91207  0.39243  0.16263  Biso   1.000  O
  O63      1.0000 0.39243  0.91207  0.33737  Biso   1.000  O
  O64      1.0000 0.57873  0.72577  0.49597  Biso   1.000  O
  O65      1.0000 0.81370  0.75460  0.82930  Biso   1.000  O
  O66      1.0000 0.94090  0.18630  0.82930  Biso   1.000  O
  O67      1.0000 0.08793  0.48037  0.33737  Biso   1.000  O
  O68      1.0000 0.51963  0.60757  0.33737  Biso   1.000  O
  O69      1.0000 0.14703  0.42127  0.49597  Biso   1.000  O
  O70      1.0000 0.27423  0.85297  0.49597  Biso   1.000  O
  O71      1.0000 0.48037  0.08793  0.16263  Biso   1.000  O
  O72      1.0000 0.60757  0.51963  0.16263  Biso   1.000  O
  O73      1.0000 0.94090  0.75460  0.32930  Biso   1.000  O
  O74      1.0000 0.24540  0.18630  0.32930  Biso   1.000  O
  O75      1.0000 0.81370  0.05910  0.32930  Biso   1.000  O
  O76      1.0000 0.75460  0.94090  0.17070  Biso   1.000  O
  O77      1.0000 0.60757  0.08793  0.66263  Biso   1.000  O
  O78      1.0000 0.91207  0.51963  0.66263  Biso   1.000  O
  O79      1.0000 0.48037  0.39243  0.66263  Biso   1.000  O
  O80      1.0000 0.42127  0.27423  0.50403  Biso   1.000  O
  O81      1.0000 0.27423  0.42127  0.99597  Biso   1.000  O
  O82      1.0000 0.08793  0.60757  0.83737  Biso   1.000  O
  O83      1.0000 0.18630  0.24540  0.17070  Biso   1.000  O
  O84      1.0000 0.05910  0.81370  0.17070  Biso   1.000  O
  O85      1.0000 0.57873  0.85297  0.99597  Biso   1.000  O
  O86      1.0000 0.14703  0.72577  0.99597  Biso   1.000  O
  O87      1.0000 0.51963  0.91207  0.83737  Biso   1.000  O
  O88      1.0000 0.39243  0.48037  0.83737  Biso   1.000  O
  O89      1.0000 0.85297  0.57873  0.50403  Biso   1.000  O
  O90      1.0000 0.72577  0.14703  0.50403  Biso   1.000  O
  O91      1.0000 0.85850  0.96180  0.69396  Biso   1.000  O
  O92      1.0000 0.03820  0.89670  0.69396  Biso   1.000  O
  O93      1.0000 0.10330  0.14150  0.69396  Biso   1.000  O
  O94      1.0000 0.96180  0.85850  0.80604  Biso   1.000  O
  O95      1.0000 0.52517  0.29513  0.02729  Biso   1.000  O
  O96      1.0000 0.70487  0.23003  0.02729  Biso   1.000  O
  O97      1.0000 0.76997  0.47483  0.02729  Biso   1.000  O
  O98      1.0000 0.62847  0.19183  0.13937  Biso   1.000  O
  O99      1.0000 0.19183  0.62847  0.36063  Biso   1.000  O
  O100     1.0000 0.29513  0.52517  0.47271  Biso   1.000  O
  O101     1.0000 0.89670  0.03820  0.80604  Biso   1.000  O
  O102     1.0000 0.14150  0.10330  0.80604  Biso   1.000  O
  O103     1.0000 0.37153  0.56337  0.36063  Biso   1.000  O
  O104     1.0000 0.43663  0.80817  0.36063  Biso   1.000  O
  O105     1.0000 0.23003  0.70487  0.47271  Biso   1.000  O
  O106     1.0000 0.47483  0.76997  0.47271  Biso   1.000  O
  O107     1.0000 0.56337  0.37153  0.13937  Biso   1.000  O
  O108     1.0000 0.80817  0.43663  0.13937  Biso   1.000  O
  O109     1.0000 0.14150  0.03820  0.30604  Biso   1.000  O
  O110     1.0000 0.96180  0.10330  0.30604  Biso   1.000  O
  O111     1.0000 0.89670  0.85850  0.30604  Biso   1.000  O
  O112     1.0000 0.03820  0.14150  0.19396  Biso   1.000  O
  O113     1.0000 0.80817  0.37153  0.63937  Biso   1.000  O
  O114     1.0000 0.62847  0.43663  0.63937  Biso   1.000  O
  O115     1.0000 0.56337  0.19183  0.63937  Biso   1.000  O
  O116     1.0000 0.70487  0.47483  0.52729  Biso   1.000  O
  O117     1.0000 0.47483  0.70487  0.97271  Biso   1.000  O
  O118     1.0000 0.37153  0.80817  0.86063  Biso   1.000  O
  O119     1.0000 0.10330  0.96180  0.19396  Biso   1.000  O
  O120     1.0000 0.85850  0.89670  0.19396  Biso   1.000  O
  O121     1.0000 0.29513  0.76997  0.97271  Biso   1.000  O
  O122     1.0000 0.23003  0.52517  0.97271  Biso   1.000  O
  O123     1.0000 0.43663  0.62847  0.86063  Biso   1.000  O
  O124     1.0000 0.19183  0.56337  0.86063  Biso   1.000  O
  O125     1.0000 0.76997  0.29513  0.52729  Biso   1.000  O
  O126     1.0000 0.52517  0.23003  0.52729  Biso   1.000  O
  O127     1.0000 0.98940  0.18410  0.69948  Biso   1.000  O
  O128     1.0000 0.81590  0.80530  0.69948  Biso   1.000  O
  O129     1.0000 0.19470  0.01060  0.69948  Biso   1.000  O
  O130     1.0000 0.18410  0.98940  0.80052  Biso   1.000  O
  O131     1.0000 0.65607  0.51743  0.03281  Biso   1.000  O
  O132     1.0000 0.48257  0.13863  0.03281  Biso   1.000  O
  O133     1.0000 0.86137  0.34393  0.03281  Biso   1.000  O
  O134     1.0000 0.85077  0.32273  0.13385  Biso   1.000  O
  O135     1.0000 0.32273  0.85077  0.36615  Biso   1.000  O
  O136     1.0000 0.51743  0.65607  0.46719  Biso   1.000  O
  O137     1.0000 0.80530  0.81590  0.80052  Biso   1.000  O
  O138     1.0000 0.01060  0.19470  0.80052  Biso   1.000  O
  O139     1.0000 0.14923  0.47197  0.36615  Biso   1.000  O
  O140     1.0000 0.52803  0.67727  0.36615  Biso   1.000  O
  O141     1.0000 0.13863  0.48257  0.46719  Biso   1.000  O
  O142     1.0000 0.34393  0.86137  0.46719  Biso   1.000  O
  O143     1.0000 0.47197  0.14923  0.13385  Biso   1.000  O
  O144     1.0000 0.67727  0.52803  0.13385  Biso   1.000  O
  O145     1.0000 0.01060  0.81590  0.30052  Biso   1.000  O
  O146     1.0000 0.18410  0.19470  0.30052  Biso   1.000  O
  O147     1.0000 0.80530  0.98940  0.30052  Biso   1.000  O
  O148     1.0000 0.81590  0.01060  0.19948  Biso   1.000  O
  O149     1.0000 0.67727  0.14923  0.63385  Biso   1.000  O
  O150     1.0000 0.85077  0.52803  0.63385  Biso   1.000  O
  O151     1.0000 0.47197  0.32273  0.63385  Biso   1.000  O
  O152     1.0000 0.48257  0.34393  0.53281  Biso   1.000  O
  O153     1.0000 0.34393  0.48257  0.96719  Biso   1.000  O
  O154     1.0000 0.14923  0.67727  0.86615  Biso   1.000  O
  O155     1.0000 0.19470  0.18410  0.19948  Biso   1.000  O
  O156     1.0000 0.98940  0.80530  0.19948  Biso   1.000  O
  O157     1.0000 0.51743  0.86137  0.96719  Biso   1.000  O
  O158     1.0000 0.13863  0.65607  0.96719  Biso   1.000  O
  O159     1.0000 0.52803  0.85077  0.86615  Biso   1.000  O
  O160     1.0000 0.32273  0.47197  0.86615  Biso   1.000  O
  O161     1.0000 0.86137  0.51743  0.53281  Biso   1.000  O
  O162     1.0000 0.65607  0.13863  0.53281  Biso   1.000  O
  O163     1.0000 0.81240  0.15330  0.68415  Biso   1.000  O
  O164     1.0000 0.84670  0.65910  0.68415  Biso   1.000  O
  O165     1.0000 0.34090  0.18760  0.68415  Biso   1.000  O
  O166     1.0000 0.15330  0.81240  0.81585  Biso   1.000  O
  O167     1.0000 0.47907  0.48663  0.01748  Biso   1.000  O
  O168     1.0000 0.51337  0.99243  0.01748  Biso   1.000  O
  O169     1.0000 0.00757  0.52093  0.01748  Biso   1.000  O
  O170     1.0000 0.81997  0.14573  0.14918  Biso   1.000  O
  O171     1.0000 0.14573  0.81997  0.35082  Biso   1.000  O
  O172     1.0000 0.48663  0.47907  0.48252  Biso   1.000  O
  O173     1.0000 0.65910  0.84670  0.81585  Biso   1.000  O
  O174     1.0000 0.18760  0.34090  0.81585  Biso   1.000  O
  O175     1.0000 0.18003  0.32577  0.35082  Biso   1.000  O
  O176     1.0000 0.67423  0.85427  0.35082  Biso   1.000  O
  O177     1.0000 0.99243  0.51337  0.48252  Biso   1.000  O
  O178     1.0000 0.52093  0.00757  0.48252  Biso   1.000  O
  O179     1.0000 0.32577  0.18003  0.14918  Biso   1.000  O
  O180     1.0000 0.85427  0.67423  0.14918  Biso   1.000  O
  O181     1.0000 0.18760  0.84670  0.31585  Biso   1.000  O
  O182     1.0000 0.15330  0.34090  0.31585  Biso   1.000  O
  O183     1.0000 0.65910  0.81240  0.31585  Biso   1.000  O
  O184     1.0000 0.84670  0.18760  0.18415  Biso   1.000  O
  O185     1.0000 0.85427  0.18003  0.64918  Biso   1.000  O
  O186     1.0000 0.81997  0.67423  0.64918  Biso   1.000  O
  O187     1.0000 0.32577  0.14573  0.64918  Biso   1.000  O
  O188     1.0000 0.51337  0.52093  0.51748  Biso   1.000  O
  O189     1.0000 0.52093  0.51337  0.98252  Biso   1.000  O
  O190     1.0000 0.18003  0.85427  0.85082  Biso   1.000  O
  O191     1.0000 0.34090  0.15330  0.18415  Biso   1.000  O
  O192     1.0000 0.81240  0.65910  0.18415  Biso   1.000  O
  O193     1.0000 0.48663  0.00757  0.98252  Biso   1.000  O
  O194     1.0000 0.99243  0.47907  0.98252  Biso   1.000  O
  O195     1.0000 0.67423  0.81997  0.85082  Biso   1.000  O
  O196     1.0000 0.14573  0.32577  0.85082  Biso   1.000  O
  O197     1.0000 0.00757  0.48663  0.51748  Biso   1.000  O
  O198     1.0000 0.47907  0.99243  0.51748  Biso   1.000  O
  O199     1.0000 0.93580  0.09690  0.65222  Biso   1.000  O
  O200     1.0000 0.90310  0.83890  0.65222  Biso   1.000  O
  O201     1.0000 0.16110  0.06420  0.65222  Biso   1.000  O
  O202     1.0000 0.09690  0.93580  0.84778  Biso   1.000  O
  O203     1.0000 0.60247  0.43023  0.98555  Biso   1.000  O
  O204     1.0000 0.56977  0.17223  0.98555  Biso   1.000  O
  O205     1.0000 0.82777  0.39753  0.98555  Biso   1.000  O
  O206     1.0000 0.76357  0.26913  0.18111  Biso   1.000  O
  O207     1.0000 0.26913  0.76357  0.31889  Biso   1.000  O
  O208     1.0000 0.43023  0.60247  0.51445  Biso   1.000  O
  O209     1.0000 0.83890  0.90310  0.84778  Biso   1.000  O
  O210     1.0000 0.06420  0.16110  0.84778  Biso   1.000  O
  O211     1.0000 0.23643  0.50557  0.31889  Biso   1.000  O
  O212     1.0000 0.49443  0.73087  0.31889  Biso   1.000  O
  O213     1.0000 0.17223  0.56977  0.51445  Biso   1.000  O
  O214     1.0000 0.39753  0.82777  0.51445  Biso   1.000  O
  O215     1.0000 0.50557  0.23643  0.18111  Biso   1.000  O
  O216     1.0000 0.73087  0.49443  0.18111  Biso   1.000  O
  O217     1.0000 0.06420  0.90310  0.34778  Biso   1.000  O
  O218     1.0000 0.09690  0.16110  0.34778  Biso   1.000  O
  O219     1.0000 0.83890  0.93580  0.34778  Biso   1.000  O
  O220     1.0000 0.90310  0.06420  0.15222  Biso   1.000  O
  O221     1.0000 0.73087  0.23643  0.68111  Biso   1.000  O
  O222     1.0000 0.76357  0.49443  0.68111  Biso   1.000  O
  O223     1.0000 0.50557  0.26913  0.68111  Biso   1.000  O
  O224     1.0000 0.56977  0.39753  0.48555  Biso   1.000  O
  O225     1.0000 0.39753  0.56977  0.01445  Biso   1.000  O
  O226     1.0000 0.23643  0.73087  0.81889  Biso   1.000  O
  O227     1.0000 0.16110  0.09690  0.15222  Biso   1.000  O
  O228     1.0000 0.93580  0.83890  0.15222  Biso   1.000  O
  O229     1.0000 0.43023  0.82777  0.01445  Biso   1.000  O
  O230     1.0000 0.17223  0.60247  0.01445  Biso   1.000  O
  O231     1.0000 0.49443  0.76357  0.81889  Biso   1.000  O
  O232     1.0000 0.26913  0.50557  0.81889  Biso   1.000  O
  O233     1.0000 0.82777  0.43023  0.48555  Biso   1.000  O
  O234     1.0000 0.60247  0.17223  0.48555  Biso   1.000  O
  O235     1.0000 0.00000  0.00000  0.67123  Biso   1.000  O
  O236     1.0000 0.00000  0.00000  0.82877  Biso   1.000  O
  O237     1.0000 0.66667  0.33333  0.00456  Biso   1.000  O
  O238     1.0000 0.66667  0.33333  0.16210  Biso   1.000  O
  O239     1.0000 0.33333  0.66667  0.33790  Biso   1.000  O
  O240     1.0000 0.33333  0.66667  0.49544  Biso   1.000  O
  O241     1.0000 0.00000  0.00000  0.32877  Biso   1.000  O
  O242     1.0000 0.00000  0.00000  0.17123  Biso   1.000  O
  O243     1.0000 0.66667  0.33333  0.66210  Biso   1.000  O
  O244     1.0000 0.66667  0.33333  0.50456  Biso   1.000  O
  O245     1.0000 0.33333  0.66667  0.99544  Biso   1.000  O
  O246     1.0000 0.33333  0.66667  0.83790  Biso   1.000  O
