data_image0
_cell_length_a       15.222
_cell_length_b       15.222
_cell_length_c       93.8
_cell_angle_alpha    90
_cell_angle_beta     90
_cell_angle_gamma    120

_symmetry_space_group_name_H-M    "P 1"
_symmetry_int_tables_number       1

loop_
  _symmetry_equiv_pos_as_xyz
  'x, y, z'

loop_
  _atom_site_label
  _atom_site_occupancy
  _atom_site_fract_x
  _atom_site_fract_y
  _atom_site_fract_z
  _atom_site_thermal_displace_type
  _atom_site_B_iso_or_equiv
  _atom_site_type_symbol
  I1       1.0000 0.00000  0.00000  0.56872  Biso   1.000  I
  I2       1.0000 0.00000  0.00000  0.93128  Biso   1.000  I
  I3       1.0000 0.66667  0.33333  0.90205  Biso   1.000  I
  I4       1.0000 0.66667  0.33333  0.26461  Biso   1.000  I
  I5       1.0000 0.33333  0.66667  0.23539  Biso   1.000  I
  I6       1.0000 0.33333  0.66667  0.59795  Biso   1.000  I
  I7       1.0000 0.00000  0.00000  0.43128  Biso   1.000  I
  I8       1.0000 0.00000  0.00000  0.06872  Biso   1.000  I
  I9       1.0000 0.66667  0.33333  0.76461  Biso   1.000  I
  I10      1.0000 0.66667  0.33333  0.40205  Biso   1.000  I
  I11      1.0000 0.33333  0.66667  0.09795  Biso   1.000  I
  I12      1.0000 0.33333  0.66667  0.73539  Biso   1.000  I
  I13      1.0000 0.21073  0.33330  0.58330  Biso   1.000  I
  I14      1.0000 0.66670  0.87743  0.58330  Biso   1.000  I
  I15      1.0000 0.12257  0.78927  0.58330  Biso   1.000  I
  I16      1.0000 0.33330  0.21073  0.91670  Biso   1.000  I
  I17      1.0000 0.87740  0.66663  0.91663  Biso   1.000  I
  I18      1.0000 0.78924  0.12260  0.91663  Biso   1.000  I
  I19      1.0000 0.99997  0.54406  0.25003  Biso   1.000  I
  I20      1.0000 0.54406  0.99997  0.24997  Biso   1.000  I
  I21      1.0000 0.45590  0.45594  0.24997  Biso   1.000  I
  I22      1.0000 0.78927  0.66670  0.41670  Biso   1.000  I
  I23      1.0000 0.33330  0.12257  0.41670  Biso   1.000  I
  I24      1.0000 0.87743  0.21073  0.41670  Biso   1.000  I
  I25      1.0000 0.66670  0.78927  0.08330  Biso   1.000  I
  I26      1.0000 0.45594  0.00003  0.75003  Biso   1.000  I
  I27      1.0000 0.99997  0.45590  0.75003  Biso   1.000  I
  I28      1.0000 0.54410  0.54406  0.75003  Biso   1.000  I
  I29      1.0000 0.12260  0.33337  0.08337  Biso   1.000  I
  I30      1.0000 0.21073  0.87743  0.08330  Biso   1.000  I
  C1       1.0000 0.60190  0.80770  0.50171  Biso   1.000  C
  C2       1.0000 0.19230  0.79420  0.50171  Biso   1.000  C
  C3       1.0000 0.20580  0.39810  0.50171  Biso   1.000  C
  C4       1.0000 0.80770  0.60190  0.99829  Biso   1.000  C
  C5       1.0000 0.26857  0.14103  0.83504  Biso   1.000  C
  C6       1.0000 0.85897  0.12753  0.83504  Biso   1.000  C
  C7       1.0000 0.87247  0.73143  0.83504  Biso   1.000  C
  C8       1.0000 0.47437  0.93523  0.33162  Biso   1.000  C
  C9       1.0000 0.93523  0.47437  0.16838  Biso   1.000  C
  C10      1.0000 0.14103  0.26857  0.66496  Biso   1.000  C
  C11      1.0000 0.79420  0.19230  0.99829  Biso   1.000  C
  C12      1.0000 0.39810  0.20580  0.99829  Biso   1.000  C
  C13      1.0000 0.52563  0.46087  0.16838  Biso   1.000  C
  C14      1.0000 0.53913  0.06477  0.16838  Biso   1.000  C
  C15      1.0000 0.12753  0.85897  0.66496  Biso   1.000  C
  C16      1.0000 0.73143  0.87247  0.66496  Biso   1.000  C
  C17      1.0000 0.46087  0.52563  0.33162  Biso   1.000  C
  C18      1.0000 0.06477  0.53913  0.33162  Biso   1.000  C
  C19      1.0000 0.39810  0.19230  0.49829  Biso   1.000  C
  C20      1.0000 0.80770  0.20580  0.49829  Biso   1.000  C
  C21      1.0000 0.79420  0.60190  0.49829  Biso   1.000  C
  C22      1.0000 0.19230  0.39810  0.00171  Biso   1.000  C
  C23      1.0000 0.06477  0.52563  0.83162  Biso   1.000  C
  C24      1.0000 0.47437  0.53913  0.83162  Biso   1.000  C
  C25      1.0000 0.46087  0.93523  0.83162  Biso   1.000  C
  C26      1.0000 0.85897  0.73143  0.33504  Biso   1.000  C
  C27      1.0000 0.73143  0.85897  0.16496  Biso   1.000  C
  C28      1.0000 0.52563  0.06477  0.66838  Biso   1.000  C
  C29      1.0000 0.20580  0.80770  0.00171  Biso   1.000  C
  C30      1.0000 0.60190  0.79420  0.00171  Biso   1.000  C
  C31      1.0000 0.14103  0.87247  0.16496  Biso   1.000  C
  C32      1.0000 0.12753  0.26857  0.16496  Biso   1.000  C
  C33      1.0000 0.53913  0.47437  0.66838  Biso   1.000  C
  C34      1.0000 0.93523  0.46087  0.66838  Biso   1.000  C
  C35      1.0000 0.87247  0.14103  0.33504  Biso   1.000  C
  C36      1.0000 0.26857  0.12753  0.33504  Biso   1.000  C
  C37      1.0000 0.68840  0.84520  0.51230  Biso   1.000  C
  C38      1.0000 0.15480  0.84320  0.51230  Biso   1.000  C
  C39      1.0000 0.15680  0.31160  0.51230  Biso   1.000  C
  C40      1.0000 0.84520  0.68840  0.98770  Biso   1.000  C
  C41      1.0000 0.35507  0.17853  0.84563  Biso   1.000  C
  C42      1.0000 0.82147  0.17653  0.84563  Biso   1.000  C
  C43      1.0000 0.82347  0.64493  0.84563  Biso   1.000  C
  C44      1.0000 0.51187  0.02173  0.32103  Biso   1.000  C
  C45      1.0000 0.02173  0.51187  0.17897  Biso   1.000  C
  C46      1.0000 0.17853  0.35507  0.65437  Biso   1.000  C
  C47      1.0000 0.84320  0.15480  0.98770  Biso   1.000  C
  C48      1.0000 0.31160  0.15680  0.98770  Biso   1.000  C
  C49      1.0000 0.48813  0.50987  0.17897  Biso   1.000  C
  C50      1.0000 0.49013  0.97827  0.17897  Biso   1.000  C
  C51      1.0000 0.17653  0.82147  0.65437  Biso   1.000  C
  C52      1.0000 0.64493  0.82347  0.65437  Biso   1.000  C
  C53      1.0000 0.50987  0.48813  0.32103  Biso   1.000  C
  C54      1.0000 0.97827  0.49013  0.32103  Biso   1.000  C
  C55      1.0000 0.31160  0.15480  0.48770  Biso   1.000  C
  C56      1.0000 0.84520  0.15680  0.48770  Biso   1.000  C
  C57      1.0000 0.84320  0.68840  0.48770  Biso   1.000  C
  C58      1.0000 0.15480  0.31160  0.01230  Biso   1.000  C
  C59      1.0000 0.97827  0.48813  0.82103  Biso   1.000  C
  C60      1.0000 0.51187  0.49013  0.82103  Biso   1.000  C
  C61      1.0000 0.50987  0.02173  0.82103  Biso   1.000  C
  C62      1.0000 0.82147  0.64493  0.34563  Biso   1.000  C
  C63      1.0000 0.64493  0.82147  0.15437  Biso   1.000  C
  C64      1.0000 0.48813  0.97827  0.67897  Biso   1.000  C
  C65      1.0000 0.15680  0.84520  0.01230  Biso   1.000  C
  C66      1.0000 0.68840  0.84320  0.01230  Biso   1.000  C
  C67      1.0000 0.17853  0.82347  0.15437  Biso   1.000  C
  C68      1.0000 0.17653  0.35507  0.15437  Biso   1.000  C
  C69      1.0000 0.49013  0.51187  0.67897  Biso   1.000  C
  C70      1.0000 0.02173  0.50987  0.67897  Biso   1.000  C
  C71      1.0000 0.82347  0.17853  0.34563  Biso   1.000  C
  C72      1.0000 0.35507  0.17653  0.34563  Biso   1.000  C
  C73      1.0000 0.75410  0.80870  0.51197  Biso   1.000  C
  C74      1.0000 0.19130  0.94540  0.51197  Biso   1.000  C
  C75      1.0000 0.05460  0.24590  0.51197  Biso   1.000  C
  C76      1.0000 0.80870  0.75410  0.98803  Biso   1.000  C
  C77      1.0000 0.42077  0.14203  0.84530  Biso   1.000  C
  C78      1.0000 0.85797  0.27873  0.84530  Biso   1.000  C
  C79      1.0000 0.72127  0.57923  0.84530  Biso   1.000  C
  C80      1.0000 0.47537  0.08743  0.32136  Biso   1.000  C
  C81      1.0000 0.08743  0.47537  0.17864  Biso   1.000  C
  C82      1.0000 0.14203  0.42077  0.65470  Biso   1.000  C
  C83      1.0000 0.94540  0.19130  0.98803  Biso   1.000  C
  C84      1.0000 0.24590  0.05460  0.98803  Biso   1.000  C
  C85      1.0000 0.52463  0.61207  0.17864  Biso   1.000  C
  C86      1.0000 0.38793  0.91257  0.17864  Biso   1.000  C
  C87      1.0000 0.27873  0.85797  0.65470  Biso   1.000  C
  C88      1.0000 0.57923  0.72127  0.65470  Biso   1.000  C
  C89      1.0000 0.61207  0.52463  0.32136  Biso   1.000  C
  C90      1.0000 0.91257  0.38793  0.32136  Biso   1.000  C
  C91      1.0000 0.24590  0.19130  0.48803  Biso   1.000  C
  C92      1.0000 0.80870  0.05460  0.48803  Biso   1.000  C
  C93      1.0000 0.94540  0.75410  0.48803  Biso   1.000  C
  C94      1.0000 0.19130  0.24590  0.01197  Biso   1.000  C
  C95      1.0000 0.91257  0.52463  0.82136  Biso   1.000  C
  C96      1.0000 0.47537  0.38793  0.82136  Biso   1.000  C
  C97      1.0000 0.61207  0.08743  0.82136  Biso   1.000  C
  C98      1.0000 0.85797  0.57923  0.34530  Biso   1.000  C
  C99      1.0000 0.57923  0.85797  0.15470  Biso   1.000  C
  C100     1.0000 0.52463  0.91257  0.67864  Biso   1.000  C
  C101     1.0000 0.05460  0.80870  0.01197  Biso   1.000  C
  C102     1.0000 0.75410  0.94540  0.01197  Biso   1.000  C
  C103     1.0000 0.14203  0.72127  0.15470  Biso   1.000  C
  C104     1.0000 0.27873  0.42077  0.15470  Biso   1.000  C
  C105     1.0000 0.38793  0.47537  0.67864  Biso   1.000  C
  C106     1.0000 0.08743  0.61207  0.67864  Biso   1.000  C
  C107     1.0000 0.72127  0.14203  0.34530  Biso   1.000  C
  C108     1.0000 0.42077  0.27873  0.34530  Biso   1.000  C
  H1       1.0000 0.74310  0.75680  0.50570  Biso   1.000  H
  H2       1.0000 0.24320  0.98630  0.50570  Biso   1.000  H
  H3       1.0000 0.01370  0.25690  0.50570  Biso   1.000  H
  H4       1.0000 0.75680  0.74310  0.99430  Biso   1.000  H
  H5       1.0000 0.40977  0.09013  0.83903  Biso   1.000  H
  H6       1.0000 0.90987  0.31963  0.83903  Biso   1.000  H
  H7       1.0000 0.68037  0.59023  0.83903  Biso   1.000  H
  H8       1.0000 0.42347  0.07643  0.32763  Biso   1.000  H
  H9       1.0000 0.07643  0.42347  0.17237  Biso   1.000  H
  H10      1.0000 0.09013  0.40977  0.66097  Biso   1.000  H
  H11      1.0000 0.98630  0.24320  0.99430  Biso   1.000  H
  H12      1.0000 0.25690  0.01370  0.99430  Biso   1.000  H
  H13      1.0000 0.57653  0.65297  0.17237  Biso   1.000  H
  H14      1.0000 0.34703  0.92357  0.17237  Biso   1.000  H
  H15      1.0000 0.31963  0.90987  0.66097  Biso   1.000  H
  H16      1.0000 0.59023  0.68037  0.66097  Biso   1.000  H
  H17      1.0000 0.65297  0.57653  0.32763  Biso   1.000  H
  H18      1.0000 0.92357  0.34703  0.32763  Biso   1.000  H
  H19      1.0000 0.25690  0.24320  0.49430  Biso   1.000  H
  H20      1.0000 0.75680  0.01370  0.49430  Biso   1.000  H
  H21      1.0000 0.98630  0.74310  0.49430  Biso   1.000  H
  H22      1.0000 0.24320  0.25690  0.00570  Biso   1.000  H
  H23      1.0000 0.92357  0.57653  0.82763  Biso   1.000  H
  H24      1.0000 0.42347  0.34703  0.82763  Biso   1.000  H
  H25      1.0000 0.65297  0.07643  0.82763  Biso   1.000  H
  H26      1.0000 0.90987  0.59023  0.33903  Biso   1.000  H
  H27      1.0000 0.59023  0.90987  0.16097  Biso   1.000  H
  H28      1.0000 0.57653  0.92357  0.67237  Biso   1.000  H
  H29      1.0000 0.01370  0.75680  0.00570  Biso   1.000  H
  H30      1.0000 0.74310  0.98630  0.00570  Biso   1.000  H
  H31      1.0000 0.09013  0.68037  0.16097  Biso   1.000  H
  H32      1.0000 0.31963  0.40977  0.16097  Biso   1.000  H
  H33      1.0000 0.34703  0.42347  0.67237  Biso   1.000  H
  H34      1.0000 0.07643  0.65297  0.67237  Biso   1.000  H
  H35      1.0000 0.68037  0.09013  0.33903  Biso   1.000  H
  H36      1.0000 0.40977  0.31963  0.33903  Biso   1.000  H
  C109     1.0000 0.83650  0.84890  0.52094  Biso   1.000  C
  C110     1.0000 0.15110  0.98760  0.52094  Biso   1.000  C
  C111     1.0000 0.01240  0.16350  0.52094  Biso   1.000  C
  C112     1.0000 0.84890  0.83650  0.97906  Biso   1.000  C
  C113     1.0000 0.50317  0.18223  0.85427  Biso   1.000  C
  C114     1.0000 0.81777  0.32093  0.85427  Biso   1.000  C
  C115     1.0000 0.67907  0.49683  0.85427  Biso   1.000  C
  C116     1.0000 0.51557  0.16983  0.31239  Biso   1.000  C
  C117     1.0000 0.16983  0.51557  0.18761  Biso   1.000  C
  C118     1.0000 0.18223  0.50317  0.64573  Biso   1.000  C
  C119     1.0000 0.98760  0.15110  0.97906  Biso   1.000  C
  C120     1.0000 0.16350  0.01240  0.97906  Biso   1.000  C
  C121     1.0000 0.48443  0.65427  0.18761  Biso   1.000  C
  C122     1.0000 0.34573  0.83017  0.18761  Biso   1.000  C
  C123     1.0000 0.32093  0.81777  0.64573  Biso   1.000  C
  C124     1.0000 0.49683  0.67907  0.64573  Biso   1.000  C
  C125     1.0000 0.65427  0.48443  0.31239  Biso   1.000  C
  C126     1.0000 0.83017  0.34573  0.31239  Biso   1.000  C
  C127     1.0000 0.16350  0.15110  0.47906  Biso   1.000  C
  C128     1.0000 0.84890  0.01240  0.47906  Biso   1.000  C
  C129     1.0000 0.98760  0.83650  0.47906  Biso   1.000  C
  C130     1.0000 0.15110  0.16350  0.02094  Biso   1.000  C
  C131     1.0000 0.83017  0.48443  0.81239  Biso   1.000  C
  C132     1.0000 0.51557  0.34573  0.81239  Biso   1.000  C
  C133     1.0000 0.65427  0.16983  0.81239  Biso   1.000  C
  C134     1.0000 0.81777  0.49683  0.35427  Biso   1.000  C
  C135     1.0000 0.49683  0.81777  0.14573  Biso   1.000  C
  C136     1.0000 0.48443  0.83017  0.68761  Biso   1.000  C
  C137     1.0000 0.01240  0.84890  0.02094  Biso   1.000  C
  C138     1.0000 0.83650  0.98760  0.02094  Biso   1.000  C
  C139     1.0000 0.18223  0.67907  0.14573  Biso   1.000  C
  C140     1.0000 0.32093  0.50317  0.14573  Biso   1.000  C
  C141     1.0000 0.34573  0.51557  0.68761  Biso   1.000  C
  C142     1.0000 0.16983  0.65427  0.68761  Biso   1.000  C
  C143     1.0000 0.67907  0.18223  0.35427  Biso   1.000  C
  C144     1.0000 0.50317  0.32093  0.35427  Biso   1.000  C
  H37      1.0000 0.88210  0.82530  0.52010  Biso   1.000  H
  H38      1.0000 0.17470  0.05680  0.52010  Biso   1.000  H
  H39      1.0000 0.94320  0.11790  0.52010  Biso   1.000  H
  H40      1.0000 0.82530  0.88210  0.97990  Biso   1.000  H
  H41      1.0000 0.54877  0.15863  0.85343  Biso   1.000  H
  H42      1.0000 0.84137  0.39013  0.85343  Biso   1.000  H
  H43      1.0000 0.60987  0.45123  0.85343  Biso   1.000  H
  H44      1.0000 0.49197  0.21543  0.31323  Biso   1.000  H
  H45      1.0000 0.21543  0.49197  0.18677  Biso   1.000  H
  H46      1.0000 0.15863  0.54877  0.64657  Biso   1.000  H
  H47      1.0000 0.05680  0.17470  0.97990  Biso   1.000  H
  H48      1.0000 0.11790  0.94320  0.97990  Biso   1.000  H
  H49      1.0000 0.50803  0.72347  0.18677  Biso   1.000  H
  H50      1.0000 0.27653  0.78457  0.18677  Biso   1.000  H
  H51      1.0000 0.39013  0.84137  0.64657  Biso   1.000  H
  H52      1.0000 0.45123  0.60987  0.64657  Biso   1.000  H
  H53      1.0000 0.72347  0.50803  0.31323  Biso   1.000  H
  H54      1.0000 0.78457  0.27653  0.31323  Biso   1.000  H
  H55      1.0000 0.11790  0.17470  0.47990  Biso   1.000  H
  H56      1.0000 0.82530  0.94320  0.47990  Biso   1.000  H
  H57      1.0000 0.05680  0.88210  0.47990  Biso   1.000  H
  H58      1.0000 0.17470  0.11790  0.02010  Biso   1.000  H
  H59      1.0000 0.78457  0.50803  0.81323  Biso   1.000  H
  H60      1.0000 0.49197  0.27653  0.81323  Biso   1.000  H
  H61      1.0000 0.72347  0.21543  0.81323  Biso   1.000  H
  H62      1.0000 0.84137  0.45123  0.35343  Biso   1.000  H
  H63      1.0000 0.45123  0.84137  0.14657  Biso   1.000  H
  H64      1.0000 0.50803  0.78457  0.68677  Biso   1.000  H
  H65      1.0000 0.94320  0.82530  0.02010  Biso   1.000  H
  H66      1.0000 0.88210  0.05680  0.02010  Biso   1.000  H
  H67      1.0000 0.15863  0.60987  0.14657  Biso   1.000  H
  H68      1.0000 0.39013  0.54877  0.14657  Biso   1.000  H
  H69      1.0000 0.27653  0.49197  0.68677  Biso   1.000  H
  H70      1.0000 0.21543  0.72347  0.68677  Biso   1.000  H
  H71      1.0000 0.60987  0.15863  0.35343  Biso   1.000  H
  H72      1.0000 0.54877  0.39013  0.35343  Biso   1.000  H
  C145     1.0000 0.78700  0.95030  0.53165  Biso   1.000  C
  C146     1.0000 0.04970  0.83670  0.53165  Biso   1.000  C
  C147     1.0000 0.16330  0.21300  0.53165  Biso   1.000  C
  C148     1.0000 0.95030  0.78700  0.96835  Biso   1.000  C
  C149     1.0000 0.45367  0.28363  0.86498  Biso   1.000  C
  C150     1.0000 0.71637  0.17003  0.86498  Biso   1.000  C
  C151     1.0000 0.82997  0.54633  0.86498  Biso   1.000  C
  C152     1.0000 0.61697  0.12033  0.30168  Biso   1.000  C
  C153     1.0000 0.12033  0.61697  0.19832  Biso   1.000  C
  C154     1.0000 0.28363  0.45367  0.63502  Biso   1.000  C
  C155     1.0000 0.83670  0.04970  0.96835  Biso   1.000  C
  C156     1.0000 0.21300  0.16330  0.96835  Biso   1.000  C
  C157     1.0000 0.38303  0.50337  0.19832  Biso   1.000  C
  C158     1.0000 0.49663  0.87967  0.19832  Biso   1.000  C
  C159     1.0000 0.17003  0.71637  0.63502  Biso   1.000  C
  C160     1.0000 0.54633  0.82997  0.63502  Biso   1.000  C
  C161     1.0000 0.50337  0.38303  0.30168  Biso   1.000  C
  C162     1.0000 0.87967  0.49663  0.30168  Biso   1.000  C
  C163     1.0000 0.21300  0.04970  0.46835  Biso   1.000  C
  C164     1.0000 0.95030  0.16330  0.46835  Biso   1.000  C
  C165     1.0000 0.83670  0.78700  0.46835  Biso   1.000  C
  C166     1.0000 0.04970  0.21300  0.03165  Biso   1.000  C
  C167     1.0000 0.87967  0.38303  0.80168  Biso   1.000  C
  C168     1.0000 0.61697  0.49663  0.80168  Biso   1.000  C
  C169     1.0000 0.50337  0.12033  0.80168  Biso   1.000  C
  C170     1.0000 0.71637  0.54633  0.36498  Biso   1.000  C
  C171     1.0000 0.54633  0.71637  0.13502  Biso   1.000  C
  C172     1.0000 0.38303  0.87967  0.69832  Biso   1.000  C
  C173     1.0000 0.16330  0.95030  0.03165  Biso   1.000  C
  C174     1.0000 0.78700  0.83670  0.03165  Biso   1.000  C
  C175     1.0000 0.28363  0.82997  0.13502  Biso   1.000  C
  C176     1.0000 0.17003  0.45367  0.13502  Biso   1.000  C
  C177     1.0000 0.49663  0.61697  0.69832  Biso   1.000  C
  C178     1.0000 0.12033  0.50337  0.69832  Biso   1.000  C
  C179     1.0000 0.82997  0.28363  0.36498  Biso   1.000  C
  C180     1.0000 0.45367  0.17003  0.36498  Biso   1.000  C
  H73      1.0000 0.79590  0.99680  0.53870  Biso   1.000  H
  H74      1.0000 0.00320  0.79910  0.53870  Biso   1.000  H
  H75      1.0000 0.20090  0.20410  0.53870  Biso   1.000  H
  H76      1.0000 0.99680  0.79590  0.96130  Biso   1.000  H
  H77      1.0000 0.46257  0.33013  0.87203  Biso   1.000  H
  H78      1.0000 0.66987  0.13243  0.87203  Biso   1.000  H
  H79      1.0000 0.86757  0.53743  0.87203  Biso   1.000  H
  H80      1.0000 0.66347  0.12923  0.29463  Biso   1.000  H
  H81      1.0000 0.12923  0.66347  0.20537  Biso   1.000  H
  H82      1.0000 0.33013  0.46257  0.62797  Biso   1.000  H
  H83      1.0000 0.79910  0.00320  0.96130  Biso   1.000  H
  H84      1.0000 0.20410  0.20090  0.96130  Biso   1.000  H
  H85      1.0000 0.33653  0.46577  0.20537  Biso   1.000  H
  H86      1.0000 0.53423  0.87077  0.20537  Biso   1.000  H
  H87      1.0000 0.13243  0.66987  0.62797  Biso   1.000  H
  H88      1.0000 0.53743  0.86757  0.62797  Biso   1.000  H
  H89      1.0000 0.46577  0.33653  0.29463  Biso   1.000  H
  H90      1.0000 0.87077  0.53423  0.29463  Biso   1.000  H
  H91      1.0000 0.20410  0.00320  0.46130  Biso   1.000  H
  H92      1.0000 0.99680  0.20090  0.46130  Biso   1.000  H
  H93      1.0000 0.79910  0.79590  0.46130  Biso   1.000  H
  H94      1.0000 0.00320  0.20410  0.03870  Biso   1.000  H
  H95      1.0000 0.87077  0.33653  0.79463  Biso   1.000  H
  H96      1.0000 0.66347  0.53423  0.79463  Biso   1.000  H
  H97      1.0000 0.46577  0.12923  0.79463  Biso   1.000  H
  H98      1.0000 0.66987  0.53743  0.37203  Biso   1.000  H
  H99      1.0000 0.53743  0.66987  0.12797  Biso   1.000  H
  H100     1.0000 0.33653  0.87077  0.70537  Biso   1.000  H
  H101     1.0000 0.20090  0.99680  0.03870  Biso   1.000  H
  H102     1.0000 0.79590  0.79910  0.03870  Biso   1.000  H
  H103     1.0000 0.33013  0.86757  0.12797  Biso   1.000  H
  H104     1.0000 0.13243  0.46257  0.12797  Biso   1.000  H
  H105     1.0000 0.53423  0.66347  0.70537  Biso   1.000  H
  H106     1.0000 0.12923  0.46577  0.70537  Biso   1.000  H
  H107     1.0000 0.86757  0.33013  0.37203  Biso   1.000  H
  H108     1.0000 0.46257  0.13243  0.37203  Biso   1.000  H
  C181     1.0000 0.70510  0.91750  0.52277  Biso   1.000  C
  C182     1.0000 0.08250  0.78760  0.52277  Biso   1.000  C
  C183     1.0000 0.21240  0.29490  0.52277  Biso   1.000  C
  C184     1.0000 0.91750  0.70510  0.97723  Biso   1.000  C
  C185     1.0000 0.37177  0.25083  0.85610  Biso   1.000  C
  C186     1.0000 0.74917  0.12093  0.85610  Biso   1.000  C
  C187     1.0000 0.87907  0.62823  0.85610  Biso   1.000  C
  C188     1.0000 0.58417  0.03843  0.31056  Biso   1.000  C
  C189     1.0000 0.03843  0.58417  0.18944  Biso   1.000  C
  C190     1.0000 0.25083  0.37177  0.64390  Biso   1.000  C
  C191     1.0000 0.78760  0.08250  0.97723  Biso   1.000  C
  C192     1.0000 0.29490  0.21240  0.97723  Biso   1.000  C
  C193     1.0000 0.41583  0.45427  0.18944  Biso   1.000  C
  C194     1.0000 0.54573  0.96157  0.18944  Biso   1.000  C
  C195     1.0000 0.12093  0.74917  0.64390  Biso   1.000  C
  C196     1.0000 0.62823  0.87907  0.64390  Biso   1.000  C
  C197     1.0000 0.45427  0.41583  0.31056  Biso   1.000  C
  C198     1.0000 0.96157  0.54573  0.31056  Biso   1.000  C
  C199     1.0000 0.29490  0.08250  0.47723  Biso   1.000  C
  C200     1.0000 0.91750  0.21240  0.47723  Biso   1.000  C
  C201     1.0000 0.78760  0.70510  0.47723  Biso   1.000  C
  C202     1.0000 0.08250  0.29490  0.02277  Biso   1.000  C
  C203     1.0000 0.96157  0.41583  0.81056  Biso   1.000  C
  C204     1.0000 0.58417  0.54573  0.81056  Biso   1.000  C
  C205     1.0000 0.45427  0.03843  0.81056  Biso   1.000  C
  C206     1.0000 0.74917  0.62823  0.35610  Biso   1.000  C
  C207     1.0000 0.62823  0.74917  0.14390  Biso   1.000  C
  C208     1.0000 0.41583  0.96157  0.68944  Biso   1.000  C
  C209     1.0000 0.21240  0.91750  0.02277  Biso   1.000  C
  C210     1.0000 0.70510  0.78760  0.02277  Biso   1.000  C
  C211     1.0000 0.25083  0.87907  0.14390  Biso   1.000  C
  C212     1.0000 0.12093  0.37177  0.14390  Biso   1.000  C
  C213     1.0000 0.54573  0.58417  0.68944  Biso   1.000  C
  C214     1.0000 0.03843  0.45427  0.68944  Biso   1.000  C
  C215     1.0000 0.87907  0.25083  0.35610  Biso   1.000  C
  C216     1.0000 0.37177  0.12093  0.35610  Biso   1.000  C
  H109     1.0000 0.66110  0.94290  0.52370  Biso   1.000  H
  H110     1.0000 0.05710  0.71820  0.52370  Biso   1.000  H
  H111     1.0000 0.28180  0.33890  0.52370  Biso   1.000  H
  H112     1.0000 0.94290  0.66110  0.97630  Biso   1.000  H
  H113     1.0000 0.32777  0.27623  0.85703  Biso   1.000  H
  H114     1.0000 0.72377  0.05153  0.85703  Biso   1.000  H
  H115     1.0000 0.94847  0.67223  0.85703  Biso   1.000  H
  H116     1.0000 0.60957  0.99443  0.30963  Biso   1.000  H
  H117     1.0000 0.99443  0.60957  0.19037  Biso   1.000  H
  H118     1.0000 0.27623  0.32777  0.64297  Biso   1.000  H
  H119     1.0000 0.71820  0.05710  0.97630  Biso   1.000  H
  H120     1.0000 0.33890  0.28180  0.97630  Biso   1.000  H
  H121     1.0000 0.39043  0.38487  0.19037  Biso   1.000  H
  H122     1.0000 0.61513  0.00557  0.19037  Biso   1.000  H
  H123     1.0000 0.05153  0.72377  0.64297  Biso   1.000  H
  H124     1.0000 0.67223  0.94847  0.64297  Biso   1.000  H
  H125     1.0000 0.38487  0.39043  0.30963  Biso   1.000  H
  H126     1.0000 0.00557  0.61513  0.30963  Biso   1.000  H
  H127     1.0000 0.33890  0.05710  0.47630  Biso   1.000  H
  H128     1.0000 0.94290  0.28180  0.47630  Biso   1.000  H
  H129     1.0000 0.71820  0.66110  0.47630  Biso   1.000  H
  H130     1.0000 0.05710  0.33890  0.02370  Biso   1.000  H
  H131     1.0000 0.00557  0.39043  0.80963  Biso   1.000  H
  H132     1.0000 0.60957  0.61513  0.80963  Biso   1.000  H
  H133     1.0000 0.38487  0.99443  0.80963  Biso   1.000  H
  H134     1.0000 0.72377  0.67223  0.35703  Biso   1.000  H
  H135     1.0000 0.67223  0.72377  0.14297  Biso   1.000  H
  H136     1.0000 0.39043  0.00557  0.69037  Biso   1.000  H
  H137     1.0000 0.28180  0.94290  0.02370  Biso   1.000  H
  H138     1.0000 0.66110  0.71820  0.02370  Biso   1.000  H
  H139     1.0000 0.27623  0.94847  0.14297  Biso   1.000  H
  H140     1.0000 0.05153  0.32777  0.14297  Biso   1.000  H
  H141     1.0000 0.61513  0.60957  0.69037  Biso   1.000  H
  H142     1.0000 0.99443  0.38487  0.69037  Biso   1.000  H
  H143     1.0000 0.94847  0.27623  0.35703  Biso   1.000  H
  H144     1.0000 0.32777  0.05153  0.35703  Biso   1.000  H
  C217     1.0000 0.52470  0.74370  0.46573  Biso   1.000  C
  C218     1.0000 0.25630  0.78100  0.46573  Biso   1.000  C
  C219     1.0000 0.21900  0.47530  0.46573  Biso   1.000  C
  C220     1.0000 0.74370  0.52470  0.03427  Biso   1.000  C
  C221     1.0000 0.19137  0.07703  0.79906  Biso   1.000  C
  C222     1.0000 0.92297  0.11433  0.79906  Biso   1.000  C
  C223     1.0000 0.88567  0.80863  0.79906  Biso   1.000  C
  C224     1.0000 0.41037  0.85803  0.36760  Biso   1.000  C
  C225     1.0000 0.85803  0.41037  0.13240  Biso   1.000  C
  C226     1.0000 0.07703  0.19137  0.70094  Biso   1.000  C
  C227     1.0000 0.78100  0.25630  0.03427  Biso   1.000  C
  C228     1.0000 0.47530  0.21900  0.03427  Biso   1.000  C
  C229     1.0000 0.58963  0.44767  0.13240  Biso   1.000  C
  C230     1.0000 0.55233  0.14197  0.13240  Biso   1.000  C
  C231     1.0000 0.11433  0.92297  0.70094  Biso   1.000  C
  C232     1.0000 0.80863  0.88567  0.70094  Biso   1.000  C
  C233     1.0000 0.44767  0.58963  0.36760  Biso   1.000  C
  C234     1.0000 0.14197  0.55233  0.36760  Biso   1.000  C
  C235     1.0000 0.47530  0.25630  0.53427  Biso   1.000  C
  C236     1.0000 0.74370  0.21900  0.53427  Biso   1.000  C
  C237     1.0000 0.78100  0.52470  0.53427  Biso   1.000  C
  C238     1.0000 0.25630  0.47530  0.96573  Biso   1.000  C
  C239     1.0000 0.14197  0.58963  0.86760  Biso   1.000  C
  C240     1.0000 0.41037  0.55233  0.86760  Biso   1.000  C
  C241     1.0000 0.44767  0.85803  0.86760  Biso   1.000  C
  C242     1.0000 0.92297  0.80863  0.29906  Biso   1.000  C
  C243     1.0000 0.80863  0.92297  0.20094  Biso   1.000  C
  C244     1.0000 0.58963  0.14197  0.63240  Biso   1.000  C
  C245     1.0000 0.21900  0.74370  0.96573  Biso   1.000  C
  C246     1.0000 0.52470  0.78100  0.96573  Biso   1.000  C
  C247     1.0000 0.07703  0.88567  0.20094  Biso   1.000  C
  C248     1.0000 0.11433  0.19137  0.20094  Biso   1.000  C
  C249     1.0000 0.55233  0.41037  0.63240  Biso   1.000  C
  C250     1.0000 0.85803  0.44767  0.63240  Biso   1.000  C
  C251     1.0000 0.88567  0.07703  0.29906  Biso   1.000  C
  C252     1.0000 0.19137  0.11433  0.29906  Biso   1.000  C
  C253     1.0000 0.59960  0.81170  0.45470  Biso   1.000  C
  C254     1.0000 0.18830  0.78790  0.45470  Biso   1.000  C
  C255     1.0000 0.21210  0.40040  0.45470  Biso   1.000  C
  C256     1.0000 0.81170  0.59960  0.04530  Biso   1.000  C
  C257     1.0000 0.26627  0.14503  0.78803  Biso   1.000  C
  C258     1.0000 0.85497  0.12123  0.78803  Biso   1.000  C
  C259     1.0000 0.87877  0.73373  0.78803  Biso   1.000  C
  C260     1.0000 0.47837  0.93293  0.37863  Biso   1.000  C
  C261     1.0000 0.93293  0.47837  0.12137  Biso   1.000  C
  C262     1.0000 0.14503  0.26627  0.71197  Biso   1.000  C
  C263     1.0000 0.78790  0.18830  0.04530  Biso   1.000  C
  C264     1.0000 0.40040  0.21210  0.04530  Biso   1.000  C
  C265     1.0000 0.52163  0.45457  0.12137  Biso   1.000  C
  C266     1.0000 0.54543  0.06707  0.12137  Biso   1.000  C
  C267     1.0000 0.12123  0.85497  0.71197  Biso   1.000  C
  C268     1.0000 0.73373  0.87877  0.71197  Biso   1.000  C
  C269     1.0000 0.45457  0.52163  0.37863  Biso   1.000  C
  C270     1.0000 0.06707  0.54543  0.37863  Biso   1.000  C
  C271     1.0000 0.40040  0.18830  0.54530  Biso   1.000  C
  C272     1.0000 0.81170  0.21210  0.54530  Biso   1.000  C
  C273     1.0000 0.78790  0.59960  0.54530  Biso   1.000  C
  C274     1.0000 0.18830  0.40040  0.95470  Biso   1.000  C
  C275     1.0000 0.06707  0.52163  0.87863  Biso   1.000  C
  C276     1.0000 0.47837  0.54543  0.87863  Biso   1.000  C
  C277     1.0000 0.45457  0.93293  0.87863  Biso   1.000  C
  C278     1.0000 0.85497  0.73373  0.28803  Biso   1.000  C
  C279     1.0000 0.73373  0.85497  0.21197  Biso   1.000  C
  C280     1.0000 0.52163  0.06707  0.62137  Biso   1.000  C
  C281     1.0000 0.21210  0.81170  0.95470  Biso   1.000  C
  C282     1.0000 0.59960  0.78790  0.95470  Biso   1.000  C
  C283     1.0000 0.14503  0.87877  0.21197  Biso   1.000  C
  C284     1.0000 0.12123  0.26627  0.21197  Biso   1.000  C
  C285     1.0000 0.54543  0.47837  0.62137  Biso   1.000  C
  C286     1.0000 0.93293  0.45457  0.62137  Biso   1.000  C
  C287     1.0000 0.87877  0.14503  0.28803  Biso   1.000  C
  C288     1.0000 0.26627  0.12123  0.28803  Biso   1.000  C
  C289     1.0000 0.64360  0.91580  0.45569  Biso   1.000  C
  C290     1.0000 0.08420  0.72780  0.45569  Biso   1.000  C
  C291     1.0000 0.27220  0.35640  0.45569  Biso   1.000  C
  C292     1.0000 0.91580  0.64360  0.04431  Biso   1.000  C
  C293     1.0000 0.31027  0.24913  0.78902  Biso   1.000  C
  C294     1.0000 0.75087  0.06113  0.78902  Biso   1.000  C
  C295     1.0000 0.93887  0.68973  0.78902  Biso   1.000  C
  C296     1.0000 0.58247  0.97693  0.37764  Biso   1.000  C
  C297     1.0000 0.97693  0.58247  0.12236  Biso   1.000  C
  C298     1.0000 0.24913  0.31027  0.71098  Biso   1.000  C
  C299     1.0000 0.72780  0.08420  0.04431  Biso   1.000  C
  C300     1.0000 0.35640  0.27220  0.04431  Biso   1.000  C
  C301     1.0000 0.41753  0.39447  0.12236  Biso   1.000  C
  C302     1.0000 0.60553  0.02307  0.12236  Biso   1.000  C
  C303     1.0000 0.06113  0.75087  0.71098  Biso   1.000  C
  C304     1.0000 0.68973  0.93887  0.71098  Biso   1.000  C
  C305     1.0000 0.39447  0.41753  0.37764  Biso   1.000  C
  C306     1.0000 0.02307  0.60553  0.37764  Biso   1.000  C
  C307     1.0000 0.35640  0.08420  0.54431  Biso   1.000  C
  C308     1.0000 0.91580  0.27220  0.54431  Biso   1.000  C
  C309     1.0000 0.72780  0.64360  0.54431  Biso   1.000  C
  C310     1.0000 0.08420  0.35640  0.95569  Biso   1.000  C
  C311     1.0000 0.02307  0.41753  0.87764  Biso   1.000  C
  C312     1.0000 0.58247  0.60553  0.87764  Biso   1.000  C
  C313     1.0000 0.39447  0.97693  0.87764  Biso   1.000  C
  C314     1.0000 0.75087  0.68973  0.28902  Biso   1.000  C
  C315     1.0000 0.68973  0.75087  0.21098  Biso   1.000  C
  C316     1.0000 0.41753  0.02307  0.62236  Biso   1.000  C
  C317     1.0000 0.27220  0.91580  0.95569  Biso   1.000  C
  C318     1.0000 0.64360  0.72780  0.95569  Biso   1.000  C
  C319     1.0000 0.24913  0.93887  0.21098  Biso   1.000  C
  C320     1.0000 0.06113  0.31027  0.21098  Biso   1.000  C
  C321     1.0000 0.60553  0.58247  0.62236  Biso   1.000  C
  C322     1.0000 0.97693  0.39447  0.62236  Biso   1.000  C
  C323     1.0000 0.93887  0.24913  0.28902  Biso   1.000  C
  C324     1.0000 0.31027  0.06113  0.28902  Biso   1.000  C
  H145     1.0000 0.62650  0.94490  0.46310  Biso   1.000  H
  H146     1.0000 0.05510  0.68160  0.46310  Biso   1.000  H
  H147     1.0000 0.31840  0.37350  0.46310  Biso   1.000  H
  H148     1.0000 0.94490  0.62650  0.03690  Biso   1.000  H
  H149     1.0000 0.29317  0.27823  0.79643  Biso   1.000  H
  H150     1.0000 0.72177  0.01493  0.79643  Biso   1.000  H
  H151     1.0000 0.98507  0.70683  0.79643  Biso   1.000  H
  H152     1.0000 0.61157  0.95983  0.37023  Biso   1.000  H
  H153     1.0000 0.95983  0.61157  0.12977  Biso   1.000  H
  H154     1.0000 0.27823  0.29317  0.70357  Biso   1.000  H
  H155     1.0000 0.68160  0.05510  0.03690  Biso   1.000  H
  H156     1.0000 0.37350  0.31840  0.03690  Biso   1.000  H
  H157     1.0000 0.38843  0.34827  0.12977  Biso   1.000  H
  H158     1.0000 0.65173  0.04017  0.12977  Biso   1.000  H
  H159     1.0000 0.01493  0.72177  0.70357  Biso   1.000  H
  H160     1.0000 0.70683  0.98507  0.70357  Biso   1.000  H
  H161     1.0000 0.34827  0.38843  0.37023  Biso   1.000  H
  H162     1.0000 0.04017  0.65173  0.37023  Biso   1.000  H
  H163     1.0000 0.37350  0.05510  0.53690  Biso   1.000  H
  H164     1.0000 0.94490  0.31840  0.53690  Biso   1.000  H
  H165     1.0000 0.68160  0.62650  0.53690  Biso   1.000  H
  H166     1.0000 0.05510  0.37350  0.96310  Biso   1.000  H
  H167     1.0000 0.04017  0.38843  0.87023  Biso   1.000  H
  H168     1.0000 0.61157  0.65173  0.87023  Biso   1.000  H
  H169     1.0000 0.34827  0.95983  0.87023  Biso   1.000  H
  H170     1.0000 0.72177  0.70683  0.29643  Biso   1.000  H
  H171     1.0000 0.70683  0.72177  0.20357  Biso   1.000  H
  H172     1.0000 0.38843  0.04017  0.62977  Biso   1.000  H
  H173     1.0000 0.31840  0.94490  0.96310  Biso   1.000  H
  H174     1.0000 0.62650  0.68160  0.96310  Biso   1.000  H
  H175     1.0000 0.27823  0.98507  0.20357  Biso   1.000  H
  H176     1.0000 0.01493  0.29317  0.20357  Biso   1.000  H
  H177     1.0000 0.65173  0.61157  0.62977  Biso   1.000  H
  H178     1.0000 0.95983  0.34827  0.62977  Biso   1.000  H
  H179     1.0000 0.98507  0.27823  0.29643  Biso   1.000  H
  H180     1.0000 0.29317  0.01493  0.29643  Biso   1.000  H
  C325     1.0000 0.71340  0.97620  0.44547  Biso   1.000  C
  C326     1.0000 0.02380  0.73720  0.44547  Biso   1.000  C
  C327     1.0000 0.26280  0.28660  0.44547  Biso   1.000  C
  C328     1.0000 0.97620  0.71340  0.05453  Biso   1.000  C
  C329     1.0000 0.38007  0.30953  0.77880  Biso   1.000  C
  C330     1.0000 0.69047  0.07053  0.77880  Biso   1.000  C
  C331     1.0000 0.92947  0.61993  0.77880  Biso   1.000  C
  C332     1.0000 0.64287  0.04673  0.38786  Biso   1.000  C
  C333     1.0000 0.04673  0.64287  0.11214  Biso   1.000  C
  C334     1.0000 0.30953  0.38007  0.72120  Biso   1.000  C
  C335     1.0000 0.73720  0.02380  0.05453  Biso   1.000  C
  C336     1.0000 0.28660  0.26280  0.05453  Biso   1.000  C
  C337     1.0000 0.35713  0.40387  0.11214  Biso   1.000  C
  C338     1.0000 0.59613  0.95327  0.11214  Biso   1.000  C
  C339     1.0000 0.07053  0.69047  0.72120  Biso   1.000  C
  C340     1.0000 0.61993  0.92947  0.72120  Biso   1.000  C
  C341     1.0000 0.40387  0.35713  0.38786  Biso   1.000  C
  C342     1.0000 0.95327  0.59613  0.38786  Biso   1.000  C
  C343     1.0000 0.28660  0.02380  0.55453  Biso   1.000  C
  C344     1.0000 0.97620  0.26280  0.55453  Biso   1.000  C
  C345     1.0000 0.73720  0.71340  0.55453  Biso   1.000  C
  C346     1.0000 0.02380  0.28660  0.94547  Biso   1.000  C
  C347     1.0000 0.95327  0.35713  0.88786  Biso   1.000  C
  C348     1.0000 0.64287  0.59613  0.88786  Biso   1.000  C
  C349     1.0000 0.40387  0.04673  0.88786  Biso   1.000  C
  C350     1.0000 0.69047  0.61993  0.27880  Biso   1.000  C
  C351     1.0000 0.61993  0.69047  0.22120  Biso   1.000  C
  C352     1.0000 0.35713  0.95327  0.61214  Biso   1.000  C
  C353     1.0000 0.26280  0.97620  0.94547  Biso   1.000  C
  C354     1.0000 0.71340  0.73720  0.94547  Biso   1.000  C
  C355     1.0000 0.30953  0.92947  0.22120  Biso   1.000  C
  C356     1.0000 0.07053  0.38007  0.22120  Biso   1.000  C
  C357     1.0000 0.59613  0.64287  0.61214  Biso   1.000  C
  C358     1.0000 0.04673  0.40387  0.61214  Biso   1.000  C
  C359     1.0000 0.92947  0.30953  0.27880  Biso   1.000  C
  C360     1.0000 0.38007  0.07053  0.27880  Biso   1.000  C
  H181     1.0000 0.74360  0.04630  0.44630  Biso   1.000  H
  H182     1.0000 0.95370  0.69730  0.44630  Biso   1.000  H
  H183     1.0000 0.30270  0.25640  0.44630  Biso   1.000  H
  H184     1.0000 0.04630  0.74360  0.05370  Biso   1.000  H
  H185     1.0000 0.41027  0.37963  0.77963  Biso   1.000  H
  H186     1.0000 0.62037  0.03063  0.77963  Biso   1.000  H
  H187     1.0000 0.96937  0.58973  0.77963  Biso   1.000  H
  H188     1.0000 0.71297  0.07693  0.38703  Biso   1.000  H
  H189     1.0000 0.07693  0.71297  0.11297  Biso   1.000  H
  H190     1.0000 0.37963  0.41027  0.72037  Biso   1.000  H
  H191     1.0000 0.69730  0.95370  0.05370  Biso   1.000  H
  H192     1.0000 0.25640  0.30270  0.05370  Biso   1.000  H
  H193     1.0000 0.28703  0.36397  0.11297  Biso   1.000  H
  H194     1.0000 0.63603  0.92307  0.11297  Biso   1.000  H
  H195     1.0000 0.03063  0.62037  0.72037  Biso   1.000  H
  H196     1.0000 0.58973  0.96937  0.72037  Biso   1.000  H
  H197     1.0000 0.36397  0.28703  0.38703  Biso   1.000  H
  H198     1.0000 0.92307  0.63603  0.38703  Biso   1.000  H
  H199     1.0000 0.25640  0.95370  0.55370  Biso   1.000  H
  H200     1.0000 0.04630  0.30270  0.55370  Biso   1.000  H
  H201     1.0000 0.69730  0.74360  0.55370  Biso   1.000  H
  H202     1.0000 0.95370  0.25640  0.94630  Biso   1.000  H
  H203     1.0000 0.92307  0.28703  0.88703  Biso   1.000  H
  H204     1.0000 0.71297  0.63603  0.88703  Biso   1.000  H
  H205     1.0000 0.36397  0.07693  0.88703  Biso   1.000  H
  H206     1.0000 0.62037  0.58973  0.27963  Biso   1.000  H
  H207     1.0000 0.58973  0.62037  0.22037  Biso   1.000  H
  H208     1.0000 0.28703  0.92307  0.61297  Biso   1.000  H
  H209     1.0000 0.30270  0.04630  0.94630  Biso   1.000  H
  H210     1.0000 0.74360  0.69730  0.94630  Biso   1.000  H
  H211     1.0000 0.37963  0.96937  0.22037  Biso   1.000  H
  H212     1.0000 0.03063  0.41027  0.22037  Biso   1.000  H
  H213     1.0000 0.63603  0.71297  0.61297  Biso   1.000  H
  H214     1.0000 0.07693  0.36397  0.61297  Biso   1.000  H
  H215     1.0000 0.96937  0.37963  0.27963  Biso   1.000  H
  H216     1.0000 0.41027  0.03063  0.27963  Biso   1.000  H
  C361     1.0000 0.69870  0.83780  0.43392  Biso   1.000  C
  C362     1.0000 0.16220  0.86090  0.43392  Biso   1.000  C
  C363     1.0000 0.13910  0.30130  0.43392  Biso   1.000  C
  C364     1.0000 0.83780  0.69870  0.06608  Biso   1.000  C
  C365     1.0000 0.36537  0.17113  0.76725  Biso   1.000  C
  C366     1.0000 0.82887  0.19423  0.76725  Biso   1.000  C
  C367     1.0000 0.80577  0.63463  0.76725  Biso   1.000  C
  C368     1.0000 0.50447  0.03203  0.39941  Biso   1.000  C
  C369     1.0000 0.03203  0.50447  0.10059  Biso   1.000  C
  C370     1.0000 0.17113  0.36537  0.73275  Biso   1.000  C
  C371     1.0000 0.86090  0.16220  0.06608  Biso   1.000  C
  C372     1.0000 0.30130  0.13910  0.06608  Biso   1.000  C
  C373     1.0000 0.49553  0.52757  0.10059  Biso   1.000  C
  C374     1.0000 0.47243  0.96797  0.10059  Biso   1.000  C
  C375     1.0000 0.19423  0.82887  0.73275  Biso   1.000  C
  C376     1.0000 0.63463  0.80577  0.73275  Biso   1.000  C
  C377     1.0000 0.52757  0.49553  0.39941  Biso   1.000  C
  C378     1.0000 0.96797  0.47243  0.39941  Biso   1.000  C
  C379     1.0000 0.30130  0.16220  0.56608  Biso   1.000  C
  C380     1.0000 0.83780  0.13910  0.56608  Biso   1.000  C
  C381     1.0000 0.86090  0.69870  0.56608  Biso   1.000  C
  C382     1.0000 0.16220  0.30130  0.93392  Biso   1.000  C
  C383     1.0000 0.96797  0.49553  0.89941  Biso   1.000  C
  C384     1.0000 0.50447  0.47243  0.89941  Biso   1.000  C
  C385     1.0000 0.52757  0.03203  0.89941  Biso   1.000  C
  C386     1.0000 0.82887  0.63463  0.26725  Biso   1.000  C
  C387     1.0000 0.63463  0.82887  0.23275  Biso   1.000  C
  C388     1.0000 0.49553  0.96797  0.60059  Biso   1.000  C
  C389     1.0000 0.13910  0.83780  0.93392  Biso   1.000  C
  C390     1.0000 0.69870  0.86090  0.93392  Biso   1.000  C
  C391     1.0000 0.17113  0.80577  0.23275  Biso   1.000  C
  C392     1.0000 0.19423  0.36537  0.23275  Biso   1.000  C
  C393     1.0000 0.47243  0.50447  0.60059  Biso   1.000  C
  C394     1.0000 0.03203  0.52757  0.60059  Biso   1.000  C
  C395     1.0000 0.80577  0.17113  0.26725  Biso   1.000  C
  C396     1.0000 0.36537  0.19423  0.26725  Biso   1.000  C
  H217     1.0000 0.71830  0.81020  0.42660  Biso   1.000  H
  H218     1.0000 0.18980  0.90810  0.42660  Biso   1.000  H
  H219     1.0000 0.09190  0.28170  0.42660  Biso   1.000  H
  H220     1.0000 0.81020  0.71830  0.07340  Biso   1.000  H
  H221     1.0000 0.38497  0.14353  0.75993  Biso   1.000  H
  H222     1.0000 0.85647  0.24143  0.75993  Biso   1.000  H
  H223     1.0000 0.75857  0.61503  0.75993  Biso   1.000  H
  H224     1.0000 0.47687  0.05163  0.40673  Biso   1.000  H
  H225     1.0000 0.05163  0.47687  0.09327  Biso   1.000  H
  H226     1.0000 0.14353  0.38497  0.74007  Biso   1.000  H
  H227     1.0000 0.90810  0.18980  0.07340  Biso   1.000  H
  H228     1.0000 0.28170  0.09190  0.07340  Biso   1.000  H
  H229     1.0000 0.52313  0.57477  0.09327  Biso   1.000  H
  H230     1.0000 0.42523  0.94837  0.09327  Biso   1.000  H
  H231     1.0000 0.24143  0.85647  0.74007  Biso   1.000  H
  H232     1.0000 0.61503  0.75857  0.74007  Biso   1.000  H
  H233     1.0000 0.57477  0.52313  0.40673  Biso   1.000  H
  H234     1.0000 0.94837  0.42523  0.40673  Biso   1.000  H
  H235     1.0000 0.28170  0.18980  0.57340  Biso   1.000  H
  H236     1.0000 0.81020  0.09190  0.57340  Biso   1.000  H
  H237     1.0000 0.90810  0.71830  0.57340  Biso   1.000  H
  H238     1.0000 0.18980  0.28170  0.92660  Biso   1.000  H
  H239     1.0000 0.94837  0.52313  0.90673  Biso   1.000  H
  H240     1.0000 0.47687  0.42523  0.90673  Biso   1.000  H
  H241     1.0000 0.57477  0.05163  0.90673  Biso   1.000  H
  H242     1.0000 0.85647  0.61503  0.25993  Biso   1.000  H
  H243     1.0000 0.61503  0.85647  0.24007  Biso   1.000  H
  H244     1.0000 0.52313  0.94837  0.59327  Biso   1.000  H
  H245     1.0000 0.09190  0.81020  0.92660  Biso   1.000  H
  H246     1.0000 0.71830  0.90810  0.92660  Biso   1.000  H
  H247     1.0000 0.14353  0.75857  0.24007  Biso   1.000  H
  H248     1.0000 0.24143  0.38497  0.24007  Biso   1.000  H
  H249     1.0000 0.42523  0.47687  0.59327  Biso   1.000  H
  H250     1.0000 0.05163  0.57477  0.59327  Biso   1.000  H
  H251     1.0000 0.75857  0.14353  0.25993  Biso   1.000  H
  H252     1.0000 0.38497  0.24143  0.25993  Biso   1.000  H
  C397     1.0000 0.62920  0.77280  0.44374  Biso   1.000  C
  C398     1.0000 0.22720  0.85640  0.44374  Biso   1.000  C
  C399     1.0000 0.14360  0.37080  0.44374  Biso   1.000  C
  C400     1.0000 0.77280  0.62920  0.05626  Biso   1.000  C
  C401     1.0000 0.29587  0.10613  0.77707  Biso   1.000  C
  C402     1.0000 0.89387  0.18973  0.77707  Biso   1.000  C
  C403     1.0000 0.81027  0.70413  0.77707  Biso   1.000  C
  C404     1.0000 0.43947  0.96253  0.38959  Biso   1.000  C
  C405     1.0000 0.96253  0.43947  0.11041  Biso   1.000  C
  C406     1.0000 0.10613  0.29587  0.72293  Biso   1.000  C
  C407     1.0000 0.85640  0.22720  0.05626  Biso   1.000  C
  C408     1.0000 0.37080  0.14360  0.05626  Biso   1.000  C
  C409     1.0000 0.56053  0.52307  0.11041  Biso   1.000  C
  C410     1.0000 0.47693  0.03747  0.11041  Biso   1.000  C
  C411     1.0000 0.18973  0.89387  0.72293  Biso   1.000  C
  C412     1.0000 0.70413  0.81027  0.72293  Biso   1.000  C
  C413     1.0000 0.52307  0.56053  0.38959  Biso   1.000  C
  C414     1.0000 0.03747  0.47693  0.38959  Biso   1.000  C
  C415     1.0000 0.37080  0.22720  0.55626  Biso   1.000  C
  C416     1.0000 0.77280  0.14360  0.55626  Biso   1.000  C
  C417     1.0000 0.85640  0.62920  0.55626  Biso   1.000  C
  C418     1.0000 0.22720  0.37080  0.94374  Biso   1.000  C
  C419     1.0000 0.03747  0.56053  0.88959  Biso   1.000  C
  C420     1.0000 0.43947  0.47693  0.88959  Biso   1.000  C
  C421     1.0000 0.52307  0.96253  0.88959  Biso   1.000  C
  C422     1.0000 0.89387  0.70413  0.27707  Biso   1.000  C
  C423     1.0000 0.70413  0.89387  0.22293  Biso   1.000  C
  C424     1.0000 0.56053  0.03747  0.61041  Biso   1.000  C
  C425     1.0000 0.14360  0.77280  0.94374  Biso   1.000  C
  C426     1.0000 0.62920  0.85640  0.94374  Biso   1.000  C
  C427     1.0000 0.10613  0.81027  0.22293  Biso   1.000  C
  C428     1.0000 0.18973  0.29587  0.22293  Biso   1.000  C
  C429     1.0000 0.47693  0.43947  0.61041  Biso   1.000  C
  C430     1.0000 0.96253  0.52307  0.61041  Biso   1.000  C
  C431     1.0000 0.81027  0.10613  0.27707  Biso   1.000  C
  C432     1.0000 0.29587  0.18973  0.27707  Biso   1.000  C
  H253     1.0000 0.60270  0.70320  0.44290  Biso   1.000  H
  H254     1.0000 0.29680  0.89950  0.44290  Biso   1.000  H
  H255     1.0000 0.10050  0.39730  0.44290  Biso   1.000  H
  H256     1.0000 0.70320  0.60270  0.05710  Biso   1.000  H
  H257     1.0000 0.26937  0.03653  0.77623  Biso   1.000  H
  H258     1.0000 0.96347  0.23283  0.77623  Biso   1.000  H
  H259     1.0000 0.76717  0.73063  0.77623  Biso   1.000  H
  H260     1.0000 0.36987  0.93603  0.39043  Biso   1.000  H
  H261     1.0000 0.93603  0.36987  0.10957  Biso   1.000  H
  H262     1.0000 0.03653  0.26937  0.72377  Biso   1.000  H
  H263     1.0000 0.89950  0.29680  0.05710  Biso   1.000  H
  H264     1.0000 0.39730  0.10050  0.05710  Biso   1.000  H
  H265     1.0000 0.63013  0.56617  0.10957  Biso   1.000  H
  H266     1.0000 0.43383  0.06397  0.10957  Biso   1.000  H
  H267     1.0000 0.23283  0.96347  0.72377  Biso   1.000  H
  H268     1.0000 0.73063  0.76717  0.72377  Biso   1.000  H
  H269     1.0000 0.56617  0.63013  0.39043  Biso   1.000  H
  H270     1.0000 0.06397  0.43383  0.39043  Biso   1.000  H
  H271     1.0000 0.39730  0.29680  0.55710  Biso   1.000  H
  H272     1.0000 0.70320  0.10050  0.55710  Biso   1.000  H
  H273     1.0000 0.89950  0.60270  0.55710  Biso   1.000  H
  H274     1.0000 0.29680  0.39730  0.94290  Biso   1.000  H
  H275     1.0000 0.06397  0.63013  0.89043  Biso   1.000  H
  H276     1.0000 0.36987  0.43383  0.89043  Biso   1.000  H
  H277     1.0000 0.56617  0.93603  0.89043  Biso   1.000  H
  H278     1.0000 0.96347  0.73063  0.27623  Biso   1.000  H
  H279     1.0000 0.73063  0.96347  0.22377  Biso   1.000  H
  H280     1.0000 0.63013  0.06397  0.60957  Biso   1.000  H
  H281     1.0000 0.10050  0.70320  0.94290  Biso   1.000  H
  H282     1.0000 0.60270  0.89950  0.94290  Biso   1.000  H
  H283     1.0000 0.03653  0.76717  0.22377  Biso   1.000  H
  H284     1.0000 0.23283  0.26937  0.22377  Biso   1.000  H
  H285     1.0000 0.43383  0.36987  0.60957  Biso   1.000  H
  H286     1.0000 0.93603  0.56617  0.60957  Biso   1.000  H
  H287     1.0000 0.76717  0.03653  0.27623  Biso   1.000  H
  H288     1.0000 0.26937  0.23283  0.27623  Biso   1.000  H
  C433     1.0000 0.56730  0.09390  0.47829  Biso   1.000  C
  C434     1.0000 0.90610  0.47340  0.47829  Biso   1.000  C
  C435     1.0000 0.52660  0.43270  0.47829  Biso   1.000  C
  C436     1.0000 0.09390  0.56730  0.02171  Biso   1.000  C
  C437     1.0000 0.23397  0.42723  0.81162  Biso   1.000  C
  C438     1.0000 0.57277  0.80673  0.81162  Biso   1.000  C
  C439     1.0000 0.19327  0.76603  0.81162  Biso   1.000  C
  C440     1.0000 0.76057  0.90063  0.35504  Biso   1.000  C
  C441     1.0000 0.90063  0.76057  0.14496  Biso   1.000  C
  C442     1.0000 0.42723  0.23397  0.68838  Biso   1.000  C
  C443     1.0000 0.47340  0.90610  0.02171  Biso   1.000  C
  C444     1.0000 0.43270  0.52660  0.02171  Biso   1.000  C
  C445     1.0000 0.23943  0.14007  0.14496  Biso   1.000  C
  C446     1.0000 0.85993  0.09937  0.14496  Biso   1.000  C
  C447     1.0000 0.80673  0.57277  0.68838  Biso   1.000  C
  C448     1.0000 0.76603  0.19327  0.68838  Biso   1.000  C
  C449     1.0000 0.14007  0.23943  0.35504  Biso   1.000  C
  C450     1.0000 0.09937  0.85993  0.35504  Biso   1.000  C
  C451     1.0000 0.43270  0.90610  0.52171  Biso   1.000  C
  C452     1.0000 0.09390  0.52660  0.52171  Biso   1.000  C
  C453     1.0000 0.47340  0.56730  0.52171  Biso   1.000  C
  C454     1.0000 0.90610  0.43270  0.97829  Biso   1.000  C
  C455     1.0000 0.09937  0.23943  0.85504  Biso   1.000  C
  C456     1.0000 0.76057  0.85993  0.85504  Biso   1.000  C
  C457     1.0000 0.14007  0.90063  0.85504  Biso   1.000  C
  C458     1.0000 0.57277  0.76603  0.31162  Biso   1.000  C
  C459     1.0000 0.76603  0.57277  0.18838  Biso   1.000  C
  C460     1.0000 0.23943  0.09937  0.64496  Biso   1.000  C
  C461     1.0000 0.52660  0.09390  0.97829  Biso   1.000  C
  C462     1.0000 0.56730  0.47340  0.97829  Biso   1.000  C
  C463     1.0000 0.42723  0.19327  0.18838  Biso   1.000  C
  C464     1.0000 0.80673  0.23397  0.18838  Biso   1.000  C
  C465     1.0000 0.85993  0.76057  0.64496  Biso   1.000  C
  C466     1.0000 0.90063  0.14007  0.64496  Biso   1.000  C
  C467     1.0000 0.19327  0.42723  0.31162  Biso   1.000  C
  C468     1.0000 0.23397  0.80673  0.31162  Biso   1.000  C
  C469     1.0000 0.59040  0.11410  0.46278  Biso   1.000  C
  C470     1.0000 0.88590  0.47630  0.46278  Biso   1.000  C
  C471     1.0000 0.52370  0.40960  0.46278  Biso   1.000  C
  C472     1.0000 0.11410  0.59040  0.03722  Biso   1.000  C
  C473     1.0000 0.25707  0.44743  0.79611  Biso   1.000  C
  C474     1.0000 0.55257  0.80963  0.79611  Biso   1.000  C
  C475     1.0000 0.19037  0.74293  0.79611  Biso   1.000  C
  C476     1.0000 0.78077  0.92373  0.37055  Biso   1.000  C
  C477     1.0000 0.92373  0.78077  0.12945  Biso   1.000  C
  C478     1.0000 0.44743  0.25707  0.70389  Biso   1.000  C
  C479     1.0000 0.47630  0.88590  0.03722  Biso   1.000  C
  C480     1.0000 0.40960  0.52370  0.03722  Biso   1.000  C
  C481     1.0000 0.21923  0.14297  0.12945  Biso   1.000  C
  C482     1.0000 0.85703  0.07627  0.12945  Biso   1.000  C
  C483     1.0000 0.80963  0.55257  0.70389  Biso   1.000  C
  C484     1.0000 0.74293  0.19037  0.70389  Biso   1.000  C
  C485     1.0000 0.14297  0.21923  0.37055  Biso   1.000  C
  C486     1.0000 0.07627  0.85703  0.37055  Biso   1.000  C
  C487     1.0000 0.40960  0.88590  0.53722  Biso   1.000  C
  C488     1.0000 0.11410  0.52370  0.53722  Biso   1.000  C
  C489     1.0000 0.47630  0.59040  0.53722  Biso   1.000  C
  C490     1.0000 0.88590  0.40960  0.96278  Biso   1.000  C
  C491     1.0000 0.07627  0.21923  0.87055  Biso   1.000  C
  C492     1.0000 0.78077  0.85703  0.87055  Biso   1.000  C
  C493     1.0000 0.14297  0.92373  0.87055  Biso   1.000  C
  C494     1.0000 0.55257  0.74293  0.29611  Biso   1.000  C
  C495     1.0000 0.74293  0.55257  0.20389  Biso   1.000  C
  C496     1.0000 0.21923  0.07627  0.62945  Biso   1.000  C
  C497     1.0000 0.52370  0.11410  0.96278  Biso   1.000  C
  C498     1.0000 0.59040  0.47630  0.96278  Biso   1.000  C
  C499     1.0000 0.44743  0.19037  0.20389  Biso   1.000  C
  C500     1.0000 0.80963  0.25707  0.20389  Biso   1.000  C
  C501     1.0000 0.85703  0.78077  0.62945  Biso   1.000  C
  C502     1.0000 0.92373  0.14297  0.62945  Biso   1.000  C
  C503     1.0000 0.19037  0.44743  0.29611  Biso   1.000  C
  C504     1.0000 0.25707  0.80963  0.29611  Biso   1.000  C
  C505     1.0000 0.52770  0.04760  0.45230  Biso   1.000  C
  C506     1.0000 0.95240  0.48010  0.45230  Biso   1.000  C
  C507     1.0000 0.51990  0.47230  0.45230  Biso   1.000  C
  C508     1.0000 0.04760  0.52770  0.04770  Biso   1.000  C
  C509     1.0000 0.19437  0.38093  0.78563  Biso   1.000  C
  C510     1.0000 0.61907  0.81343  0.78563  Biso   1.000  C
  C511     1.0000 0.18657  0.80563  0.78563  Biso   1.000  C
  C512     1.0000 0.71427  0.86103  0.38103  Biso   1.000  C
  C513     1.0000 0.86103  0.71427  0.11897  Biso   1.000  C
  C514     1.0000 0.38093  0.19437  0.71437  Biso   1.000  C
  C515     1.0000 0.48010  0.95240  0.04770  Biso   1.000  C
  C516     1.0000 0.47230  0.51990  0.04770  Biso   1.000  C
  C517     1.0000 0.28573  0.14677  0.11897  Biso   1.000  C
  C518     1.0000 0.85323  0.13897  0.11897  Biso   1.000  C
  C519     1.0000 0.81343  0.61907  0.71437  Biso   1.000  C
  C520     1.0000 0.80563  0.18657  0.71437  Biso   1.000  C
  C521     1.0000 0.14677  0.28573  0.38103  Biso   1.000  C
  C522     1.0000 0.13897  0.85323  0.38103  Biso   1.000  C
  C523     1.0000 0.47230  0.95240  0.54770  Biso   1.000  C
  C524     1.0000 0.04760  0.51990  0.54770  Biso   1.000  C
  C525     1.0000 0.48010  0.52770  0.54770  Biso   1.000  C
  C526     1.0000 0.95240  0.47230  0.95230  Biso   1.000  C
  C527     1.0000 0.13897  0.28573  0.88103  Biso   1.000  C
  C528     1.0000 0.71427  0.85323  0.88103  Biso   1.000  C
  C529     1.0000 0.14677  0.86103  0.88103  Biso   1.000  C
  C530     1.0000 0.61907  0.80563  0.28563  Biso   1.000  C
  C531     1.0000 0.80563  0.61907  0.21437  Biso   1.000  C
  C532     1.0000 0.28573  0.13897  0.61897  Biso   1.000  C
  C533     1.0000 0.51990  0.04760  0.95230  Biso   1.000  C
  C534     1.0000 0.52770  0.48010  0.95230  Biso   1.000  C
  C535     1.0000 0.38093  0.18657  0.21437  Biso   1.000  C
  C536     1.0000 0.81343  0.19437  0.21437  Biso   1.000  C
  C537     1.0000 0.85323  0.71427  0.61897  Biso   1.000  C
  C538     1.0000 0.86103  0.14677  0.61897  Biso   1.000  C
  C539     1.0000 0.18657  0.38093  0.28563  Biso   1.000  C
  C540     1.0000 0.19437  0.81343  0.28563  Biso   1.000  C
  H289     1.0000 0.46850  0.98840  0.45470  Biso   1.000  H
  H290     1.0000 0.01160  0.48010  0.45470  Biso   1.000  H
  H291     1.0000 0.51990  0.53150  0.45470  Biso   1.000  H
  H292     1.0000 0.98840  0.46850  0.04530  Biso   1.000  H
  H293     1.0000 0.13517  0.32173  0.78803  Biso   1.000  H
  H294     1.0000 0.67827  0.81343  0.78803  Biso   1.000  H
  H295     1.0000 0.18657  0.86483  0.78803  Biso   1.000  H
  H296     1.0000 0.65507  0.80183  0.37863  Biso   1.000  H
  H297     1.0000 0.80183  0.65507  0.12137  Biso   1.000  H
  H298     1.0000 0.32173  0.13517  0.71197  Biso   1.000  H
  H299     1.0000 0.48010  0.01160  0.04530  Biso   1.000  H
  H300     1.0000 0.53150  0.51990  0.04530  Biso   1.000  H
  H301     1.0000 0.34493  0.14677  0.12137  Biso   1.000  H
  H302     1.0000 0.85323  0.19817  0.12137  Biso   1.000  H
  H303     1.0000 0.81343  0.67827  0.71197  Biso   1.000  H
  H304     1.0000 0.86483  0.18657  0.71197  Biso   1.000  H
  H305     1.0000 0.14677  0.34493  0.37863  Biso   1.000  H
  H306     1.0000 0.19817  0.85323  0.37863  Biso   1.000  H
  H307     1.0000 0.53150  0.01160  0.54530  Biso   1.000  H
  H308     1.0000 0.98840  0.51990  0.54530  Biso   1.000  H
  H309     1.0000 0.48010  0.46850  0.54530  Biso   1.000  H
  H310     1.0000 0.01160  0.53150  0.95470  Biso   1.000  H
  H311     1.0000 0.19817  0.34493  0.87863  Biso   1.000  H
  H312     1.0000 0.65507  0.85323  0.87863  Biso   1.000  H
  H313     1.0000 0.14677  0.80183  0.87863  Biso   1.000  H
  H314     1.0000 0.67827  0.86483  0.28803  Biso   1.000  H
  H315     1.0000 0.86483  0.67827  0.21197  Biso   1.000  H
  H316     1.0000 0.34493  0.19817  0.62137  Biso   1.000  H
  H317     1.0000 0.51990  0.98840  0.95470  Biso   1.000  H
  H318     1.0000 0.46850  0.48010  0.95470  Biso   1.000  H
  H319     1.0000 0.32173  0.18657  0.21197  Biso   1.000  H
  H320     1.0000 0.81343  0.13517  0.21197  Biso   1.000  H
  H321     1.0000 0.85323  0.65507  0.62137  Biso   1.000  H
  H322     1.0000 0.80183  0.14677  0.62137  Biso   1.000  H
  H323     1.0000 0.18657  0.32173  0.28803  Biso   1.000  H
  H324     1.0000 0.13517  0.81343  0.28803  Biso   1.000  H
  C541     1.0000 0.55530  0.07140  0.43804  Biso   1.000  C
  C542     1.0000 0.92860  0.48390  0.43804  Biso   1.000  C
  C543     1.0000 0.51610  0.44470  0.43804  Biso   1.000  C
  C544     1.0000 0.07140  0.55530  0.06196  Biso   1.000  C
  C545     1.0000 0.22197  0.40473  0.77137  Biso   1.000  C
  C546     1.0000 0.59527  0.81723  0.77137  Biso   1.000  C
  C547     1.0000 0.18277  0.77803  0.77137  Biso   1.000  C
  C548     1.0000 0.73807  0.88863  0.39529  Biso   1.000  C
  C549     1.0000 0.88863  0.73807  0.10471  Biso   1.000  C
  C550     1.0000 0.40473  0.22197  0.72863  Biso   1.000  C
  C551     1.0000 0.48390  0.92860  0.06196  Biso   1.000  C
  C552     1.0000 0.44470  0.51610  0.06196  Biso   1.000  C
  C553     1.0000 0.26193  0.15057  0.10471  Biso   1.000  C
  C554     1.0000 0.84943  0.11137  0.10471  Biso   1.000  C
  C555     1.0000 0.81723  0.59527  0.72863  Biso   1.000  C
  C556     1.0000 0.77803  0.18277  0.72863  Biso   1.000  C
  C557     1.0000 0.15057  0.26193  0.39529  Biso   1.000  C
  C558     1.0000 0.11137  0.84943  0.39529  Biso   1.000  C
  C559     1.0000 0.44470  0.92860  0.56196  Biso   1.000  C
  C560     1.0000 0.07140  0.51610  0.56196  Biso   1.000  C
  C561     1.0000 0.48390  0.55530  0.56196  Biso   1.000  C
  C562     1.0000 0.92860  0.44470  0.93804  Biso   1.000  C
  C563     1.0000 0.11137  0.26193  0.89529  Biso   1.000  C
  C564     1.0000 0.73807  0.84943  0.89529  Biso   1.000  C
  C565     1.0000 0.15057  0.88863  0.89529  Biso   1.000  C
  C566     1.0000 0.59527  0.77803  0.27137  Biso   1.000  C
  C567     1.0000 0.77803  0.59527  0.22863  Biso   1.000  C
  C568     1.0000 0.26193  0.11137  0.60471  Biso   1.000  C
  C569     1.0000 0.51610  0.07140  0.93804  Biso   1.000  C
  C570     1.0000 0.55530  0.48390  0.93804  Biso   1.000  C
  C571     1.0000 0.40473  0.18277  0.22863  Biso   1.000  C
  C572     1.0000 0.81723  0.22197  0.22863  Biso   1.000  C
  C573     1.0000 0.84943  0.73807  0.60471  Biso   1.000  C
  C574     1.0000 0.88863  0.15057  0.60471  Biso   1.000  C
  C575     1.0000 0.18277  0.40473  0.27137  Biso   1.000  C
  C576     1.0000 0.22197  0.81723  0.27137  Biso   1.000  C
  H325     1.0000 0.51250  0.02740  0.43100  Biso   1.000  H
  H326     1.0000 0.97260  0.48510  0.43100  Biso   1.000  H
  H327     1.0000 0.51490  0.48750  0.43100  Biso   1.000  H
  H328     1.0000 0.02740  0.51250  0.06900  Biso   1.000  H
  H329     1.0000 0.17917  0.36073  0.76433  Biso   1.000  H
  H330     1.0000 0.63927  0.81843  0.76433  Biso   1.000  H
  H331     1.0000 0.18157  0.82083  0.76433  Biso   1.000  H
  H332     1.0000 0.69407  0.84583  0.40233  Biso   1.000  H
  H333     1.0000 0.84583  0.69407  0.09767  Biso   1.000  H
  H334     1.0000 0.36073  0.17917  0.73567  Biso   1.000  H
  H335     1.0000 0.48510  0.97260  0.06900  Biso   1.000  H
  H336     1.0000 0.48750  0.51490  0.06900  Biso   1.000  H
  H337     1.0000 0.30593  0.15177  0.09767  Biso   1.000  H
  H338     1.0000 0.84823  0.15417  0.09767  Biso   1.000  H
  H339     1.0000 0.81843  0.63927  0.73567  Biso   1.000  H
  H340     1.0000 0.82083  0.18157  0.73567  Biso   1.000  H
  H341     1.0000 0.15177  0.30593  0.40233  Biso   1.000  H
  H342     1.0000 0.15417  0.84823  0.40233  Biso   1.000  H
  H343     1.0000 0.48750  0.97260  0.56900  Biso   1.000  H
  H344     1.0000 0.02740  0.51490  0.56900  Biso   1.000  H
  H345     1.0000 0.48510  0.51250  0.56900  Biso   1.000  H
  H346     1.0000 0.97260  0.48750  0.93100  Biso   1.000  H
  H347     1.0000 0.15417  0.30593  0.90233  Biso   1.000  H
  H348     1.0000 0.69407  0.84823  0.90233  Biso   1.000  H
  H349     1.0000 0.15177  0.84583  0.90233  Biso   1.000  H
  H350     1.0000 0.63927  0.82083  0.26433  Biso   1.000  H
  H351     1.0000 0.82083  0.63927  0.23567  Biso   1.000  H
  H352     1.0000 0.30593  0.15417  0.59767  Biso   1.000  H
  H353     1.0000 0.51490  0.02740  0.93100  Biso   1.000  H
  H354     1.0000 0.51250  0.48510  0.93100  Biso   1.000  H
  H355     1.0000 0.36073  0.18157  0.23567  Biso   1.000  H
  H356     1.0000 0.81843  0.17917  0.23567  Biso   1.000  H
  H357     1.0000 0.84823  0.69407  0.59767  Biso   1.000  H
  H358     1.0000 0.84583  0.15177  0.59767  Biso   1.000  H
  H359     1.0000 0.18157  0.36073  0.26433  Biso   1.000  H
  H360     1.0000 0.17917  0.81843  0.26433  Biso   1.000  H
  C577     1.0000 0.70020  0.21750  0.44427  Biso   1.000  C
  C578     1.0000 0.78250  0.48270  0.44427  Biso   1.000  C
  C579     1.0000 0.51730  0.29980  0.44427  Biso   1.000  C
  C580     1.0000 0.21750  0.70020  0.05573  Biso   1.000  C
  C581     1.0000 0.36687  0.55083  0.77760  Biso   1.000  C
  C582     1.0000 0.44917  0.81603  0.77760  Biso   1.000  C
  C583     1.0000 0.18397  0.63313  0.77760  Biso   1.000  C
  C584     1.0000 0.88417  0.03353  0.38906  Biso   1.000  C
  C585     1.0000 0.03353  0.88417  0.11094  Biso   1.000  C
  C586     1.0000 0.55083  0.36687  0.72240  Biso   1.000  C
  C587     1.0000 0.48270  0.78250  0.05573  Biso   1.000  C
  C588     1.0000 0.29980  0.51730  0.05573  Biso   1.000  C
  C589     1.0000 0.11583  0.14937  0.11094  Biso   1.000  C
  C590     1.0000 0.85063  0.96647  0.11094  Biso   1.000  C
  C591     1.0000 0.81603  0.44917  0.72240  Biso   1.000  C
  C592     1.0000 0.63313  0.18397  0.72240  Biso   1.000  C
  C593     1.0000 0.14937  0.11583  0.38906  Biso   1.000  C
  C594     1.0000 0.96647  0.85063  0.38906  Biso   1.000  C
  C595     1.0000 0.29980  0.78250  0.55573  Biso   1.000  C
  C596     1.0000 0.21750  0.51730  0.55573  Biso   1.000  C
  C597     1.0000 0.48270  0.70020  0.55573  Biso   1.000  C
  C598     1.0000 0.78250  0.29980  0.94427  Biso   1.000  C
  C599     1.0000 0.96647  0.11583  0.88906  Biso   1.000  C
  C600     1.0000 0.88417  0.85063  0.88906  Biso   1.000  C
  C601     1.0000 0.14937  0.03353  0.88906  Biso   1.000  C
  C602     1.0000 0.44917  0.63313  0.27760  Biso   1.000  C
  C603     1.0000 0.63313  0.44917  0.22240  Biso   1.000  C
  C604     1.0000 0.11583  0.96647  0.61094  Biso   1.000  C
  C605     1.0000 0.51730  0.21750  0.94427  Biso   1.000  C
  C606     1.0000 0.70020  0.48270  0.94427  Biso   1.000  C
  C607     1.0000 0.55083  0.18397  0.22240  Biso   1.000  C
  C608     1.0000 0.81603  0.36687  0.22240  Biso   1.000  C
  C609     1.0000 0.85063  0.88417  0.61094  Biso   1.000  C
  C610     1.0000 0.03353  0.14937  0.61094  Biso   1.000  C
  C611     1.0000 0.18397  0.55083  0.27760  Biso   1.000  C
  C612     1.0000 0.36687  0.81603  0.27760  Biso   1.000  C
  H361     1.0000 0.76020  0.27510  0.44160  Biso   1.000  H
  H362     1.0000 0.72490  0.48510  0.44160  Biso   1.000  H
  H363     1.0000 0.51490  0.23980  0.44160  Biso   1.000  H
  H364     1.0000 0.27510  0.76020  0.05840  Biso   1.000  H
  H365     1.0000 0.42687  0.60843  0.77493  Biso   1.000  H
  H366     1.0000 0.39157  0.81843  0.77493  Biso   1.000  H
  H367     1.0000 0.18157  0.57313  0.77493  Biso   1.000  H
  H368     1.0000 0.94177  0.09353  0.39173  Biso   1.000  H
  H369     1.0000 0.09353  0.94177  0.10827  Biso   1.000  H
  H370     1.0000 0.60843  0.42687  0.72507  Biso   1.000  H
  H371     1.0000 0.48510  0.72490  0.05840  Biso   1.000  H
  H372     1.0000 0.23980  0.51490  0.05840  Biso   1.000  H
  H373     1.0000 0.05823  0.15177  0.10827  Biso   1.000  H
  H374     1.0000 0.84823  0.90647  0.10827  Biso   1.000  H
  H375     1.0000 0.81843  0.39157  0.72507  Biso   1.000  H
  H376     1.0000 0.57313  0.18157  0.72507  Biso   1.000  H
  H377     1.0000 0.15177  0.05823  0.39173  Biso   1.000  H
  H378     1.0000 0.90647  0.84823  0.39173  Biso   1.000  H
  H379     1.0000 0.23980  0.72490  0.55840  Biso   1.000  H
  H380     1.0000 0.27510  0.51490  0.55840  Biso   1.000  H
  H381     1.0000 0.48510  0.76020  0.55840  Biso   1.000  H
  H382     1.0000 0.72490  0.23980  0.94160  Biso   1.000  H
  H383     1.0000 0.90647  0.05823  0.89173  Biso   1.000  H
  H384     1.0000 0.94177  0.84823  0.89173  Biso   1.000  H
  H385     1.0000 0.15177  0.09353  0.89173  Biso   1.000  H
  H386     1.0000 0.39157  0.57313  0.27493  Biso   1.000  H
  H387     1.0000 0.57313  0.39157  0.22507  Biso   1.000  H
  H388     1.0000 0.05823  0.90647  0.60827  Biso   1.000  H
  H389     1.0000 0.51490  0.27510  0.94160  Biso   1.000  H
  H390     1.0000 0.76020  0.48510  0.94160  Biso   1.000  H
  H391     1.0000 0.60843  0.18157  0.22507  Biso   1.000  H
  H392     1.0000 0.81843  0.42687  0.22507  Biso   1.000  H
  H393     1.0000 0.84823  0.94177  0.60827  Biso   1.000  H
  H394     1.0000 0.09353  0.15177  0.60827  Biso   1.000  H
  H395     1.0000 0.18157  0.60843  0.27493  Biso   1.000  H
  H396     1.0000 0.42687  0.81843  0.27493  Biso   1.000  H
  C613     1.0000 0.67760  0.20130  0.45862  Biso   1.000  C
  C614     1.0000 0.79870  0.47630  0.45862  Biso   1.000  C
  C615     1.0000 0.52370  0.32240  0.45862  Biso   1.000  C
  C616     1.0000 0.20130  0.67760  0.04138  Biso   1.000  C
  C617     1.0000 0.34427  0.53463  0.79195  Biso   1.000  C
  C618     1.0000 0.46537  0.80963  0.79195  Biso   1.000  C
  C619     1.0000 0.19037  0.65573  0.79195  Biso   1.000  C
  C620     1.0000 0.86797  0.01093  0.37471  Biso   1.000  C
  C621     1.0000 0.01093  0.86797  0.12529  Biso   1.000  C
  C622     1.0000 0.53463  0.34427  0.70805  Biso   1.000  C
  C623     1.0000 0.47630  0.79870  0.04138  Biso   1.000  C
  C624     1.0000 0.32240  0.52370  0.04138  Biso   1.000  C
  C625     1.0000 0.13203  0.14297  0.12529  Biso   1.000  C
  C626     1.0000 0.85703  0.98907  0.12529  Biso   1.000  C
  C627     1.0000 0.80963  0.46537  0.70805  Biso   1.000  C
  C628     1.0000 0.65573  0.19037  0.70805  Biso   1.000  C
  C629     1.0000 0.14297  0.13203  0.37471  Biso   1.000  C
  C630     1.0000 0.98907  0.85703  0.37471  Biso   1.000  C
  C631     1.0000 0.32240  0.79870  0.54138  Biso   1.000  C
  C632     1.0000 0.20130  0.52370  0.54138  Biso   1.000  C
  C633     1.0000 0.47630  0.67760  0.54138  Biso   1.000  C
  C634     1.0000 0.79870  0.32240  0.95862  Biso   1.000  C
  C635     1.0000 0.98907  0.13203  0.87471  Biso   1.000  C
  C636     1.0000 0.86797  0.85703  0.87471  Biso   1.000  C
  C637     1.0000 0.14297  0.01093  0.87471  Biso   1.000  C
  C638     1.0000 0.46537  0.65573  0.29195  Biso   1.000  C
  C639     1.0000 0.65573  0.46537  0.20805  Biso   1.000  C
  C640     1.0000 0.13203  0.98907  0.62529  Biso   1.000  C
  C641     1.0000 0.52370  0.20130  0.95862  Biso   1.000  C
  C642     1.0000 0.67760  0.47630  0.95862  Biso   1.000  C
  C643     1.0000 0.53463  0.19037  0.20805  Biso   1.000  C
  C644     1.0000 0.80963  0.34427  0.20805  Biso   1.000  C
  C645     1.0000 0.85703  0.86797  0.62529  Biso   1.000  C
  C646     1.0000 0.01093  0.14297  0.62529  Biso   1.000  C
  C647     1.0000 0.19037  0.53463  0.29195  Biso   1.000  C
  C648     1.0000 0.34427  0.80963  0.29195  Biso   1.000  C
  H397     1.0000 0.72010  0.24810  0.46530  Biso   1.000  H
  H398     1.0000 0.75190  0.47200  0.46530  Biso   1.000  H
  H399     1.0000 0.52800  0.27990  0.46530  Biso   1.000  H
  H400     1.0000 0.24810  0.72010  0.03470  Biso   1.000  H
  H401     1.0000 0.38677  0.58143  0.79863  Biso   1.000  H
  H402     1.0000 0.41857  0.80533  0.79863  Biso   1.000  H
  H403     1.0000 0.19467  0.61323  0.79863  Biso   1.000  H
  H404     1.0000 0.91477  0.05343  0.36803  Biso   1.000  H
  H405     1.0000 0.05343  0.91477  0.13197  Biso   1.000  H
  H406     1.0000 0.58143  0.38677  0.70137  Biso   1.000  H
  H407     1.0000 0.47200  0.75190  0.03470  Biso   1.000  H
  H408     1.0000 0.27990  0.52800  0.03470  Biso   1.000  H
  H409     1.0000 0.08523  0.13867  0.13197  Biso   1.000  H
  H410     1.0000 0.86133  0.94657  0.13197  Biso   1.000  H
  H411     1.0000 0.80533  0.41857  0.70137  Biso   1.000  H
  H412     1.0000 0.61323  0.19467  0.70137  Biso   1.000  H
  H413     1.0000 0.13867  0.08523  0.36803  Biso   1.000  H
  H414     1.0000 0.94657  0.86133  0.36803  Biso   1.000  H
  H415     1.0000 0.27990  0.75190  0.53470  Biso   1.000  H
  H416     1.0000 0.24810  0.52800  0.53470  Biso   1.000  H
  H417     1.0000 0.47200  0.72010  0.53470  Biso   1.000  H
  H418     1.0000 0.75190  0.27990  0.96530  Biso   1.000  H
  H419     1.0000 0.94657  0.08523  0.86803  Biso   1.000  H
  H420     1.0000 0.91477  0.86133  0.86803  Biso   1.000  H
  H421     1.0000 0.13867  0.05343  0.86803  Biso   1.000  H
  H422     1.0000 0.41857  0.61323  0.29863  Biso   1.000  H
  H423     1.0000 0.61323  0.41857  0.20137  Biso   1.000  H
  H424     1.0000 0.08523  0.94657  0.63197  Biso   1.000  H
  H425     1.0000 0.52800  0.24810  0.96530  Biso   1.000  H
  H426     1.0000 0.72010  0.47200  0.96530  Biso   1.000  H
  H427     1.0000 0.58143  0.19467  0.20137  Biso   1.000  H
  H428     1.0000 0.80533  0.38677  0.20137  Biso   1.000  H
  H429     1.0000 0.86133  0.91477  0.63197  Biso   1.000  H
  H430     1.0000 0.05343  0.13867  0.63197  Biso   1.000  H
  H431     1.0000 0.19467  0.58143  0.29863  Biso   1.000  H
  H432     1.0000 0.38677  0.80533  0.29863  Biso   1.000  H
  N1       1.0000 0.85520  0.91920  0.53071  Biso   1.000  N
  N2       1.0000 0.08080  0.93600  0.53071  Biso   1.000  N
  N3       1.0000 0.06400  0.14480  0.53071  Biso   1.000  N
  N4       1.0000 0.91920  0.85520  0.96929  Biso   1.000  N
  N5       1.0000 0.52187  0.25253  0.86404  Biso   1.000  N
  N6       1.0000 0.74747  0.26933  0.86404  Biso   1.000  N
  N7       1.0000 0.73067  0.47813  0.86404  Biso   1.000  N
  N8       1.0000 0.58587  0.18853  0.30262  Biso   1.000  N
  N9       1.0000 0.18853  0.58587  0.19738  Biso   1.000  N
  N10      1.0000 0.25253  0.52187  0.63596  Biso   1.000  N
  N11      1.0000 0.93600  0.08080  0.96929  Biso   1.000  N
  N12      1.0000 0.14480  0.06400  0.96929  Biso   1.000  N
  N13      1.0000 0.41413  0.60267  0.19738  Biso   1.000  N
  N14      1.0000 0.39733  0.81147  0.19738  Biso   1.000  N
  N15      1.0000 0.26933  0.74747  0.63596  Biso   1.000  N
  N16      1.0000 0.47813  0.73067  0.63596  Biso   1.000  N
  N17      1.0000 0.60267  0.41413  0.30262  Biso   1.000  N
  N18      1.0000 0.81147  0.39733  0.30262  Biso   1.000  N
  N19      1.0000 0.14480  0.08080  0.46929  Biso   1.000  N
  N20      1.0000 0.91920  0.06400  0.46929  Biso   1.000  N
  N21      1.0000 0.93600  0.85520  0.46929  Biso   1.000  N
  N22      1.0000 0.08080  0.14480  0.03071  Biso   1.000  N
  N23      1.0000 0.81147  0.41413  0.80262  Biso   1.000  N
  N24      1.0000 0.58587  0.39733  0.80262  Biso   1.000  N
  N25      1.0000 0.60267  0.18853  0.80262  Biso   1.000  N
  N26      1.0000 0.74747  0.47813  0.36404  Biso   1.000  N
  N27      1.0000 0.47813  0.74747  0.13596  Biso   1.000  N
  N28      1.0000 0.41413  0.81147  0.69738  Biso   1.000  N
  N29      1.0000 0.06400  0.91920  0.03071  Biso   1.000  N
  N30      1.0000 0.85520  0.93600  0.03071  Biso   1.000  N
  N31      1.0000 0.25253  0.73067  0.13596  Biso   1.000  N
  N32      1.0000 0.26933  0.52187  0.13596  Biso   1.000  N
  N33      1.0000 0.39733  0.58587  0.69738  Biso   1.000  N
  N34      1.0000 0.18853  0.60267  0.69738  Biso   1.000  N
  N35      1.0000 0.73067  0.25253  0.36404  Biso   1.000  N
  N36      1.0000 0.52187  0.26933  0.36404  Biso   1.000  N
  N37      1.0000 0.73910  0.93780  0.43443  Biso   1.000  N
  N38      1.0000 0.06220  0.80130  0.43443  Biso   1.000  N
  N39      1.0000 0.19870  0.26090  0.43443  Biso   1.000  N
  N40      1.0000 0.93780  0.73910  0.06557  Biso   1.000  N
  N41      1.0000 0.40577  0.27113  0.76776  Biso   1.000  N
  N42      1.0000 0.72887  0.13463  0.76776  Biso   1.000  N
  N43      1.0000 0.86537  0.59423  0.76776  Biso   1.000  N
  N44      1.0000 0.60447  0.07243  0.39890  Biso   1.000  N
  N45      1.0000 0.07243  0.60447  0.10110  Biso   1.000  N
  N46      1.0000 0.27113  0.40577  0.73224  Biso   1.000  N
  N47      1.0000 0.80130  0.06220  0.06557  Biso   1.000  N
  N48      1.0000 0.26090  0.19870  0.06557  Biso   1.000  N
  N49      1.0000 0.39553  0.46797  0.10110  Biso   1.000  N
  N50      1.0000 0.53203  0.92757  0.10110  Biso   1.000  N
  N51      1.0000 0.13463  0.72887  0.73224  Biso   1.000  N
  N52      1.0000 0.59423  0.86537  0.73224  Biso   1.000  N
  N53      1.0000 0.46797  0.39553  0.39890  Biso   1.000  N
  N54      1.0000 0.92757  0.53203  0.39890  Biso   1.000  N
  N55      1.0000 0.26090  0.06220  0.56557  Biso   1.000  N
  N56      1.0000 0.93780  0.19870  0.56557  Biso   1.000  N
  N57      1.0000 0.80130  0.73910  0.56557  Biso   1.000  N
  N58      1.0000 0.06220  0.26090  0.93443  Biso   1.000  N
  N59      1.0000 0.92757  0.39553  0.89890  Biso   1.000  N
  N60      1.0000 0.60447  0.53203  0.89890  Biso   1.000  N
  N61      1.0000 0.46797  0.07243  0.89890  Biso   1.000  N
  N62      1.0000 0.72887  0.59423  0.26776  Biso   1.000  N
  N63      1.0000 0.59423  0.72887  0.23224  Biso   1.000  N
  N64      1.0000 0.39553  0.92757  0.60110  Biso   1.000  N
  N65      1.0000 0.19870  0.93780  0.93443  Biso   1.000  N
  N66      1.0000 0.73910  0.80130  0.93443  Biso   1.000  N
  N67      1.0000 0.27113  0.86537  0.23224  Biso   1.000  N
  N68      1.0000 0.13463  0.40577  0.23224  Biso   1.000  N
  N69      1.0000 0.53203  0.60447  0.60110  Biso   1.000  N
  N70      1.0000 0.07243  0.46797  0.60110  Biso   1.000  N
  N71      1.0000 0.86537  0.27113  0.26776  Biso   1.000  N
  N72      1.0000 0.40577  0.13463  0.26776  Biso   1.000  N
  N73      1.0000 0.64050  0.15480  0.43388  Biso   1.000  N
  N74      1.0000 0.84520  0.48570  0.43388  Biso   1.000  N
  N75      1.0000 0.51430  0.35950  0.43388  Biso   1.000  N
  N76      1.0000 0.15480  0.64050  0.06612  Biso   1.000  N
  N77      1.0000 0.30717  0.48813  0.76721  Biso   1.000  N
  N78      1.0000 0.51187  0.81903  0.76721  Biso   1.000  N
  N79      1.0000 0.18097  0.69283  0.76721  Biso   1.000  N
  N80      1.0000 0.82147  0.97383  0.39945  Biso   1.000  N
  N81      1.0000 0.97383  0.82147  0.10055  Biso   1.000  N
  N82      1.0000 0.48813  0.30717  0.73279  Biso   1.000  N
  N83      1.0000 0.48570  0.84520  0.06612  Biso   1.000  N
  N84      1.0000 0.35950  0.51430  0.06612  Biso   1.000  N
  N85      1.0000 0.17853  0.15237  0.10055  Biso   1.000  N
  N86      1.0000 0.84763  0.02617  0.10055  Biso   1.000  N
  N87      1.0000 0.81903  0.51187  0.73279  Biso   1.000  N
  N88      1.0000 0.69283  0.18097  0.73279  Biso   1.000  N
  N89      1.0000 0.15237  0.17853  0.39945  Biso   1.000  N
  N90      1.0000 0.02617  0.84763  0.39945  Biso   1.000  N
  N91      1.0000 0.35950  0.84520  0.56612  Biso   1.000  N
  N92      1.0000 0.15480  0.51430  0.56612  Biso   1.000  N
  N93      1.0000 0.48570  0.64050  0.56612  Biso   1.000  N
  N94      1.0000 0.84520  0.35950  0.93388  Biso   1.000  N
  N95      1.0000 0.02617  0.17853  0.89945  Biso   1.000  N
  N96      1.0000 0.82147  0.84763  0.89945  Biso   1.000  N
  N97      1.0000 0.15237  0.97383  0.89945  Biso   1.000  N
  N98      1.0000 0.51187  0.69283  0.26721  Biso   1.000  N
  N99      1.0000 0.69283  0.51187  0.23279  Biso   1.000  N
  N100     1.0000 0.17853  0.02617  0.60055  Biso   1.000  N
  N101     1.0000 0.51430  0.15480  0.93388  Biso   1.000  N
  N102     1.0000 0.64050  0.48570  0.93388  Biso   1.000  N
  N103     1.0000 0.48813  0.18097  0.23279  Biso   1.000  N
  N104     1.0000 0.81903  0.30717  0.23279  Biso   1.000  N
  N105     1.0000 0.84763  0.82147  0.60055  Biso   1.000  N
  N106     1.0000 0.97383  0.15237  0.60055  Biso   1.000  N
  N107     1.0000 0.18097  0.48813  0.26721  Biso   1.000  N
  N108     1.0000 0.30717  0.81903  0.26721  Biso   1.000  N
  O1       1.0000 0.78000  0.33330  0.58330  Biso   1.000  O
  O2       1.0000 0.66670  0.44670  0.58330  Biso   1.000  O
  O3       1.0000 0.55330  0.22000  0.58330  Biso   1.000  O
  O4       1.0000 0.33330  0.78000  0.91670  Biso   1.000  O
  O5       1.0000 0.44667  0.66663  0.91663  Biso   1.000  O
  O6       1.0000 0.21997  0.55333  0.91663  Biso   1.000  O
  O7       1.0000 0.99997  0.11333  0.25003  Biso   1.000  O
  O8       1.0000 0.11333  0.99997  0.24997  Biso   1.000  O
  O9       1.0000 0.88663  0.88667  0.24997  Biso   1.000  O
  O10      1.0000 0.22000  0.66670  0.41670  Biso   1.000  O
  O11      1.0000 0.33330  0.55330  0.41670  Biso   1.000  O
  O12      1.0000 0.44670  0.78000  0.41670  Biso   1.000  O
  O13      1.0000 0.66670  0.22000  0.08330  Biso   1.000  O
  O14      1.0000 0.88667  0.00003  0.75003  Biso   1.000  O
  O15      1.0000 0.99997  0.88663  0.75003  Biso   1.000  O
  O16      1.0000 0.11337  0.11333  0.75003  Biso   1.000  O
  O17      1.0000 0.55333  0.33337  0.08337  Biso   1.000  O
  O18      1.0000 0.78000  0.44670  0.08330  Biso   1.000  O
  O19      1.0000 0.56440  0.86340  0.49950  Biso   1.000  O
  O20      1.0000 0.13660  0.70100  0.49950  Biso   1.000  O
  O21      1.0000 0.29900  0.43560  0.49950  Biso   1.000  O
  O22      1.0000 0.86340  0.56440  0.00050  Biso   1.000  O
  O23      1.0000 0.23107  0.19673  0.83283  Biso   1.000  O
  O24      1.0000 0.80327  0.03433  0.83283  Biso   1.000  O
  O25      1.0000 0.96567  0.76893  0.83283  Biso   1.000  O
  O26      1.0000 0.53007  0.89773  0.33383  Biso   1.000  O
  O27      1.0000 0.89773  0.53007  0.16617  Biso   1.000  O
  O28      1.0000 0.19673  0.23107  0.66717  Biso   1.000  O
  O29      1.0000 0.70100  0.13660  0.00050  Biso   1.000  O
  O30      1.0000 0.43560  0.29900  0.00050  Biso   1.000  O
  O31      1.0000 0.46993  0.36767  0.16617  Biso   1.000  O
  O32      1.0000 0.63233  0.10227  0.16617  Biso   1.000  O
  O33      1.0000 0.03433  0.80327  0.66717  Biso   1.000  O
  O34      1.0000 0.76893  0.96567  0.66717  Biso   1.000  O
  O35      1.0000 0.36767  0.46993  0.33383  Biso   1.000  O
  O36      1.0000 0.10227  0.63233  0.33383  Biso   1.000  O
  O37      1.0000 0.43560  0.13660  0.50050  Biso   1.000  O
  O38      1.0000 0.86340  0.29900  0.50050  Biso   1.000  O
  O39      1.0000 0.70100  0.56440  0.50050  Biso   1.000  O
  O40      1.0000 0.13660  0.43560  0.99950  Biso   1.000  O
  O41      1.0000 0.10227  0.46993  0.83383  Biso   1.000  O
  O42      1.0000 0.53007  0.63233  0.83383  Biso   1.000  O
  O43      1.0000 0.36767  0.89773  0.83383  Biso   1.000  O
  O44      1.0000 0.80327  0.76893  0.33283  Biso   1.000  O
  O45      1.0000 0.76893  0.80327  0.16717  Biso   1.000  O
  O46      1.0000 0.46993  0.10227  0.66617  Biso   1.000  O
  O47      1.0000 0.29900  0.86340  0.99950  Biso   1.000  O
  O48      1.0000 0.56440  0.70100  0.99950  Biso   1.000  O
  O49      1.0000 0.19673  0.96567  0.16717  Biso   1.000  O
  O50      1.0000 0.03433  0.23107  0.16717  Biso   1.000  O
  O51      1.0000 0.63233  0.53007  0.66617  Biso   1.000  O
  O52      1.0000 0.89773  0.36767  0.66617  Biso   1.000  O
  O53      1.0000 0.96567  0.19673  0.33283  Biso   1.000  O
  O54      1.0000 0.23107  0.03433  0.33283  Biso   1.000  O
  O55      1.0000 0.57660  0.72470  0.49572  Biso   1.000  O
  O56      1.0000 0.27530  0.85190  0.49572  Biso   1.000  O
  O57      1.0000 0.14810  0.42340  0.49572  Biso   1.000  O
  O58      1.0000 0.72470  0.57660  0.00428  Biso   1.000  O
  O59      1.0000 0.24327  0.05803  0.82905  Biso   1.000  O
  O60      1.0000 0.94197  0.18523  0.82905  Biso   1.000  O
  O61      1.0000 0.81477  0.75673  0.82905  Biso   1.000  O
  O62      1.0000 0.39137  0.90993  0.33761  Biso   1.000  O
  O63      1.0000 0.90993  0.39137  0.16239  Biso   1.000  O
  O64      1.0000 0.05803  0.24327  0.67095  Biso   1.000  O
  O65      1.0000 0.85190  0.27530  0.00428  Biso   1.000  O
  O66      1.0000 0.42340  0.14810  0.00428  Biso   1.000  O
  O67      1.0000 0.60863  0.51857  0.16239  Biso   1.000  O
  O68      1.0000 0.48143  0.09007  0.16239  Biso   1.000  O
  O69      1.0000 0.18523  0.94197  0.67095  Biso   1.000  O
  O70      1.0000 0.75673  0.81477  0.67095  Biso   1.000  O
  O71      1.0000 0.51857  0.60863  0.33761  Biso   1.000  O
  O72      1.0000 0.09007  0.48143  0.33761  Biso   1.000  O
  O73      1.0000 0.42340  0.27530  0.50428  Biso   1.000  O
  O74      1.0000 0.72470  0.14810  0.50428  Biso   1.000  O
  O75      1.0000 0.85190  0.57660  0.50428  Biso   1.000  O
  O76      1.0000 0.27530  0.42340  0.99572  Biso   1.000  O
  O77      1.0000 0.09007  0.60863  0.83761  Biso   1.000  O
  O78      1.0000 0.39137  0.48143  0.83761  Biso   1.000  O
  O79      1.0000 0.51857  0.90993  0.83761  Biso   1.000  O
  O80      1.0000 0.94197  0.75673  0.32905  Biso   1.000  O
  O81      1.0000 0.75673  0.94197  0.17095  Biso   1.000  O
  O82      1.0000 0.60863  0.09007  0.66239  Biso   1.000  O
  O83      1.0000 0.14810  0.72470  0.99572  Biso   1.000  O
  O84      1.0000 0.57660  0.85190  0.99572  Biso   1.000  O
  O85      1.0000 0.05803  0.81477  0.17095  Biso   1.000  O
  O86      1.0000 0.18523  0.24327  0.17095  Biso   1.000  O
  O87      1.0000 0.48143  0.39137  0.66239  Biso   1.000  O
  O88      1.0000 0.90993  0.51857  0.66239  Biso   1.000  O
  O89      1.0000 0.81477  0.05803  0.32905  Biso   1.000  O
  O90      1.0000 0.24327  0.18523  0.32905  Biso   1.000  O
  O91      1.0000 0.47640  0.77740  0.47251  Biso   1.000  O
  O92      1.0000 0.22260  0.69900  0.47251  Biso   1.000  O
  O93      1.0000 0.30100  0.52360  0.47251  Biso   1.000  O
  O94      1.0000 0.77740  0.47640  0.02749  Biso   1.000  O
  O95      1.0000 0.14307  0.11073  0.80584  Biso   1.000  O
  O96      1.0000 0.88927  0.03233  0.80584  Biso   1.000  O
  O97      1.0000 0.96767  0.85693  0.80584  Biso   1.000  O
  O98      1.0000 0.44407  0.80973  0.36082  Biso   1.000  O
  O99      1.0000 0.80973  0.44407  0.13918  Biso   1.000  O
  O100     1.0000 0.11073  0.14307  0.69416  Biso   1.000  O
  O101     1.0000 0.69900  0.22260  0.02749  Biso   1.000  O
  O102     1.0000 0.52360  0.30100  0.02749  Biso   1.000  O
  O103     1.0000 0.55593  0.36567  0.13918  Biso   1.000  O
  O104     1.0000 0.63433  0.19027  0.13918  Biso   1.000  O
  O105     1.0000 0.03233  0.88927  0.69416  Biso   1.000  O
  O106     1.0000 0.85693  0.96767  0.69416  Biso   1.000  O
  O107     1.0000 0.36567  0.55593  0.36082  Biso   1.000  O
  O108     1.0000 0.19027  0.63433  0.36082  Biso   1.000  O
  O109     1.0000 0.52360  0.22260  0.52749  Biso   1.000  O
  O110     1.0000 0.77740  0.30100  0.52749  Biso   1.000  O
  O111     1.0000 0.69900  0.47640  0.52749  Biso   1.000  O
  O112     1.0000 0.22260  0.52360  0.97251  Biso   1.000  O
  O113     1.0000 0.19027  0.55593  0.86082  Biso   1.000  O
  O114     1.0000 0.44407  0.63433  0.86082  Biso   1.000  O
  O115     1.0000 0.36567  0.80973  0.86082  Biso   1.000  O
  O116     1.0000 0.88927  0.85693  0.30584  Biso   1.000  O
  O117     1.0000 0.85693  0.88927  0.19416  Biso   1.000  O
  O118     1.0000 0.55593  0.19027  0.63918  Biso   1.000  O
  O119     1.0000 0.30100  0.77740  0.97251  Biso   1.000  O
  O120     1.0000 0.47640  0.69900  0.97251  Biso   1.000  O
  O121     1.0000 0.11073  0.96767  0.19416  Biso   1.000  O
  O122     1.0000 0.03233  0.14307  0.19416  Biso   1.000  O
  O123     1.0000 0.63433  0.44407  0.63918  Biso   1.000  O
  O124     1.0000 0.80973  0.36567  0.63918  Biso   1.000  O
  O125     1.0000 0.96767  0.11073  0.30584  Biso   1.000  O
  O126     1.0000 0.14307  0.03233  0.30584  Biso   1.000  O
  O127     1.0000 0.34180  0.85560  0.46758  Biso   1.000  O
  O128     1.0000 0.14440  0.48620  0.46758  Biso   1.000  O
  O129     1.0000 0.51380  0.65820  0.46758  Biso   1.000  O
  O130     1.0000 0.85560  0.34180  0.03242  Biso   1.000  O
  O131     1.0000 0.00847  0.18893  0.80091  Biso   1.000  O
  O132     1.0000 0.81107  0.81953  0.80091  Biso   1.000  O
  O133     1.0000 0.18047  0.99153  0.80091  Biso   1.000  O
  O134     1.0000 0.52227  0.67513  0.36575  Biso   1.000  O
  O135     1.0000 0.67513  0.52227  0.13425  Biso   1.000  O
  O136     1.0000 0.18893  0.00847  0.69909  Biso   1.000  O
  O137     1.0000 0.48620  0.14440  0.03242  Biso   1.000  O
  O138     1.0000 0.65820  0.51380  0.03242  Biso   1.000  O
  O139     1.0000 0.47773  0.15287  0.13425  Biso   1.000  O
  O140     1.0000 0.84713  0.32487  0.13425  Biso   1.000  O
  O141     1.0000 0.81953  0.81107  0.69909  Biso   1.000  O
  O142     1.0000 0.99153  0.18047  0.69909  Biso   1.000  O
  O143     1.0000 0.15287  0.47773  0.36575  Biso   1.000  O
  O144     1.0000 0.32487  0.84713  0.36575  Biso   1.000  O
  O145     1.0000 0.65820  0.14440  0.53242  Biso   1.000  O
  O146     1.0000 0.85560  0.51380  0.53242  Biso   1.000  O
  O147     1.0000 0.48620  0.34180  0.53242  Biso   1.000  O
  O148     1.0000 0.14440  0.65820  0.96758  Biso   1.000  O
  O149     1.0000 0.32487  0.47773  0.86575  Biso   1.000  O
  O150     1.0000 0.52227  0.84713  0.86575  Biso   1.000  O
  O151     1.0000 0.15287  0.67513  0.86575  Biso   1.000  O
  O152     1.0000 0.81107  0.99153  0.30091  Biso   1.000  O
  O153     1.0000 0.99153  0.81107  0.19909  Biso   1.000  O
  O154     1.0000 0.47773  0.32487  0.63425  Biso   1.000  O
  O155     1.0000 0.51380  0.85560  0.96758  Biso   1.000  O
  O156     1.0000 0.34180  0.48620  0.96758  Biso   1.000  O
  O157     1.0000 0.18893  0.18047  0.19909  Biso   1.000  O
  O158     1.0000 0.81953  0.00847  0.19909  Biso   1.000  O
  O159     1.0000 0.84713  0.52227  0.63425  Biso   1.000  O
  O160     1.0000 0.67513  0.15287  0.63425  Biso   1.000  O
  O161     1.0000 0.18047  0.18893  0.30091  Biso   1.000  O
  O162     1.0000 0.00847  0.81953  0.30091  Biso   1.000  O
  O163     1.0000 0.51660  0.00440  0.48274  Biso   1.000  O
  O164     1.0000 0.99560  0.51220  0.48274  Biso   1.000  O
  O165     1.0000 0.48780  0.48340  0.48274  Biso   1.000  O
  O166     1.0000 0.00440  0.51660  0.01726  Biso   1.000  O
  O167     1.0000 0.18327  0.33773  0.81607  Biso   1.000  O
  O168     1.0000 0.66227  0.84553  0.81607  Biso   1.000  O
  O169     1.0000 0.15447  0.81673  0.81607  Biso   1.000  O
  O170     1.0000 0.67107  0.84993  0.35059  Biso   1.000  O
  O171     1.0000 0.84993  0.67107  0.14941  Biso   1.000  O
  O172     1.0000 0.33773  0.18327  0.68393  Biso   1.000  O
  O173     1.0000 0.51220  0.99560  0.01726  Biso   1.000  O
  O174     1.0000 0.48340  0.48780  0.01726  Biso   1.000  O
  O175     1.0000 0.32893  0.17887  0.14941  Biso   1.000  O
  O176     1.0000 0.82113  0.15007  0.14941  Biso   1.000  O
  O177     1.0000 0.84553  0.66227  0.68393  Biso   1.000  O
  O178     1.0000 0.81673  0.15447  0.68393  Biso   1.000  O
  O179     1.0000 0.17887  0.32893  0.35059  Biso   1.000  O
  O180     1.0000 0.15007  0.82113  0.35059  Biso   1.000  O
  O181     1.0000 0.48340  0.99560  0.51726  Biso   1.000  O
  O182     1.0000 0.00440  0.48780  0.51726  Biso   1.000  O
  O183     1.0000 0.51220  0.51660  0.51726  Biso   1.000  O
  O184     1.0000 0.99560  0.48340  0.98274  Biso   1.000  O
  O185     1.0000 0.15007  0.32893  0.85059  Biso   1.000  O
  O186     1.0000 0.67107  0.82113  0.85059  Biso   1.000  O
  O187     1.0000 0.17887  0.84993  0.85059  Biso   1.000  O
  O188     1.0000 0.66227  0.81673  0.31607  Biso   1.000  O
  O189     1.0000 0.81673  0.66227  0.18393  Biso   1.000  O
  O190     1.0000 0.32893  0.15007  0.64941  Biso   1.000  O
  O191     1.0000 0.48780  0.00440  0.98274  Biso   1.000  O
  O192     1.0000 0.51660  0.51220  0.98274  Biso   1.000  O
  O193     1.0000 0.33773  0.15447  0.18393  Biso   1.000  O
  O194     1.0000 0.84553  0.18327  0.18393  Biso   1.000  O
  O195     1.0000 0.82113  0.67107  0.64941  Biso   1.000  O
  O196     1.0000 0.84993  0.17887  0.64941  Biso   1.000  O
  O197     1.0000 0.15447  0.33773  0.31607  Biso   1.000  O
  O198     1.0000 0.18327  0.84553  0.31607  Biso   1.000  O
  O199     1.0000 0.39820  0.83010  0.51366  Biso   1.000  O
  O200     1.0000 0.16990  0.56810  0.51366  Biso   1.000  O
  O201     1.0000 0.43190  0.60180  0.51366  Biso   1.000  O
  O202     1.0000 0.83010  0.39820  0.98634  Biso   1.000  O
  O203     1.0000 0.06487  0.16343  0.84699  Biso   1.000  O
  O204     1.0000 0.83657  0.90143  0.84699  Biso   1.000  O
  O205     1.0000 0.09857  0.93513  0.84699  Biso   1.000  O
  O206     1.0000 0.49677  0.73153  0.31967  Biso   1.000  O
  O207     1.0000 0.73153  0.49677  0.18033  Biso   1.000  O
  O208     1.0000 0.16343  0.06487  0.65301  Biso   1.000  O
  O209     1.0000 0.56810  0.16990  0.98634  Biso   1.000  O
  O210     1.0000 0.60180  0.43190  0.98634  Biso   1.000  O
  O211     1.0000 0.50323  0.23477  0.18033  Biso   1.000  O
  O212     1.0000 0.76523  0.26847  0.18033  Biso   1.000  O
  O213     1.0000 0.90143  0.83657  0.65301  Biso   1.000  O
  O214     1.0000 0.93513  0.09857  0.65301  Biso   1.000  O
  O215     1.0000 0.23477  0.50323  0.31967  Biso   1.000  O
  O216     1.0000 0.26847  0.76523  0.31967  Biso   1.000  O
  O217     1.0000 0.60180  0.16990  0.48634  Biso   1.000  O
  O218     1.0000 0.83010  0.43190  0.48634  Biso   1.000  O
  O219     1.0000 0.56810  0.39820  0.48634  Biso   1.000  O
  O220     1.0000 0.16990  0.60180  0.01366  Biso   1.000  O
  O221     1.0000 0.26847  0.50323  0.81967  Biso   1.000  O
  O222     1.0000 0.49677  0.76523  0.81967  Biso   1.000  O
  O223     1.0000 0.23477  0.73153  0.81967  Biso   1.000  O
  O224     1.0000 0.83657  0.93513  0.34699  Biso   1.000  O
  O225     1.0000 0.93513  0.83657  0.15301  Biso   1.000  O
  O226     1.0000 0.50323  0.26847  0.68033  Biso   1.000  O
  O227     1.0000 0.43190  0.83010  0.01366  Biso   1.000  O
  O228     1.0000 0.39820  0.56810  0.01366  Biso   1.000  O
  O229     1.0000 0.16343  0.09857  0.15301  Biso   1.000  O
  O230     1.0000 0.90143  0.06487  0.15301  Biso   1.000  O
  O231     1.0000 0.76523  0.49677  0.68033  Biso   1.000  O
  O232     1.0000 0.73153  0.23477  0.68033  Biso   1.000  O
  O233     1.0000 0.09857  0.16343  0.34699  Biso   1.000  O
  O234     1.0000 0.06487  0.90143  0.34699  Biso   1.000  O
  O235     1.0000 0.33330  0.66670  0.49510  Biso   1.000  O
  O236     1.0000 0.66670  0.33330  0.00490  Biso   1.000  O
  O237     1.0000 0.99997  0.00003  0.82843  Biso   1.000  O
  O238     1.0000 0.33337  0.66663  0.33823  Biso   1.000  O
  O239     1.0000 0.66663  0.33337  0.16177  Biso   1.000  O
  O240     1.0000 0.00003  0.99997  0.67157  Biso   1.000  O
  O241     1.0000 0.66670  0.33330  0.50490  Biso   1.000  O
  O242     1.0000 0.33330  0.66670  0.99510  Biso   1.000  O
  O243     1.0000 0.33337  0.66663  0.83823  Biso   1.000  O
  O244     1.0000 0.99997  0.00003  0.32843  Biso   1.000  O
  O245     1.0000 0.00003  0.99997  0.17157  Biso   1.000  O
  O246     1.0000 0.66663  0.33337  0.66177  Biso   1.000  O
  Y1       1.0000 0.41510  0.84034  0.48888  Biso   1.000  Y
  Y2       1.0000 0.15966  0.57476  0.48888  Biso   1.000  Y
  Y3       1.0000 0.42524  0.58490  0.48888  Biso   1.000  Y
  Y4       1.0000 0.84034  0.41510  0.01112  Biso   1.000  Y
  Y5       1.0000 0.08177  0.17367  0.82221  Biso   1.000  Y
  Y6       1.0000 0.82633  0.90809  0.82221  Biso   1.000  Y
  Y7       1.0000 0.09191  0.91823  0.82221  Biso   1.000  Y
  Y8       1.0000 0.50701  0.74843  0.34445  Biso   1.000  Y
  Y9       1.0000 0.74843  0.50701  0.15555  Biso   1.000  Y
  Y10      1.0000 0.17367  0.08177  0.67779  Biso   1.000  Y
  Y11      1.0000 0.57476  0.15966  0.01112  Biso   1.000  Y
  Y12      1.0000 0.58490  0.42524  0.01112  Biso   1.000  Y
  Y13      1.0000 0.49299  0.24143  0.15555  Biso   1.000  Y
  Y14      1.0000 0.75857  0.25157  0.15555  Biso   1.000  Y
  Y15      1.0000 0.90809  0.82633  0.67779  Biso   1.000  Y
  Y16      1.0000 0.91823  0.09191  0.67779  Biso   1.000  Y
  Y17      1.0000 0.24143  0.49299  0.34445  Biso   1.000  Y
  Y18      1.0000 0.25157  0.75857  0.34445  Biso   1.000  Y
  Y19      1.0000 0.58490  0.15966  0.51112  Biso   1.000  Y
  Y20      1.0000 0.84034  0.42524  0.51112  Biso   1.000  Y
  Y21      1.0000 0.57476  0.41510  0.51112  Biso   1.000  Y
  Y22      1.0000 0.15966  0.58490  0.98888  Biso   1.000  Y
  Y23      1.0000 0.25157  0.49299  0.84445  Biso   1.000  Y
  Y24      1.0000 0.50701  0.75857  0.84445  Biso   1.000  Y
  Y25      1.0000 0.24143  0.74843  0.84445  Biso   1.000  Y
  Y26      1.0000 0.82633  0.91823  0.32221  Biso   1.000  Y
  Y27      1.0000 0.91823  0.82633  0.17779  Biso   1.000  Y
  Y28      1.0000 0.49299  0.25157  0.65555  Biso   1.000  Y
  Y29      1.0000 0.42524  0.84034  0.98888  Biso   1.000  Y
  Y30      1.0000 0.41510  0.57476  0.98888  Biso   1.000  Y
  Y31      1.0000 0.17367  0.09191  0.17779  Biso   1.000  Y
  Y32      1.0000 0.90809  0.08177  0.17779  Biso   1.000  Y
  Y33      1.0000 0.75857  0.50701  0.65555  Biso   1.000  Y
  Y34      1.0000 0.74843  0.24143  0.65555  Biso   1.000  Y
  Y35      1.0000 0.09191  0.17367  0.32221  Biso   1.000  Y
  Y36      1.0000 0.08177  0.90809  0.32221  Biso   1.000  Y
  Cu1      1.0000 0.00000  0.00000  0.54068  Biso   1.000  Cu
  Cu2      1.0000 0.00000  0.00000  0.95932  Biso   1.000  Cu
  Cu3      1.0000 0.66667  0.33333  0.87401  Biso   1.000  Cu
  Cu4      1.0000 0.66667  0.33333  0.29266  Biso   1.000  Cu
  Cu5      1.0000 0.33333  0.66667  0.20734  Biso   1.000  Cu
  Cu6      1.0000 0.33333  0.66667  0.62599  Biso   1.000  Cu
  Cu7      1.0000 0.00000  0.00000  0.45932  Biso   1.000  Cu
  Cu8      1.0000 0.00000  0.00000  0.04068  Biso   1.000  Cu
  Cu9      1.0000 0.66667  0.33333  0.79266  Biso   1.000  Cu
  Cu10     1.0000 0.66667  0.33333  0.37401  Biso   1.000  Cu
  Cu11     1.0000 0.33333  0.66667  0.12599  Biso   1.000  Cu
  Cu12     1.0000 0.33333  0.66667  0.70734  Biso   1.000  Cu
  Cu13     1.0000 0.02473  0.18097  0.58008  Biso   1.000  Cu
  Cu14     1.0000 0.81903  0.84376  0.58008  Biso   1.000  Cu
  Cu15     1.0000 0.15624  0.97527  0.58008  Biso   1.000  Cu
  Cu16     1.0000 0.18097  0.02473  0.91992  Biso   1.000  Cu
  Cu17     1.0000 0.69140  0.51430  0.91341  Biso   1.000  Cu
  Cu18     1.0000 0.48570  0.17709  0.91341  Biso   1.000  Cu
  Cu19     1.0000 0.82291  0.30860  0.91341  Biso   1.000  Cu
  Cu20     1.0000 0.84764  0.35806  0.25326  Biso   1.000  Cu
  Cu21     1.0000 0.35806  0.84764  0.24674  Biso   1.000  Cu
  Cu22     1.0000 0.51430  0.69140  0.58659  Biso   1.000  Cu
  Cu23     1.0000 0.84376  0.81903  0.91992  Biso   1.000  Cu
  Cu24     1.0000 0.97527  0.15624  0.91992  Biso   1.000  Cu
  Cu25     1.0000 0.15236  0.51043  0.24674  Biso   1.000  Cu
  Cu26     1.0000 0.48957  0.64194  0.24674  Biso   1.000  Cu
  Cu27     1.0000 0.17709  0.48570  0.58659  Biso   1.000  Cu
  Cu28     1.0000 0.30860  0.82291  0.58659  Biso   1.000  Cu
  Cu29     1.0000 0.51043  0.15236  0.25326  Biso   1.000  Cu
  Cu30     1.0000 0.64194  0.48957  0.25326  Biso   1.000  Cu
  Cu31     1.0000 0.97527  0.81903  0.41992  Biso   1.000  Cu
  Cu32     1.0000 0.18097  0.15624  0.41992  Biso   1.000  Cu
  Cu33     1.0000 0.84376  0.02473  0.41992  Biso   1.000  Cu
  Cu34     1.0000 0.81903  0.97527  0.08008  Biso   1.000  Cu
  Cu35     1.0000 0.64194  0.15236  0.75326  Biso   1.000  Cu
  Cu36     1.0000 0.84764  0.48957  0.75326  Biso   1.000  Cu
  Cu37     1.0000 0.51043  0.35806  0.75326  Biso   1.000  Cu
  Cu38     1.0000 0.48570  0.30860  0.41341  Biso   1.000  Cu
  Cu39     1.0000 0.30860  0.48570  0.08659  Biso   1.000  Cu
  Cu40     1.0000 0.15236  0.64194  0.74674  Biso   1.000  Cu
  Cu41     1.0000 0.15624  0.18097  0.08008  Biso   1.000  Cu
  Cu42     1.0000 0.02473  0.84376  0.08008  Biso   1.000  Cu
  Cu43     1.0000 0.51430  0.82291  0.08659  Biso   1.000  Cu
  Cu44     1.0000 0.17709  0.69140  0.08659  Biso   1.000  Cu
  Cu45     1.0000 0.48957  0.84764  0.74674  Biso   1.000  Cu
  Cu46     1.0000 0.35806  0.51043  0.74674  Biso   1.000  Cu
  Cu47     1.0000 0.82291  0.51430  0.41341  Biso   1.000  Cu
  Cu48     1.0000 0.69140  0.17709  0.41341  Biso   1.000  Cu
