data_image0
_cell_length_a       15.3539
_cell_length_b       15.3539
_cell_length_c       93.851
_cell_angle_alpha    90
_cell_angle_beta     90
_cell_angle_gamma    120

_symmetry_space_group_name_H-M    "P 1"
_symmetry_int_tables_number       1

loop_
  _symmetry_equiv_pos_as_xyz
  'x, y, z'

loop_
  _atom_site_label
  _atom_site_occupancy
  _atom_site_fract_x
  _atom_site_fract_y
  _atom_site_fract_z
  _atom_site_thermal_displace_type
  _atom_site_B_iso_or_equiv
  _atom_site_type_symbol
  Sm1      1.0000 0.91709  0.09273  0.67761  Biso   1.000  Sm
  Sm2      1.0000 0.90727  0.82437  0.67761  Biso   1.000  Sm
  Sm3      1.0000 0.17563  0.08291  0.67761  Biso   1.000  Sm
  Sm4      1.0000 0.09273  0.91709  0.82239  Biso   1.000  Sm
  Sm5      1.0000 0.58376  0.42606  0.01094  Biso   1.000  Sm
  Sm6      1.0000 0.57394  0.15770  0.01094  Biso   1.000  Sm
  Sm7      1.0000 0.84230  0.41624  0.01094  Biso   1.000  Sm
  Sm8      1.0000 0.75939  0.25043  0.15572  Biso   1.000  Sm
  Sm9      1.0000 0.25043  0.75939  0.34428  Biso   1.000  Sm
  Sm10     1.0000 0.42606  0.58376  0.48906  Biso   1.000  Sm
  Sm11     1.0000 0.82437  0.90727  0.82239  Biso   1.000  Sm
  Sm12     1.0000 0.08291  0.17563  0.82239  Biso   1.000  Sm
  Sm13     1.0000 0.24061  0.49103  0.34428  Biso   1.000  Sm
  Sm14     1.0000 0.50897  0.74957  0.34428  Biso   1.000  Sm
  Sm15     1.0000 0.15770  0.57394  0.48906  Biso   1.000  Sm
  Sm16     1.0000 0.41624  0.84230  0.48906  Biso   1.000  Sm
  Sm17     1.0000 0.49103  0.24061  0.15572  Biso   1.000  Sm
  Sm18     1.0000 0.74957  0.50897  0.15572  Biso   1.000  Sm
  Sm19     1.0000 0.08291  0.90727  0.32239  Biso   1.000  Sm
  Sm20     1.0000 0.09273  0.17563  0.32239  Biso   1.000  Sm
  Sm21     1.0000 0.82437  0.91709  0.32239  Biso   1.000  Sm
  Sm22     1.0000 0.90727  0.08291  0.17761  Biso   1.000  Sm
  Sm23     1.0000 0.74957  0.24061  0.65572  Biso   1.000  Sm
  Sm24     1.0000 0.75939  0.50897  0.65572  Biso   1.000  Sm
  Sm25     1.0000 0.49103  0.25043  0.65572  Biso   1.000  Sm
  Sm26     1.0000 0.57394  0.41624  0.51094  Biso   1.000  Sm
  Sm27     1.0000 0.41624  0.57394  0.98906  Biso   1.000  Sm
  Sm28     1.0000 0.24061  0.74957  0.84428  Biso   1.000  Sm
  Sm29     1.0000 0.17563  0.09273  0.17761  Biso   1.000  Sm
  Sm30     1.0000 0.91709  0.82437  0.17761  Biso   1.000  Sm
  Sm31     1.0000 0.42606  0.84230  0.98906  Biso   1.000  Sm
  Sm32     1.0000 0.15770  0.58376  0.98906  Biso   1.000  Sm
  Sm33     1.0000 0.50897  0.75939  0.84428  Biso   1.000  Sm
  Sm34     1.0000 0.25043  0.49103  0.84428  Biso   1.000  Sm
  Sm35     1.0000 0.84230  0.42606  0.51094  Biso   1.000  Sm
  Sm36     1.0000 0.58376  0.15770  0.51094  Biso   1.000  Sm
  O1       1.0000 0.76620  0.96140  0.66661  Biso   1.000  O
  O2       1.0000 0.03860  0.80480  0.66661  Biso   1.000  O
  O3       1.0000 0.19520  0.23380  0.66661  Biso   1.000  O
  O4       1.0000 0.96140  0.76620  0.83339  Biso   1.000  O
  O5       1.0000 0.43287  0.29473  0.99994  Biso   1.000  O
  O6       1.0000 0.70527  0.13813  0.99994  Biso   1.000  O
  O7       1.0000 0.86187  0.56713  0.99994  Biso   1.000  O
  O8       1.0000 0.62807  0.09953  0.16672  Biso   1.000  O
  O9       1.0000 0.09953  0.62807  0.33328  Biso   1.000  O
  O10      1.0000 0.29473  0.43287  0.50006  Biso   1.000  O
  O11      1.0000 0.80480  0.03860  0.83339  Biso   1.000  O
  O12      1.0000 0.23380  0.19520  0.83339  Biso   1.000  O
  O13      1.0000 0.37193  0.47147  0.33328  Biso   1.000  O
  O14      1.0000 0.52853  0.90047  0.33328  Biso   1.000  O
  O15      1.0000 0.13813  0.70527  0.50006  Biso   1.000  O
  O16      1.0000 0.56713  0.86187  0.50006  Biso   1.000  O
  O17      1.0000 0.47147  0.37193  0.16672  Biso   1.000  O
  O18      1.0000 0.90047  0.52853  0.16672  Biso   1.000  O
  O19      1.0000 0.23380  0.03860  0.33339  Biso   1.000  O
  O20      1.0000 0.96140  0.19520  0.33339  Biso   1.000  O
  O21      1.0000 0.80480  0.76620  0.33339  Biso   1.000  O
  O22      1.0000 0.03860  0.23380  0.16661  Biso   1.000  O
  O23      1.0000 0.90047  0.37193  0.66672  Biso   1.000  O
  O24      1.0000 0.62807  0.52853  0.66672  Biso   1.000  O
  O25      1.0000 0.47147  0.09953  0.66672  Biso   1.000  O
  O26      1.0000 0.70527  0.56713  0.49994  Biso   1.000  O
  O27      1.0000 0.56713  0.70527  0.00006  Biso   1.000  O
  O28      1.0000 0.37193  0.90047  0.83328  Biso   1.000  O
  O29      1.0000 0.19520  0.96140  0.16661  Biso   1.000  O
  O30      1.0000 0.76620  0.80480  0.16661  Biso   1.000  O
  O31      1.0000 0.29473  0.86187  0.00006  Biso   1.000  O
  O32      1.0000 0.13813  0.43287  0.00006  Biso   1.000  O
  O33      1.0000 0.52853  0.62807  0.83328  Biso   1.000  O
  O34      1.0000 0.09953  0.47147  0.83328  Biso   1.000  O
  O35      1.0000 0.86187  0.29473  0.49994  Biso   1.000  O
  O36      1.0000 0.43287  0.13813  0.49994  Biso   1.000  O
  O37      1.0000 0.00000  0.00000  0.67115  Biso   1.000  O
  O38      1.0000 0.00000  0.00000  0.82885  Biso   1.000  O
  O39      1.0000 0.66667  0.33333  0.00448  Biso   1.000  O
  O40      1.0000 0.66667  0.33333  0.16218  Biso   1.000  O
  O41      1.0000 0.33333  0.66667  0.33782  Biso   1.000  O
  O42      1.0000 0.33333  0.66667  0.49552  Biso   1.000  O
  O43      1.0000 0.00000  0.00000  0.32885  Biso   1.000  O
  O44      1.0000 0.00000  0.00000  0.17115  Biso   1.000  O
  O45      1.0000 0.66667  0.33333  0.66218  Biso   1.000  O
  O46      1.0000 0.66667  0.33333  0.50448  Biso   1.000  O
  O47      1.0000 0.33333  0.66667  0.99552  Biso   1.000  O
  O48      1.0000 0.33333  0.66667  0.83782  Biso   1.000  O
  O49      1.0000 0.05930  0.24700  0.67062  Biso   1.000  O
  O50      1.0000 0.75300  0.81230  0.67062  Biso   1.000  O
  O51      1.0000 0.18770  0.94070  0.67062  Biso   1.000  O
  O52      1.0000 0.24700  0.05930  0.82938  Biso   1.000  O
  O53      1.0000 0.72597  0.58033  0.00395  Biso   1.000  O
  O54      1.0000 0.41967  0.14563  0.00395  Biso   1.000  O
  O55      1.0000 0.85437  0.27403  0.00395  Biso   1.000  O
  O56      1.0000 0.91367  0.39263  0.16271  Biso   1.000  O
  O57      1.0000 0.39263  0.91367  0.33729  Biso   1.000  O
  O58      1.0000 0.58033  0.72597  0.49605  Biso   1.000  O
  O59      1.0000 0.81230  0.75300  0.82938  Biso   1.000  O
  O60      1.0000 0.94070  0.18770  0.82938  Biso   1.000  O
  O61      1.0000 0.08633  0.47897  0.33729  Biso   1.000  O
  O62      1.0000 0.52103  0.60737  0.33729  Biso   1.000  O
  O63      1.0000 0.14563  0.41967  0.49605  Biso   1.000  O
  O64      1.0000 0.27403  0.85437  0.49605  Biso   1.000  O
  O65      1.0000 0.47897  0.08633  0.16271  Biso   1.000  O
  O66      1.0000 0.60737  0.52103  0.16271  Biso   1.000  O
  O67      1.0000 0.94070  0.75300  0.32938  Biso   1.000  O
  O68      1.0000 0.24700  0.18770  0.32938  Biso   1.000  O
  O69      1.0000 0.81230  0.05930  0.32938  Biso   1.000  O
  O70      1.0000 0.75300  0.94070  0.17062  Biso   1.000  O
  O71      1.0000 0.60737  0.08633  0.66271  Biso   1.000  O
  O72      1.0000 0.91367  0.52103  0.66271  Biso   1.000  O
  O73      1.0000 0.47897  0.39263  0.66271  Biso   1.000  O
  O74      1.0000 0.41967  0.27403  0.50395  Biso   1.000  O
  O75      1.0000 0.27403  0.41967  0.99605  Biso   1.000  O
  O76      1.0000 0.08633  0.60737  0.83729  Biso   1.000  O
  O77      1.0000 0.18770  0.24700  0.17062  Biso   1.000  O
  O78      1.0000 0.05930  0.81230  0.17062  Biso   1.000  O
  O79      1.0000 0.58033  0.85437  0.99605  Biso   1.000  O
  O80      1.0000 0.14563  0.72597  0.99605  Biso   1.000  O
  O81      1.0000 0.52103  0.91367  0.83729  Biso   1.000  O
  O82      1.0000 0.39263  0.47897  0.83729  Biso   1.000  O
  O83      1.0000 0.85437  0.58033  0.50395  Biso   1.000  O
  O84      1.0000 0.72597  0.14563  0.50395  Biso   1.000  O
  O85      1.0000 0.10220  0.14230  0.69406  Biso   1.000  O
  O86      1.0000 0.85770  0.95990  0.69406  Biso   1.000  O
  O87      1.0000 0.04010  0.89780  0.69406  Biso   1.000  O
  O88      1.0000 0.14230  0.10220  0.80594  Biso   1.000  O
  O89      1.0000 0.76887  0.47563  0.02739  Biso   1.000  O
  O90      1.0000 0.52437  0.29323  0.02739  Biso   1.000  O
  O91      1.0000 0.70677  0.23113  0.02739  Biso   1.000  O
  O92      1.0000 0.80897  0.43553  0.13927  Biso   1.000  O
  O93      1.0000 0.43553  0.80897  0.36073  Biso   1.000  O
  O94      1.0000 0.47563  0.76887  0.47261  Biso   1.000  O
  O95      1.0000 0.95990  0.85770  0.80594  Biso   1.000  O
  O96      1.0000 0.89780  0.04010  0.80594  Biso   1.000  O
  O97      1.0000 0.19103  0.62657  0.36073  Biso   1.000  O
  O98      1.0000 0.37343  0.56447  0.36073  Biso   1.000  O
  O99      1.0000 0.29323  0.52437  0.47261  Biso   1.000  O
  O100     1.0000 0.23113  0.70677  0.47261  Biso   1.000  O
  O101     1.0000 0.62657  0.19103  0.13927  Biso   1.000  O
  O102     1.0000 0.56447  0.37343  0.13927  Biso   1.000  O
  O103     1.0000 0.89780  0.85770  0.30594  Biso   1.000  O
  O104     1.0000 0.14230  0.04010  0.30594  Biso   1.000  O
  O105     1.0000 0.95990  0.10220  0.30594  Biso   1.000  O
  O106     1.0000 0.85770  0.89780  0.19406  Biso   1.000  O
  O107     1.0000 0.56447  0.19103  0.63927  Biso   1.000  O
  O108     1.0000 0.80897  0.37343  0.63927  Biso   1.000  O
  O109     1.0000 0.62657  0.43553  0.63927  Biso   1.000  O
  O110     1.0000 0.52437  0.23113  0.52739  Biso   1.000  O
  O111     1.0000 0.23113  0.52437  0.97261  Biso   1.000  O
  O112     1.0000 0.19103  0.56447  0.86073  Biso   1.000  O
  O113     1.0000 0.04010  0.14230  0.19406  Biso   1.000  O
  O114     1.0000 0.10220  0.95990  0.19406  Biso   1.000  O
  O115     1.0000 0.47563  0.70677  0.97261  Biso   1.000  O
  O116     1.0000 0.29323  0.76887  0.97261  Biso   1.000  O
  O117     1.0000 0.37343  0.80897  0.86073  Biso   1.000  O
  O118     1.0000 0.43553  0.62657  0.86073  Biso   1.000  O
  O119     1.0000 0.70677  0.47563  0.52739  Biso   1.000  O
  O120     1.0000 0.76887  0.29323  0.52739  Biso   1.000  O
  O121     1.0000 0.98930  0.18490  0.69963  Biso   1.000  O
  O122     1.0000 0.81510  0.80440  0.69963  Biso   1.000  O
  O123     1.0000 0.19560  0.01070  0.69963  Biso   1.000  O
  O124     1.0000 0.18490  0.98930  0.80037  Biso   1.000  O
  O125     1.0000 0.65597  0.51823  0.03296  Biso   1.000  O
  O126     1.0000 0.48177  0.13773  0.03296  Biso   1.000  O
  O127     1.0000 0.86227  0.34403  0.03296  Biso   1.000  O
  O128     1.0000 0.85157  0.32263  0.13370  Biso   1.000  O
  O129     1.0000 0.32263  0.85157  0.36630  Biso   1.000  O
  O130     1.0000 0.51823  0.65597  0.46704  Biso   1.000  O
  O131     1.0000 0.80440  0.81510  0.80037  Biso   1.000  O
  O132     1.0000 0.01070  0.19560  0.80037  Biso   1.000  O
  O133     1.0000 0.14843  0.47107  0.36630  Biso   1.000  O
  O134     1.0000 0.52893  0.67737  0.36630  Biso   1.000  O
  O135     1.0000 0.13773  0.48177  0.46704  Biso   1.000  O
  O136     1.0000 0.34403  0.86227  0.46704  Biso   1.000  O
  O137     1.0000 0.47107  0.14843  0.13370  Biso   1.000  O
  O138     1.0000 0.67737  0.52893  0.13370  Biso   1.000  O
  O139     1.0000 0.01070  0.81510  0.30037  Biso   1.000  O
  O140     1.0000 0.18490  0.19560  0.30037  Biso   1.000  O
  O141     1.0000 0.80440  0.98930  0.30037  Biso   1.000  O
  O142     1.0000 0.81510  0.01070  0.19963  Biso   1.000  O
  O143     1.0000 0.67737  0.14843  0.63370  Biso   1.000  O
  O144     1.0000 0.85157  0.52893  0.63370  Biso   1.000  O
  O145     1.0000 0.47107  0.32263  0.63370  Biso   1.000  O
  O146     1.0000 0.48177  0.34403  0.53296  Biso   1.000  O
  O147     1.0000 0.34403  0.48177  0.96704  Biso   1.000  O
  O148     1.0000 0.14843  0.67737  0.86630  Biso   1.000  O
  O149     1.0000 0.19560  0.18490  0.19963  Biso   1.000  O
  O150     1.0000 0.98930  0.80440  0.19963  Biso   1.000  O
  O151     1.0000 0.51823  0.86227  0.96704  Biso   1.000  O
  O152     1.0000 0.13773  0.65597  0.96704  Biso   1.000  O
  O153     1.0000 0.52893  0.85157  0.86630  Biso   1.000  O
  O154     1.0000 0.32263  0.47107  0.86630  Biso   1.000  O
  O155     1.0000 0.86227  0.51823  0.53296  Biso   1.000  O
  O156     1.0000 0.65597  0.13773  0.53296  Biso   1.000  O
  O157     1.0000 0.81080  0.15410  0.68423  Biso   1.000  O
  O158     1.0000 0.84590  0.65670  0.68423  Biso   1.000  O
  O159     1.0000 0.34330  0.18920  0.68423  Biso   1.000  O
  O160     1.0000 0.15410  0.81080  0.81577  Biso   1.000  O
  O161     1.0000 0.47747  0.48743  0.01756  Biso   1.000  O
  O162     1.0000 0.51257  0.99003  0.01756  Biso   1.000  O
  O163     1.0000 0.00997  0.52253  0.01756  Biso   1.000  O
  O164     1.0000 0.82077  0.14413  0.14910  Biso   1.000  O
  O165     1.0000 0.14413  0.82077  0.35090  Biso   1.000  O
  O166     1.0000 0.48743  0.47747  0.48244  Biso   1.000  O
  O167     1.0000 0.65670  0.84590  0.81577  Biso   1.000  O
  O168     1.0000 0.18920  0.34330  0.81577  Biso   1.000  O
  O169     1.0000 0.17923  0.32337  0.35090  Biso   1.000  O
  O170     1.0000 0.67663  0.85587  0.35090  Biso   1.000  O
  O171     1.0000 0.99003  0.51257  0.48244  Biso   1.000  O
  O172     1.0000 0.52253  0.00997  0.48244  Biso   1.000  O
  O173     1.0000 0.32337  0.17923  0.14910  Biso   1.000  O
  O174     1.0000 0.85587  0.67663  0.14910  Biso   1.000  O
  O175     1.0000 0.18920  0.84590  0.31577  Biso   1.000  O
  O176     1.0000 0.15410  0.34330  0.31577  Biso   1.000  O
  O177     1.0000 0.65670  0.81080  0.31577  Biso   1.000  O
  O178     1.0000 0.84590  0.18920  0.18423  Biso   1.000  O
  O179     1.0000 0.85587  0.17923  0.64910  Biso   1.000  O
  O180     1.0000 0.82077  0.67663  0.64910  Biso   1.000  O
  O181     1.0000 0.32337  0.14413  0.64910  Biso   1.000  O
  O182     1.0000 0.51257  0.52253  0.51756  Biso   1.000  O
  O183     1.0000 0.52253  0.51257  0.98244  Biso   1.000  O
  O184     1.0000 0.17923  0.85587  0.85090  Biso   1.000  O
  O185     1.0000 0.34330  0.15410  0.18423  Biso   1.000  O
  O186     1.0000 0.81080  0.65670  0.18423  Biso   1.000  O
  O187     1.0000 0.48743  0.00997  0.98244  Biso   1.000  O
  O188     1.0000 0.99003  0.47747  0.98244  Biso   1.000  O
  O189     1.0000 0.67663  0.82077  0.85090  Biso   1.000  O
  O190     1.0000 0.14413  0.32337  0.85090  Biso   1.000  O
  O191     1.0000 0.00997  0.48743  0.51756  Biso   1.000  O
  O192     1.0000 0.47747  0.99003  0.51756  Biso   1.000  O
  O193     1.0000 0.93740  0.09650  0.65199  Biso   1.000  O
  O194     1.0000 0.90350  0.84090  0.65199  Biso   1.000  O
  O195     1.0000 0.15910  0.06260  0.65199  Biso   1.000  O
  O196     1.0000 0.09650  0.93740  0.84801  Biso   1.000  O
  O197     1.0000 0.60407  0.42983  0.98532  Biso   1.000  O
  O198     1.0000 0.57017  0.17423  0.98532  Biso   1.000  O
  O199     1.0000 0.82577  0.39593  0.98532  Biso   1.000  O
  O200     1.0000 0.76317  0.27073  0.18134  Biso   1.000  O
  O201     1.0000 0.27073  0.76317  0.31866  Biso   1.000  O
  O202     1.0000 0.42983  0.60407  0.51468  Biso   1.000  O
  O203     1.0000 0.84090  0.90350  0.84801  Biso   1.000  O
  O204     1.0000 0.06260  0.15910  0.84801  Biso   1.000  O
  O205     1.0000 0.23683  0.50757  0.31866  Biso   1.000  O
  O206     1.0000 0.49243  0.72927  0.31866  Biso   1.000  O
  O207     1.0000 0.17423  0.57017  0.51468  Biso   1.000  O
  O208     1.0000 0.39593  0.82577  0.51468  Biso   1.000  O
  O209     1.0000 0.50757  0.23683  0.18134  Biso   1.000  O
  O210     1.0000 0.72927  0.49243  0.18134  Biso   1.000  O
  O211     1.0000 0.06260  0.90350  0.34801  Biso   1.000  O
  O212     1.0000 0.09650  0.15910  0.34801  Biso   1.000  O
  O213     1.0000 0.84090  0.93740  0.34801  Biso   1.000  O
  O214     1.0000 0.90350  0.06260  0.15199  Biso   1.000  O
  O215     1.0000 0.72927  0.23683  0.68134  Biso   1.000  O
  O216     1.0000 0.76317  0.49243  0.68134  Biso   1.000  O
  O217     1.0000 0.50757  0.27073  0.68134  Biso   1.000  O
  O218     1.0000 0.57017  0.39593  0.48532  Biso   1.000  O
  O219     1.0000 0.39593  0.57017  0.01468  Biso   1.000  O
  O220     1.0000 0.23683  0.72927  0.81866  Biso   1.000  O
  O221     1.0000 0.15910  0.09650  0.15199  Biso   1.000  O
  O222     1.0000 0.93740  0.84090  0.15199  Biso   1.000  O
  O223     1.0000 0.42983  0.82577  0.01468  Biso   1.000  O
  O224     1.0000 0.17423  0.60407  0.01468  Biso   1.000  O
  O225     1.0000 0.49243  0.76317  0.81866  Biso   1.000  O
  O226     1.0000 0.27073  0.50757  0.81866  Biso   1.000  O
  O227     1.0000 0.82577  0.42983  0.48532  Biso   1.000  O
  O228     1.0000 0.60407  0.17423  0.48532  Biso   1.000  O
  C1       1.0000 0.72830  0.86970  0.66454  Biso   1.000  C
  C2       1.0000 0.13030  0.85860  0.66454  Biso   1.000  C
  C3       1.0000 0.14140  0.27170  0.66454  Biso   1.000  C
  C4       1.0000 0.86970  0.72830  0.83546  Biso   1.000  C
  C5       1.0000 0.39497  0.20303  0.99787  Biso   1.000  C
  C6       1.0000 0.79697  0.19193  0.99787  Biso   1.000  C
  C7       1.0000 0.80807  0.60503  0.99787  Biso   1.000  C
  C8       1.0000 0.53637  0.06163  0.16879  Biso   1.000  C
  C9       1.0000 0.06163  0.53637  0.33121  Biso   1.000  C
  C10      1.0000 0.20303  0.39497  0.50213  Biso   1.000  C
  C11      1.0000 0.85860  0.13030  0.83546  Biso   1.000  C
  C12      1.0000 0.27170  0.14140  0.83546  Biso   1.000  C
  C13      1.0000 0.46363  0.52527  0.33121  Biso   1.000  C
  C14      1.0000 0.47473  0.93837  0.33121  Biso   1.000  C
  C15      1.0000 0.19193  0.79697  0.50213  Biso   1.000  C
  C16      1.0000 0.60503  0.80807  0.50213  Biso   1.000  C
  C17      1.0000 0.52527  0.46363  0.16879  Biso   1.000  C
  C18      1.0000 0.93837  0.47473  0.16879  Biso   1.000  C
  C19      1.0000 0.27170  0.13030  0.33546  Biso   1.000  C
  C20      1.0000 0.86970  0.14140  0.33546  Biso   1.000  C
  C21      1.0000 0.85860  0.72830  0.33546  Biso   1.000  C
  C22      1.0000 0.13030  0.27170  0.16454  Biso   1.000  C
  C23      1.0000 0.93837  0.46363  0.66879  Biso   1.000  C
  C24      1.0000 0.53637  0.47473  0.66879  Biso   1.000  C
  C25      1.0000 0.52527  0.06163  0.66879  Biso   1.000  C
  C26      1.0000 0.79697  0.60503  0.49787  Biso   1.000  C
  C27      1.0000 0.60503  0.79697  0.00213  Biso   1.000  C
  C28      1.0000 0.46363  0.93837  0.83121  Biso   1.000  C
  C29      1.0000 0.14140  0.86970  0.16454  Biso   1.000  C
  C30      1.0000 0.72830  0.85860  0.16454  Biso   1.000  C
  C31      1.0000 0.20303  0.80807  0.00213  Biso   1.000  C
  C32      1.0000 0.19193  0.39497  0.00213  Biso   1.000  C
  C33      1.0000 0.47473  0.53637  0.83121  Biso   1.000  C
  C34      1.0000 0.06163  0.52527  0.83121  Biso   1.000  C
  C35      1.0000 0.80807  0.20303  0.49787  Biso   1.000  C
  C36      1.0000 0.39497  0.19193  0.49787  Biso   1.000  C
  C37      1.0000 0.64290  0.82090  0.65392  Biso   1.000  C
  C38      1.0000 0.17910  0.82200  0.65392  Biso   1.000  C
  C39      1.0000 0.17800  0.35710  0.65392  Biso   1.000  C
  C40      1.0000 0.82090  0.64290  0.84608  Biso   1.000  C
  C41      1.0000 0.30957  0.15423  0.98725  Biso   1.000  C
  C42      1.0000 0.84577  0.15533  0.98725  Biso   1.000  C
  C43      1.0000 0.84467  0.69043  0.98725  Biso   1.000  C
  C44      1.0000 0.48757  0.97623  0.17941  Biso   1.000  C
  C45      1.0000 0.97623  0.48757  0.32059  Biso   1.000  C
  C46      1.0000 0.15423  0.30957  0.51275  Biso   1.000  C
  C47      1.0000 0.82200  0.17910  0.84608  Biso   1.000  C
  C48      1.0000 0.35710  0.17800  0.84608  Biso   1.000  C
  C49      1.0000 0.51243  0.48867  0.32059  Biso   1.000  C
  C50      1.0000 0.51133  0.02377  0.32059  Biso   1.000  C
  C51      1.0000 0.15533  0.84577  0.51275  Biso   1.000  C
  C52      1.0000 0.69043  0.84467  0.51275  Biso   1.000  C
  C53      1.0000 0.48867  0.51243  0.17941  Biso   1.000  C
  C54      1.0000 0.02377  0.51133  0.17941  Biso   1.000  C
  C55      1.0000 0.35710  0.17910  0.34608  Biso   1.000  C
  C56      1.0000 0.82090  0.17800  0.34608  Biso   1.000  C
  C57      1.0000 0.82200  0.64290  0.34608  Biso   1.000  C
  C58      1.0000 0.17910  0.35710  0.15392  Biso   1.000  C
  C59      1.0000 0.02377  0.51243  0.67941  Biso   1.000  C
  C60      1.0000 0.48757  0.51133  0.67941  Biso   1.000  C
  C61      1.0000 0.48867  0.97623  0.67941  Biso   1.000  C
  C62      1.0000 0.84577  0.69043  0.48725  Biso   1.000  C
  C63      1.0000 0.69043  0.84577  0.01275  Biso   1.000  C
  C64      1.0000 0.51243  0.02377  0.82059  Biso   1.000  C
  C65      1.0000 0.17800  0.82090  0.15392  Biso   1.000  C
  C66      1.0000 0.64290  0.82200  0.15392  Biso   1.000  C
  C67      1.0000 0.15423  0.84467  0.01275  Biso   1.000  C
  C68      1.0000 0.15533  0.30957  0.01275  Biso   1.000  C
  C69      1.0000 0.51133  0.48757  0.82059  Biso   1.000  C
  C70      1.0000 0.97623  0.48867  0.82059  Biso   1.000  C
  C71      1.0000 0.84467  0.15423  0.48725  Biso   1.000  C
  C72      1.0000 0.30957  0.15533  0.48725  Biso   1.000  C
  C73      1.0000 0.57670  0.71960  0.65452  Biso   1.000  C
  C74      1.0000 0.28040  0.85710  0.65452  Biso   1.000  C
  C75      1.0000 0.14290  0.42330  0.65452  Biso   1.000  C
  C76      1.0000 0.71960  0.57670  0.84548  Biso   1.000  C
  C77      1.0000 0.24337  0.05293  0.98785  Biso   1.000  C
  C78      1.0000 0.94707  0.19043  0.98785  Biso   1.000  C
  C79      1.0000 0.80957  0.75663  0.98785  Biso   1.000  C
  C80      1.0000 0.38627  0.91003  0.17881  Biso   1.000  C
  C81      1.0000 0.91003  0.38627  0.32119  Biso   1.000  C
  C82      1.0000 0.05293  0.24337  0.51215  Biso   1.000  C
  C83      1.0000 0.85710  0.28040  0.84548  Biso   1.000  C
  C84      1.0000 0.42330  0.14290  0.84548  Biso   1.000  C
  C85      1.0000 0.61373  0.52377  0.32119  Biso   1.000  C
  C86      1.0000 0.47623  0.08997  0.32119  Biso   1.000  C
  C87      1.0000 0.19043  0.94707  0.51215  Biso   1.000  C
  C88      1.0000 0.75663  0.80957  0.51215  Biso   1.000  C
  C89      1.0000 0.52377  0.61373  0.17881  Biso   1.000  C
  C90      1.0000 0.08997  0.47623  0.17881  Biso   1.000  C
  C91      1.0000 0.42330  0.28040  0.34548  Biso   1.000  C
  C92      1.0000 0.71960  0.14290  0.34548  Biso   1.000  C
  C93      1.0000 0.85710  0.57670  0.34548  Biso   1.000  C
  C94      1.0000 0.28040  0.42330  0.15452  Biso   1.000  C
  C95      1.0000 0.08997  0.61373  0.67881  Biso   1.000  C
  C96      1.0000 0.38627  0.47623  0.67881  Biso   1.000  C
  C97      1.0000 0.52377  0.91003  0.67881  Biso   1.000  C
  C98      1.0000 0.94707  0.75663  0.48785  Biso   1.000  C
  C99      1.0000 0.75663  0.94707  0.01215  Biso   1.000  C
  C100     1.0000 0.61373  0.08997  0.82119  Biso   1.000  C
  C101     1.0000 0.14290  0.71960  0.15452  Biso   1.000  C
  C102     1.0000 0.57670  0.85710  0.15452  Biso   1.000  C
  C103     1.0000 0.05293  0.80957  0.01215  Biso   1.000  C
  C104     1.0000 0.19043  0.24337  0.01215  Biso   1.000  C
  C105     1.0000 0.47623  0.38627  0.82119  Biso   1.000  C
  C106     1.0000 0.91003  0.52377  0.82119  Biso   1.000  C
  C107     1.0000 0.80957  0.05293  0.48785  Biso   1.000  C
  C108     1.0000 0.24337  0.19043  0.48785  Biso   1.000  C
  C109     1.0000 0.62610  0.87570  0.64359  Biso   1.000  C
  C110     1.0000 0.12430  0.75040  0.64359  Biso   1.000  C
  C111     1.0000 0.24960  0.37390  0.64359  Biso   1.000  C
  C112     1.0000 0.87570  0.62610  0.85641  Biso   1.000  C
  C113     1.0000 0.29277  0.20903  0.97692  Biso   1.000  C
  C114     1.0000 0.79097  0.08373  0.97692  Biso   1.000  C
  C115     1.0000 0.91627  0.70723  0.97692  Biso   1.000  C
  C116     1.0000 0.54237  0.95943  0.18974  Biso   1.000  C
  C117     1.0000 0.95943  0.54237  0.31026  Biso   1.000  C
  C118     1.0000 0.20903  0.29277  0.52308  Biso   1.000  C
  C119     1.0000 0.75040  0.12430  0.85641  Biso   1.000  C
  C120     1.0000 0.37390  0.24960  0.85641  Biso   1.000  C
  C121     1.0000 0.45763  0.41707  0.31026  Biso   1.000  C
  C122     1.0000 0.58293  0.04057  0.31026  Biso   1.000  C
  C123     1.0000 0.08373  0.79097  0.52308  Biso   1.000  C
  C124     1.0000 0.70723  0.91627  0.52308  Biso   1.000  C
  C125     1.0000 0.41707  0.45763  0.18974  Biso   1.000  C
  C126     1.0000 0.04057  0.58293  0.18974  Biso   1.000  C
  C127     1.0000 0.37390  0.12430  0.35641  Biso   1.000  C
  C128     1.0000 0.87570  0.24960  0.35641  Biso   1.000  C
  C129     1.0000 0.75040  0.62610  0.35641  Biso   1.000  C
  C130     1.0000 0.12430  0.37390  0.14359  Biso   1.000  C
  C131     1.0000 0.04057  0.45763  0.68974  Biso   1.000  C
  C132     1.0000 0.54237  0.58293  0.68974  Biso   1.000  C
  C133     1.0000 0.41707  0.95943  0.68974  Biso   1.000  C
  C134     1.0000 0.79097  0.70723  0.47692  Biso   1.000  C
  C135     1.0000 0.70723  0.79097  0.02308  Biso   1.000  C
  C136     1.0000 0.45763  0.04057  0.81026  Biso   1.000  C
  C137     1.0000 0.24960  0.87570  0.14359  Biso   1.000  C
  C138     1.0000 0.62610  0.75040  0.14359  Biso   1.000  C
  C139     1.0000 0.20903  0.91627  0.02308  Biso   1.000  C
  C140     1.0000 0.08373  0.29277  0.02308  Biso   1.000  C
  C141     1.0000 0.58293  0.54237  0.81026  Biso   1.000  C
  C142     1.0000 0.95943  0.41707  0.81026  Biso   1.000  C
  C143     1.0000 0.91627  0.20903  0.47692  Biso   1.000  C
  C144     1.0000 0.29277  0.08373  0.47692  Biso   1.000  C
  H1       1.0000 0.58690  0.67950  0.66100  Biso   1.000  H
  H2       1.0000 0.32050  0.90740  0.66100  Biso   1.000  H
  H3       1.0000 0.09260  0.41310  0.66100  Biso   1.000  H
  H4       1.0000 0.67950  0.58690  0.83900  Biso   1.000  H
  H5       1.0000 0.25357  0.01283  0.99433  Biso   1.000  H
  H6       1.0000 0.98717  0.24073  0.99433  Biso   1.000  H
  H7       1.0000 0.75927  0.74643  0.99433  Biso   1.000  H
  H8       1.0000 0.34617  0.92023  0.17233  Biso   1.000  H
  H9       1.0000 0.92023  0.34617  0.32767  Biso   1.000  H
  H10      1.0000 0.01283  0.25357  0.50567  Biso   1.000  H
  H11      1.0000 0.90740  0.32050  0.83900  Biso   1.000  H
  H12      1.0000 0.41310  0.09260  0.83900  Biso   1.000  H
  H13      1.0000 0.65383  0.57407  0.32767  Biso   1.000  H
  H14      1.0000 0.42593  0.07977  0.32767  Biso   1.000  H
  H15      1.0000 0.24073  0.98717  0.50567  Biso   1.000  H
  H16      1.0000 0.74643  0.75927  0.50567  Biso   1.000  H
  H17      1.0000 0.57407  0.65383  0.17233  Biso   1.000  H
  H18      1.0000 0.07977  0.42593  0.17233  Biso   1.000  H
  H19      1.0000 0.41310  0.32050  0.33900  Biso   1.000  H
  H20      1.0000 0.67950  0.09260  0.33900  Biso   1.000  H
  H21      1.0000 0.90740  0.58690  0.33900  Biso   1.000  H
  H22      1.0000 0.32050  0.41310  0.16100  Biso   1.000  H
  H23      1.0000 0.07977  0.65383  0.67233  Biso   1.000  H
  H24      1.0000 0.34617  0.42593  0.67233  Biso   1.000  H
  H25      1.0000 0.57407  0.92023  0.67233  Biso   1.000  H
  H26      1.0000 0.98717  0.74643  0.49433  Biso   1.000  H
  H27      1.0000 0.74643  0.98717  0.00567  Biso   1.000  H
  H28      1.0000 0.65383  0.07977  0.82767  Biso   1.000  H
  H29      1.0000 0.09260  0.67950  0.16100  Biso   1.000  H
  H30      1.0000 0.58690  0.90740  0.16100  Biso   1.000  H
  H31      1.0000 0.01283  0.75927  0.00567  Biso   1.000  H
  H32      1.0000 0.24073  0.25357  0.00567  Biso   1.000  H
  H33      1.0000 0.42593  0.34617  0.82767  Biso   1.000  H
  H34      1.0000 0.92023  0.57407  0.82767  Biso   1.000  H
  H35      1.0000 0.75927  0.01283  0.49433  Biso   1.000  H
  H36      1.0000 0.25357  0.24073  0.49433  Biso   1.000  H
  C145     1.0000 0.49510  0.67750  0.64552  Biso   1.000  C
  C146     1.0000 0.32250  0.81760  0.64552  Biso   1.000  C
  C147     1.0000 0.18240  0.50490  0.64552  Biso   1.000  C
  C148     1.0000 0.67750  0.49510  0.85448  Biso   1.000  C
  C149     1.0000 0.16177  0.01083  0.97885  Biso   1.000  C
  C150     1.0000 0.98917  0.15093  0.97885  Biso   1.000  C
  C151     1.0000 0.84907  0.83823  0.97885  Biso   1.000  C
  C152     1.0000 0.34417  0.82843  0.18781  Biso   1.000  C
  C153     1.0000 0.82843  0.34417  0.31219  Biso   1.000  C
  C154     1.0000 0.01083  0.16177  0.52115  Biso   1.000  C
  C155     1.0000 0.81760  0.32250  0.85448  Biso   1.000  C
  C156     1.0000 0.50490  0.18240  0.85448  Biso   1.000  C
  C157     1.0000 0.65583  0.48427  0.31219  Biso   1.000  C
  C158     1.0000 0.51573  0.17157  0.31219  Biso   1.000  C
  C159     1.0000 0.15093  0.98917  0.52115  Biso   1.000  C
  C160     1.0000 0.83823  0.84907  0.52115  Biso   1.000  C
  C161     1.0000 0.48427  0.65583  0.18781  Biso   1.000  C
  C162     1.0000 0.17157  0.51573  0.18781  Biso   1.000  C
  C163     1.0000 0.50490  0.32250  0.35448  Biso   1.000  C
  C164     1.0000 0.67750  0.18240  0.35448  Biso   1.000  C
  C165     1.0000 0.81760  0.49510  0.35448  Biso   1.000  C
  C166     1.0000 0.32250  0.50490  0.14552  Biso   1.000  C
  C167     1.0000 0.17157  0.65583  0.68781  Biso   1.000  C
  C168     1.0000 0.34417  0.51573  0.68781  Biso   1.000  C
  C169     1.0000 0.48427  0.82843  0.68781  Biso   1.000  C
  C170     1.0000 0.98917  0.83823  0.47885  Biso   1.000  C
  C171     1.0000 0.83823  0.98917  0.02115  Biso   1.000  C
  C172     1.0000 0.65583  0.17157  0.81219  Biso   1.000  C
  C173     1.0000 0.18240  0.67750  0.14552  Biso   1.000  C
  C174     1.0000 0.49510  0.81760  0.14552  Biso   1.000  C
  C175     1.0000 0.01083  0.84907  0.02115  Biso   1.000  C
  C176     1.0000 0.15093  0.16177  0.02115  Biso   1.000  C
  C177     1.0000 0.51573  0.34417  0.81219  Biso   1.000  C
  C178     1.0000 0.82843  0.48427  0.81219  Biso   1.000  C
  C179     1.0000 0.84907  0.01083  0.47885  Biso   1.000  C
  C180     1.0000 0.16177  0.15093  0.47885  Biso   1.000  C
  C181     1.0000 0.54470  0.82660  0.63459  Biso   1.000  C
  C182     1.0000 0.17340  0.71810  0.63459  Biso   1.000  C
  C183     1.0000 0.28190  0.45530  0.63459  Biso   1.000  C
  C184     1.0000 0.82660  0.54470  0.86541  Biso   1.000  C
  C185     1.0000 0.21137  0.15993  0.96792  Biso   1.000  C
  C186     1.0000 0.84007  0.05143  0.96792  Biso   1.000  C
  C187     1.0000 0.94857  0.78863  0.96792  Biso   1.000  C
  C188     1.0000 0.49327  0.87803  0.19874  Biso   1.000  C
  C189     1.0000 0.87803  0.49327  0.30126  Biso   1.000  C
  C190     1.0000 0.15993  0.21137  0.53208  Biso   1.000  C
  C191     1.0000 0.71810  0.17340  0.86541  Biso   1.000  C
  C192     1.0000 0.45530  0.28190  0.86541  Biso   1.000  C
  C193     1.0000 0.50673  0.38477  0.30126  Biso   1.000  C
  C194     1.0000 0.61523  0.12197  0.30126  Biso   1.000  C
  C195     1.0000 0.05143  0.84007  0.53208  Biso   1.000  C
  C196     1.0000 0.78863  0.94857  0.53208  Biso   1.000  C
  C197     1.0000 0.38477  0.50673  0.19874  Biso   1.000  C
  C198     1.0000 0.12197  0.61523  0.19874  Biso   1.000  C
  C199     1.0000 0.45530  0.17340  0.36541  Biso   1.000  C
  C200     1.0000 0.82660  0.28190  0.36541  Biso   1.000  C
  C201     1.0000 0.71810  0.54470  0.36541  Biso   1.000  C
  C202     1.0000 0.17340  0.45530  0.13459  Biso   1.000  C
  C203     1.0000 0.12197  0.50673  0.69874  Biso   1.000  C
  C204     1.0000 0.49327  0.61523  0.69874  Biso   1.000  C
  C205     1.0000 0.38477  0.87803  0.69874  Biso   1.000  C
  C206     1.0000 0.84007  0.78863  0.46792  Biso   1.000  C
  C207     1.0000 0.78863  0.84007  0.03208  Biso   1.000  C
  C208     1.0000 0.50673  0.12197  0.80126  Biso   1.000  C
  C209     1.0000 0.28190  0.82660  0.13459  Biso   1.000  C
  C210     1.0000 0.54470  0.71810  0.13459  Biso   1.000  C
  C211     1.0000 0.15993  0.94857  0.03208  Biso   1.000  C
  C212     1.0000 0.05143  0.21137  0.03208  Biso   1.000  C
  C213     1.0000 0.61523  0.49327  0.80126  Biso   1.000  C
  C214     1.0000 0.87803  0.38477  0.80126  Biso   1.000  C
  C215     1.0000 0.94857  0.15993  0.46792  Biso   1.000  C
  C216     1.0000 0.21137  0.05143  0.46792  Biso   1.000  C
  H37      1.0000 0.66930  0.94470  0.64280  Biso   1.000  H
  H38      1.0000 0.05530  0.72460  0.64280  Biso   1.000  H
  H39      1.0000 0.27540  0.33070  0.64280  Biso   1.000  H
  H40      1.0000 0.94470  0.66930  0.85720  Biso   1.000  H
  H41      1.0000 0.33597  0.27803  0.97613  Biso   1.000  H
  H42      1.0000 0.72197  0.05793  0.97613  Biso   1.000  H
  H43      1.0000 0.94207  0.66403  0.97613  Biso   1.000  H
  H44      1.0000 0.61137  0.00263  0.19053  Biso   1.000  H
  H45      1.0000 0.00263  0.61137  0.30947  Biso   1.000  H
  H46      1.0000 0.27803  0.33597  0.52387  Biso   1.000  H
  H47      1.0000 0.72460  0.05530  0.85720  Biso   1.000  H
  H48      1.0000 0.33070  0.27540  0.85720  Biso   1.000  H
  H49      1.0000 0.38863  0.39127  0.30947  Biso   1.000  H
  H50      1.0000 0.60873  0.99737  0.30947  Biso   1.000  H
  H51      1.0000 0.05793  0.72197  0.52387  Biso   1.000  H
  H52      1.0000 0.66403  0.94207  0.52387  Biso   1.000  H
  H53      1.0000 0.39127  0.38863  0.19053  Biso   1.000  H
  H54      1.0000 0.99737  0.60873  0.19053  Biso   1.000  H
  H55      1.0000 0.33070  0.05530  0.35720  Biso   1.000  H
  H56      1.0000 0.94470  0.27540  0.35720  Biso   1.000  H
  H57      1.0000 0.72460  0.66930  0.35720  Biso   1.000  H
  H58      1.0000 0.05530  0.33070  0.14280  Biso   1.000  H
  H59      1.0000 0.99737  0.38863  0.69053  Biso   1.000  H
  H60      1.0000 0.61137  0.60873  0.69053  Biso   1.000  H
  H61      1.0000 0.39127  0.00263  0.69053  Biso   1.000  H
  H62      1.0000 0.72197  0.66403  0.47613  Biso   1.000  H
  H63      1.0000 0.66403  0.72197  0.02387  Biso   1.000  H
  H64      1.0000 0.38863  0.99737  0.80947  Biso   1.000  H
  H65      1.0000 0.27540  0.94470  0.14280  Biso   1.000  H
  H66      1.0000 0.66930  0.72460  0.14280  Biso   1.000  H
  H67      1.0000 0.27803  0.94207  0.02387  Biso   1.000  H
  H68      1.0000 0.05793  0.33597  0.02387  Biso   1.000  H
  H69      1.0000 0.60873  0.61137  0.80947  Biso   1.000  H
  H70      1.0000 0.00263  0.39127  0.80947  Biso   1.000  H
  H71      1.0000 0.94207  0.27803  0.47613  Biso   1.000  H
  H72      1.0000 0.33597  0.05793  0.47613  Biso   1.000  H
  H73      1.0000 0.45010  0.60900  0.64640  Biso   1.000  H
  H74      1.0000 0.39100  0.84110  0.64640  Biso   1.000  H
  H75      1.0000 0.15890  0.54990  0.64640  Biso   1.000  H
  H76      1.0000 0.60900  0.45010  0.85360  Biso   1.000  H
  H77      1.0000 0.11677  0.94233  0.97973  Biso   1.000  H
  H78      1.0000 0.05767  0.17443  0.97973  Biso   1.000  H
  H79      1.0000 0.82557  0.88323  0.97973  Biso   1.000  H
  H80      1.0000 0.27567  0.78343  0.18693  Biso   1.000  H
  H81      1.0000 0.78343  0.27567  0.31307  Biso   1.000  H
  H82      1.0000 0.94233  0.11677  0.52027  Biso   1.000  H
  H83      1.0000 0.84110  0.39100  0.85360  Biso   1.000  H
  H84      1.0000 0.54990  0.15890  0.85360  Biso   1.000  H
  H85      1.0000 0.72433  0.50777  0.31307  Biso   1.000  H
  H86      1.0000 0.49223  0.21657  0.31307  Biso   1.000  H
  H87      1.0000 0.17443  0.05767  0.52027  Biso   1.000  H
  H88      1.0000 0.88323  0.82557  0.52027  Biso   1.000  H
  H89      1.0000 0.50777  0.72433  0.18693  Biso   1.000  H
  H90      1.0000 0.21657  0.49223  0.18693  Biso   1.000  H
  H91      1.0000 0.54990  0.39100  0.35360  Biso   1.000  H
  H92      1.0000 0.60900  0.15890  0.35360  Biso   1.000  H
  H93      1.0000 0.84110  0.45010  0.35360  Biso   1.000  H
  H94      1.0000 0.39100  0.54990  0.14640  Biso   1.000  H
  H95      1.0000 0.21657  0.72433  0.68693  Biso   1.000  H
  H96      1.0000 0.27567  0.49223  0.68693  Biso   1.000  H
  H97      1.0000 0.50777  0.78343  0.68693  Biso   1.000  H
  H98      1.0000 0.05767  0.88323  0.47973  Biso   1.000  H
  H99      1.0000 0.88323  0.05767  0.02027  Biso   1.000  H
  H100     1.0000 0.72433  0.21657  0.81307  Biso   1.000  H
  H101     1.0000 0.15890  0.60900  0.14640  Biso   1.000  H
  H102     1.0000 0.45010  0.84110  0.14640  Biso   1.000  H
  H103     1.0000 0.94233  0.82557  0.02027  Biso   1.000  H
  H104     1.0000 0.17443  0.11677  0.02027  Biso   1.000  H
  H105     1.0000 0.49223  0.27567  0.81307  Biso   1.000  H
  H106     1.0000 0.78343  0.50777  0.81307  Biso   1.000  H
  H107     1.0000 0.82557  0.94233  0.47973  Biso   1.000  H
  H108     1.0000 0.11677  0.17443  0.47973  Biso   1.000  H
  N1       1.0000 0.47590  0.72830  0.63560  Biso   1.000  N
  N2       1.0000 0.27170  0.74760  0.63560  Biso   1.000  N
  N3       1.0000 0.25240  0.52410  0.63560  Biso   1.000  N
  N4       1.0000 0.72830  0.47590  0.86440  Biso   1.000  N
  N5       1.0000 0.14257  0.06163  0.96893  Biso   1.000  N
  N6       1.0000 0.93837  0.08093  0.96893  Biso   1.000  N
  N7       1.0000 0.91907  0.85743  0.96893  Biso   1.000  N
  N8       1.0000 0.39497  0.80923  0.19773  Biso   1.000  N
  N9       1.0000 0.80923  0.39497  0.30227  Biso   1.000  N
  N10      1.0000 0.06163  0.14257  0.53107  Biso   1.000  N
  N11      1.0000 0.74760  0.27170  0.86440  Biso   1.000  N
  N12      1.0000 0.52410  0.25240  0.86440  Biso   1.000  N
  N13      1.0000 0.60503  0.41427  0.30227  Biso   1.000  N
  N14      1.0000 0.58573  0.19077  0.30227  Biso   1.000  N
  N15      1.0000 0.08093  0.93837  0.53107  Biso   1.000  N
  N16      1.0000 0.85743  0.91907  0.53107  Biso   1.000  N
  N17      1.0000 0.41427  0.60503  0.19773  Biso   1.000  N
  N18      1.0000 0.19077  0.58573  0.19773  Biso   1.000  N
  N19      1.0000 0.52410  0.27170  0.36440  Biso   1.000  N
  N20      1.0000 0.72830  0.25240  0.36440  Biso   1.000  N
  N21      1.0000 0.74760  0.47590  0.36440  Biso   1.000  N
  N22      1.0000 0.27170  0.52410  0.13560  Biso   1.000  N
  N23      1.0000 0.19077  0.60503  0.69773  Biso   1.000  N
  N24      1.0000 0.39497  0.58573  0.69773  Biso   1.000  N
  N25      1.0000 0.41427  0.80923  0.69773  Biso   1.000  N
  N26      1.0000 0.93837  0.85743  0.46893  Biso   1.000  N
  N27      1.0000 0.85743  0.93837  0.03107  Biso   1.000  N
  N28      1.0000 0.60503  0.19077  0.80227  Biso   1.000  N
  N29      1.0000 0.25240  0.72830  0.13560  Biso   1.000  N
  N30      1.0000 0.47590  0.74760  0.13560  Biso   1.000  N
  N31      1.0000 0.06163  0.91907  0.03107  Biso   1.000  N
  N32      1.0000 0.08093  0.14257  0.03107  Biso   1.000  N
  N33      1.0000 0.58573  0.39497  0.80227  Biso   1.000  N
  N34      1.0000 0.80923  0.41427  0.80227  Biso   1.000  N
  N35      1.0000 0.91907  0.06163  0.46893  Biso   1.000  N
  N36      1.0000 0.14257  0.08093  0.46893  Biso   1.000  N
  H109     1.0000 0.53680  0.86370  0.62740  Biso   1.000  H
  H110     1.0000 0.13630  0.67310  0.62740  Biso   1.000  H
  H111     1.0000 0.32690  0.46320  0.62740  Biso   1.000  H
  H112     1.0000 0.86370  0.53680  0.87260  Biso   1.000  H
  H113     1.0000 0.20347  0.19703  0.96073  Biso   1.000  H
  H114     1.0000 0.80297  0.00643  0.96073  Biso   1.000  H
  H115     1.0000 0.99357  0.79653  0.96073  Biso   1.000  H
  H116     1.0000 0.53037  0.87013  0.20593  Biso   1.000  H
  H117     1.0000 0.87013  0.53037  0.29407  Biso   1.000  H
  H118     1.0000 0.19703  0.20347  0.53927  Biso   1.000  H
  H119     1.0000 0.67310  0.13630  0.87260  Biso   1.000  H
  H120     1.0000 0.46320  0.32690  0.87260  Biso   1.000  H
  H121     1.0000 0.46963  0.33977  0.29407  Biso   1.000  H
  H122     1.0000 0.66023  0.12987  0.29407  Biso   1.000  H
  H123     1.0000 0.00643  0.80297  0.53927  Biso   1.000  H
  H124     1.0000 0.79653  0.99357  0.53927  Biso   1.000  H
  H125     1.0000 0.33977  0.46963  0.20593  Biso   1.000  H
  H126     1.0000 0.12987  0.66023  0.20593  Biso   1.000  H
  H127     1.0000 0.46320  0.13630  0.37260  Biso   1.000  H
  H128     1.0000 0.86370  0.32690  0.37260  Biso   1.000  H
  H129     1.0000 0.67310  0.53680  0.37260  Biso   1.000  H
  H130     1.0000 0.13630  0.46320  0.12740  Biso   1.000  H
  H131     1.0000 0.12987  0.46963  0.70593  Biso   1.000  H
  H132     1.0000 0.53037  0.66023  0.70593  Biso   1.000  H
  H133     1.0000 0.33977  0.87013  0.70593  Biso   1.000  H
  H134     1.0000 0.80297  0.79653  0.46073  Biso   1.000  H
  H135     1.0000 0.79653  0.80297  0.03927  Biso   1.000  H
  H136     1.0000 0.46963  0.12987  0.79407  Biso   1.000  H
  H137     1.0000 0.32690  0.86370  0.12740  Biso   1.000  H
  H138     1.0000 0.53680  0.67310  0.12740  Biso   1.000  H
  H139     1.0000 0.19703  0.99357  0.03927  Biso   1.000  H
  H140     1.0000 0.00643  0.20347  0.03927  Biso   1.000  H
  H141     1.0000 0.66023  0.53037  0.79407  Biso   1.000  H
  H142     1.0000 0.87013  0.33977  0.79407  Biso   1.000  H
  H143     1.0000 0.99357  0.19703  0.46073  Biso   1.000  H
  H144     1.0000 0.20347  0.00643  0.46073  Biso   1.000  H
  Cu1      1.0000 0.33330  0.66670  0.62586  Biso   1.000  Cu
  Cu2      1.0000 0.66670  0.33330  0.87414  Biso   1.000  Cu
  Cu3      1.0000 0.99997  0.00003  0.95919  Biso   1.000  Cu
  Cu4      1.0000 0.33337  0.66663  0.20747  Biso   1.000  Cu
  Cu5      1.0000 0.66663  0.33337  0.29253  Biso   1.000  Cu
  Cu6      1.0000 0.00003  0.99997  0.54081  Biso   1.000  Cu
  Cu7      1.0000 0.66670  0.33330  0.37414  Biso   1.000  Cu
  Cu8      1.0000 0.33330  0.66670  0.12586  Biso   1.000  Cu
  Cu9      1.0000 0.33337  0.66663  0.70747  Biso   1.000  Cu
  Cu10     1.0000 0.99997  0.00003  0.45919  Biso   1.000  Cu
  Cu11     1.0000 0.00003  0.99997  0.04081  Biso   1.000  Cu
  Cu12     1.0000 0.66663  0.33337  0.79253  Biso   1.000  Cu
  I1       1.0000 0.33330  0.66670  0.59792  Biso   1.000  I
  I2       1.0000 0.66670  0.33330  0.90208  Biso   1.000  I
  I3       1.0000 0.99997  0.00003  0.93125  Biso   1.000  I
  I4       1.0000 0.33337  0.66663  0.23541  Biso   1.000  I
  I5       1.0000 0.66663  0.33337  0.26459  Biso   1.000  I
  I6       1.0000 0.00003  0.99997  0.56875  Biso   1.000  I
  I7       1.0000 0.66670  0.33330  0.40208  Biso   1.000  I
  I8       1.0000 0.33330  0.66670  0.09792  Biso   1.000  I
  I9       1.0000 0.33337  0.66663  0.73541  Biso   1.000  I
  I10      1.0000 0.99997  0.00003  0.43125  Biso   1.000  I
  I11      1.0000 0.00003  0.99997  0.06875  Biso   1.000  I
  I12      1.0000 0.66663  0.33337  0.76459  Biso   1.000  I
  Cu13     1.0000 0.30487  0.82203  0.58723  Biso   1.000  Cu
  Cu14     1.0000 0.17797  0.48284  0.58723  Biso   1.000  Cu
  Cu15     1.0000 0.51716  0.69513  0.58723  Biso   1.000  Cu
  Cu16     1.0000 0.82203  0.30487  0.91277  Biso   1.000  Cu
  Cu17     1.0000 0.97154  0.15536  0.92056  Biso   1.000  Cu
  Cu18     1.0000 0.84464  0.81617  0.92056  Biso   1.000  Cu
  Cu19     1.0000 0.18383  0.02846  0.92056  Biso   1.000  Cu
  Cu20     1.0000 0.48870  0.63820  0.24610  Biso   1.000  Cu
  Cu21     1.0000 0.63820  0.48870  0.25390  Biso   1.000  Cu
  Cu22     1.0000 0.15536  0.97154  0.57944  Biso   1.000  Cu
  Cu23     1.0000 0.48284  0.17797  0.91277  Biso   1.000  Cu
  Cu24     1.0000 0.69513  0.51716  0.91277  Biso   1.000  Cu
  Cu25     1.0000 0.51130  0.14951  0.25390  Biso   1.000  Cu
  Cu26     1.0000 0.85049  0.36180  0.25390  Biso   1.000  Cu
  Cu27     1.0000 0.81617  0.84464  0.57944  Biso   1.000  Cu
  Cu28     1.0000 0.02846  0.18383  0.57944  Biso   1.000  Cu
  Cu29     1.0000 0.14951  0.51130  0.24610  Biso   1.000  Cu
  Cu30     1.0000 0.36180  0.85049  0.24610  Biso   1.000  Cu
  Cu31     1.0000 0.69513  0.17797  0.41277  Biso   1.000  Cu
  Cu32     1.0000 0.82203  0.51716  0.41277  Biso   1.000  Cu
  Cu33     1.0000 0.48284  0.30487  0.41277  Biso   1.000  Cu
  Cu34     1.0000 0.17797  0.69513  0.08723  Biso   1.000  Cu
  Cu35     1.0000 0.36180  0.51130  0.74610  Biso   1.000  Cu
  Cu36     1.0000 0.48870  0.85049  0.74610  Biso   1.000  Cu
  Cu37     1.0000 0.14951  0.63820  0.74610  Biso   1.000  Cu
  Cu38     1.0000 0.84464  0.02846  0.42056  Biso   1.000  Cu
  Cu39     1.0000 0.02846  0.84464  0.07944  Biso   1.000  Cu
  Cu40     1.0000 0.51130  0.36180  0.75390  Biso   1.000  Cu
  Cu41     1.0000 0.51716  0.82203  0.08723  Biso   1.000  Cu
  Cu42     1.0000 0.30487  0.48284  0.08723  Biso   1.000  Cu
  Cu43     1.0000 0.15536  0.18383  0.07944  Biso   1.000  Cu
  Cu44     1.0000 0.81617  0.97154  0.07944  Biso   1.000  Cu
  Cu45     1.0000 0.85049  0.48870  0.75390  Biso   1.000  Cu
  Cu46     1.0000 0.63820  0.14951  0.75390  Biso   1.000  Cu
  Cu47     1.0000 0.18383  0.15536  0.42056  Biso   1.000  Cu
  Cu48     1.0000 0.97154  0.81617  0.42056  Biso   1.000  Cu
  I13      1.0000 0.12075  0.78740  0.58340  Biso   1.000  I
  I14      1.0000 0.21260  0.33335  0.58340  Biso   1.000  I
  I15      1.0000 0.66665  0.87925  0.58340  Biso   1.000  I
  I16      1.0000 0.78740  0.12075  0.91660  Biso   1.000  I
  I17      1.0000 0.87927  0.66668  0.91673  Biso   1.000  I
  I18      1.0000 0.33332  0.21258  0.91673  Biso   1.000  I
  I19      1.0000 0.45407  0.45408  0.24993  Biso   1.000  I
  I20      1.0000 0.54593  0.00002  0.25007  Biso   1.000  I
  I21      1.0000 0.99998  0.54592  0.25007  Biso   1.000  I
  I22      1.0000 0.87925  0.21260  0.41660  Biso   1.000  I
  I23      1.0000 0.78740  0.66665  0.41660  Biso   1.000  I
  I24      1.0000 0.33335  0.12075  0.41660  Biso   1.000  I
  I25      1.0000 0.21260  0.87925  0.08340  Biso   1.000  I
  I26      1.0000 0.54592  0.54593  0.74993  Biso   1.000  I
  I27      1.0000 0.45407  0.99998  0.74993  Biso   1.000  I
  I28      1.0000 0.00002  0.45408  0.74993  Biso   1.000  I
  I29      1.0000 0.66665  0.78740  0.08340  Biso   1.000  I
  I30      1.0000 0.12075  0.33335  0.08340  Biso   1.000  I
  N37      1.0000 0.39250  0.92560  0.60185  Biso   1.000  N
  N38      1.0000 0.07440  0.46690  0.60185  Biso   1.000  N
  N39      1.0000 0.53310  0.60750  0.60185  Biso   1.000  N
  N40      1.0000 0.92560  0.39250  0.89815  Biso   1.000  N
  N41      1.0000 0.05917  0.25893  0.93518  Biso   1.000  N
  N42      1.0000 0.74107  0.80023  0.93518  Biso   1.000  N
  N43      1.0000 0.19977  0.94083  0.93518  Biso   1.000  N
  N44      1.0000 0.59227  0.72583  0.23148  Biso   1.000  N
  N45      1.0000 0.72583  0.59227  0.26852  Biso   1.000  N
  N46      1.0000 0.25893  0.05917  0.56482  Biso   1.000  N
  N47      1.0000 0.46690  0.07440  0.89815  Biso   1.000  N
  N48      1.0000 0.60750  0.53310  0.89815  Biso   1.000  N
  N49      1.0000 0.40773  0.13357  0.26852  Biso   1.000  N
  N50      1.0000 0.86643  0.27417  0.26852  Biso   1.000  N
  N51      1.0000 0.80023  0.74107  0.56482  Biso   1.000  N
  N52      1.0000 0.94083  0.19977  0.56482  Biso   1.000  N
  N53      1.0000 0.13357  0.40773  0.23148  Biso   1.000  N
  N54      1.0000 0.27417  0.86643  0.23148  Biso   1.000  N
  N55      1.0000 0.60750  0.07440  0.39815  Biso   1.000  N
  N56      1.0000 0.92560  0.53310  0.39815  Biso   1.000  N
  N57      1.0000 0.46690  0.39250  0.39815  Biso   1.000  N
  N58      1.0000 0.07440  0.60750  0.10185  Biso   1.000  N
  N59      1.0000 0.27417  0.40773  0.73148  Biso   1.000  N
  N60      1.0000 0.59227  0.86643  0.73148  Biso   1.000  N
  N61      1.0000 0.13357  0.72583  0.73148  Biso   1.000  N
  N62      1.0000 0.74107  0.94083  0.43518  Biso   1.000  N
  N63      1.0000 0.94083  0.74107  0.06482  Biso   1.000  N
  N64      1.0000 0.40773  0.27417  0.76852  Biso   1.000  N
  N65      1.0000 0.53310  0.92560  0.10185  Biso   1.000  N
  N66      1.0000 0.39250  0.46690  0.10185  Biso   1.000  N
  N67      1.0000 0.25893  0.19977  0.06482  Biso   1.000  N
  N68      1.0000 0.80023  0.05917  0.06482  Biso   1.000  N
  N69      1.0000 0.86643  0.59227  0.76852  Biso   1.000  N
  N70      1.0000 0.72583  0.13357  0.76852  Biso   1.000  N
  N71      1.0000 0.19977  0.25893  0.43518  Biso   1.000  N
  N72      1.0000 0.05917  0.80023  0.43518  Biso   1.000  N
  N73      1.0000 0.35680  0.84360  0.56677  Biso   1.000  N
  N74      1.0000 0.15640  0.51320  0.56677  Biso   1.000  N
  N75      1.0000 0.48680  0.64320  0.56677  Biso   1.000  N
  N76      1.0000 0.84360  0.35680  0.93323  Biso   1.000  N
  N77      1.0000 0.02347  0.17693  0.90010  Biso   1.000  N
  N78      1.0000 0.82307  0.84653  0.90010  Biso   1.000  N
  N79      1.0000 0.15347  0.97653  0.90010  Biso   1.000  N
  N80      1.0000 0.51027  0.69013  0.26656  Biso   1.000  N
  N81      1.0000 0.69013  0.51027  0.23344  Biso   1.000  N
  N82      1.0000 0.17693  0.02347  0.59990  Biso   1.000  N
  N83      1.0000 0.51320  0.15640  0.93323  Biso   1.000  N
  N84      1.0000 0.64320  0.48680  0.93323  Biso   1.000  N
  N85      1.0000 0.48973  0.17987  0.23344  Biso   1.000  N
  N86      1.0000 0.82013  0.30987  0.23344  Biso   1.000  N
  N87      1.0000 0.84653  0.82307  0.59990  Biso   1.000  N
  N88      1.0000 0.97653  0.15347  0.59990  Biso   1.000  N
  N89      1.0000 0.17987  0.48973  0.26656  Biso   1.000  N
  N90      1.0000 0.30987  0.82013  0.26656  Biso   1.000  N
  N91      1.0000 0.64320  0.15640  0.43323  Biso   1.000  N
  N92      1.0000 0.84360  0.48680  0.43323  Biso   1.000  N
  N93      1.0000 0.51320  0.35680  0.43323  Biso   1.000  N
  N94      1.0000 0.15640  0.64320  0.06677  Biso   1.000  N
  N95      1.0000 0.30987  0.48973  0.76656  Biso   1.000  N
  N96      1.0000 0.51027  0.82013  0.76656  Biso   1.000  N
  N97      1.0000 0.17987  0.69013  0.76656  Biso   1.000  N
  N98      1.0000 0.82307  0.97653  0.40010  Biso   1.000  N
  N99      1.0000 0.97653  0.82307  0.09990  Biso   1.000  N
  N100     1.0000 0.48973  0.30987  0.73344  Biso   1.000  N
  N101     1.0000 0.48680  0.84360  0.06677  Biso   1.000  N
  N102     1.0000 0.35680  0.51320  0.06677  Biso   1.000  N
  N103     1.0000 0.17693  0.15347  0.09990  Biso   1.000  N
  N104     1.0000 0.84653  0.02347  0.09990  Biso   1.000  N
  N105     1.0000 0.82013  0.51027  0.73344  Biso   1.000  N
  N106     1.0000 0.69013  0.17987  0.73344  Biso   1.000  N
  N107     1.0000 0.15347  0.17693  0.40010  Biso   1.000  N
  N108     1.0000 0.02347  0.84653  0.40010  Biso   1.000  N
  C217     1.0000 0.35790  0.95720  0.61256  Biso   1.000  C
  C218     1.0000 0.04280  0.40070  0.61256  Biso   1.000  C
  C219     1.0000 0.59930  0.64210  0.61256  Biso   1.000  C
  C220     1.0000 0.95720  0.35790  0.88744  Biso   1.000  C
  C221     1.0000 0.02457  0.29053  0.94589  Biso   1.000  C
  C222     1.0000 0.70947  0.73403  0.94589  Biso   1.000  C
  C223     1.0000 0.26597  0.97543  0.94589  Biso   1.000  C
  C224     1.0000 0.62387  0.69123  0.22077  Biso   1.000  C
  C225     1.0000 0.69123  0.62387  0.27923  Biso   1.000  C
  C226     1.0000 0.29053  0.02457  0.55411  Biso   1.000  C
  C227     1.0000 0.40070  0.04280  0.88744  Biso   1.000  C
  C228     1.0000 0.64210  0.59930  0.88744  Biso   1.000  C
  C229     1.0000 0.37613  0.06737  0.27923  Biso   1.000  C
  C230     1.0000 0.93263  0.30877  0.27923  Biso   1.000  C
  C231     1.0000 0.73403  0.70947  0.55411  Biso   1.000  C
  C232     1.0000 0.97543  0.26597  0.55411  Biso   1.000  C
  C233     1.0000 0.06737  0.37613  0.22077  Biso   1.000  C
  C234     1.0000 0.30877  0.93263  0.22077  Biso   1.000  C
  C235     1.0000 0.64210  0.04280  0.38744  Biso   1.000  C
  C236     1.0000 0.95720  0.59930  0.38744  Biso   1.000  C
  C237     1.0000 0.40070  0.35790  0.38744  Biso   1.000  C
  C238     1.0000 0.04280  0.64210  0.11256  Biso   1.000  C
  C239     1.0000 0.30877  0.37613  0.72077  Biso   1.000  C
  C240     1.0000 0.62387  0.93263  0.72077  Biso   1.000  C
  C241     1.0000 0.06737  0.69123  0.72077  Biso   1.000  C
  C242     1.0000 0.70947  0.97543  0.44589  Biso   1.000  C
  C243     1.0000 0.97543  0.70947  0.05411  Biso   1.000  C
  C244     1.0000 0.37613  0.30877  0.77923  Biso   1.000  C
  C245     1.0000 0.59930  0.95720  0.11256  Biso   1.000  C
  C246     1.0000 0.35790  0.40070  0.11256  Biso   1.000  C
  C247     1.0000 0.29053  0.26597  0.05411  Biso   1.000  C
  C248     1.0000 0.73403  0.02457  0.05411  Biso   1.000  C
  C249     1.0000 0.93263  0.62387  0.77923  Biso   1.000  C
  C250     1.0000 0.69123  0.06737  0.77923  Biso   1.000  C
  C251     1.0000 0.26597  0.29053  0.44589  Biso   1.000  C
  C252     1.0000 0.02457  0.73403  0.44589  Biso   1.000  C
  C253     1.0000 0.49120  0.96060  0.60138  Biso   1.000  C
  C254     1.0000 0.03940  0.53060  0.60138  Biso   1.000  C
  C255     1.0000 0.46940  0.50880  0.60138  Biso   1.000  C
  C256     1.0000 0.96060  0.49120  0.89862  Biso   1.000  C
  C257     1.0000 0.15787  0.29393  0.93471  Biso   1.000  C
  C258     1.0000 0.70607  0.86393  0.93471  Biso   1.000  C
  C259     1.0000 0.13607  0.84213  0.93471  Biso   1.000  C
  C260     1.0000 0.62727  0.82453  0.23195  Biso   1.000  C
  C261     1.0000 0.82453  0.62727  0.26805  Biso   1.000  C
  C262     1.0000 0.29393  0.15787  0.56529  Biso   1.000  C
  C263     1.0000 0.53060  0.03940  0.89862  Biso   1.000  C
  C264     1.0000 0.50880  0.46940  0.89862  Biso   1.000  C
  C265     1.0000 0.37273  0.19727  0.26805  Biso   1.000  C
  C266     1.0000 0.80273  0.17547  0.26805  Biso   1.000  C
  C267     1.0000 0.86393  0.70607  0.56529  Biso   1.000  C
  C268     1.0000 0.84213  0.13607  0.56529  Biso   1.000  C
  C269     1.0000 0.19727  0.37273  0.23195  Biso   1.000  C
  C270     1.0000 0.17547  0.80273  0.23195  Biso   1.000  C
  C271     1.0000 0.50880  0.03940  0.39862  Biso   1.000  C
  C272     1.0000 0.96060  0.46940  0.39862  Biso   1.000  C
  C273     1.0000 0.53060  0.49120  0.39862  Biso   1.000  C
  C274     1.0000 0.03940  0.50880  0.10138  Biso   1.000  C
  C275     1.0000 0.17547  0.37273  0.73195  Biso   1.000  C
  C276     1.0000 0.62727  0.80273  0.73195  Biso   1.000  C
  C277     1.0000 0.19727  0.82453  0.73195  Biso   1.000  C
  C278     1.0000 0.70607  0.84213  0.43471  Biso   1.000  C
  C279     1.0000 0.84213  0.70607  0.06529  Biso   1.000  C
  C280     1.0000 0.37273  0.17547  0.76805  Biso   1.000  C
  C281     1.0000 0.46940  0.96060  0.10138  Biso   1.000  C
  C282     1.0000 0.49120  0.53060  0.10138  Biso   1.000  C
  C283     1.0000 0.29393  0.13607  0.06529  Biso   1.000  C
  C284     1.0000 0.86393  0.15787  0.06529  Biso   1.000  C
  C285     1.0000 0.80273  0.62727  0.76805  Biso   1.000  C
  C286     1.0000 0.82453  0.19727  0.76805  Biso   1.000  C
  C287     1.0000 0.13607  0.29393  0.43471  Biso   1.000  C
  C288     1.0000 0.15787  0.86393  0.43471  Biso   1.000  C
  C289     1.0000 0.44140  0.92680  0.56244  Biso   1.000  C
  C290     1.0000 0.07320  0.51460  0.56244  Biso   1.000  C
  C291     1.0000 0.48540  0.55860  0.56244  Biso   1.000  C
  C292     1.0000 0.92680  0.44140  0.93756  Biso   1.000  C
  C293     1.0000 0.10807  0.26013  0.89577  Biso   1.000  C
  C294     1.0000 0.73987  0.84793  0.89577  Biso   1.000  C
  C295     1.0000 0.15207  0.89193  0.89577  Biso   1.000  C
  C296     1.0000 0.59347  0.77473  0.27089  Biso   1.000  C
  C297     1.0000 0.77473  0.59347  0.22911  Biso   1.000  C
  C298     1.0000 0.26013  0.10807  0.60423  Biso   1.000  C
  C299     1.0000 0.51460  0.07320  0.93756  Biso   1.000  C
  C300     1.0000 0.55860  0.48540  0.93756  Biso   1.000  C
  C301     1.0000 0.40653  0.18127  0.22911  Biso   1.000  C
  C302     1.0000 0.81873  0.22527  0.22911  Biso   1.000  C
  C303     1.0000 0.84793  0.73987  0.60423  Biso   1.000  C
  C304     1.0000 0.89193  0.15207  0.60423  Biso   1.000  C
  C305     1.0000 0.18127  0.40653  0.27089  Biso   1.000  C
  C306     1.0000 0.22527  0.81873  0.27089  Biso   1.000  C
  C307     1.0000 0.55860  0.07320  0.43756  Biso   1.000  C
  C308     1.0000 0.92680  0.48540  0.43756  Biso   1.000  C
  C309     1.0000 0.51460  0.44140  0.43756  Biso   1.000  C
  C310     1.0000 0.07320  0.55860  0.06244  Biso   1.000  C
  C311     1.0000 0.22527  0.40653  0.77089  Biso   1.000  C
  C312     1.0000 0.59347  0.81873  0.77089  Biso   1.000  C
  C313     1.0000 0.18127  0.77473  0.77089  Biso   1.000  C
  C314     1.0000 0.73987  0.89193  0.39577  Biso   1.000  C
  C315     1.0000 0.89193  0.73987  0.10423  Biso   1.000  C
  C316     1.0000 0.40653  0.22527  0.72911  Biso   1.000  C
  C317     1.0000 0.48540  0.92680  0.06244  Biso   1.000  C
  C318     1.0000 0.44140  0.51460  0.06244  Biso   1.000  C
  C319     1.0000 0.26013  0.15207  0.10423  Biso   1.000  C
  C320     1.0000 0.84793  0.10807  0.10423  Biso   1.000  C
  C321     1.0000 0.81873  0.59347  0.72911  Biso   1.000  C
  C322     1.0000 0.77473  0.18127  0.72911  Biso   1.000  C
  C323     1.0000 0.15207  0.26013  0.39577  Biso   1.000  C
  C324     1.0000 0.10807  0.84793  0.39577  Biso   1.000  C
  C325     1.0000 0.29810  0.78100  0.55648  Biso   1.000  C
  C326     1.0000 0.21900  0.51710  0.55648  Biso   1.000  C
  C327     1.0000 0.48290  0.70190  0.55648  Biso   1.000  C
  C328     1.0000 0.78100  0.29810  0.94352  Biso   1.000  C
  C329     1.0000 0.96477  0.11433  0.88981  Biso   1.000  C
  C330     1.0000 0.88567  0.85043  0.88981  Biso   1.000  C
  C331     1.0000 0.14957  0.03523  0.88981  Biso   1.000  C
  C332     1.0000 0.44767  0.63143  0.27685  Biso   1.000  C
  C333     1.0000 0.63143  0.44767  0.22315  Biso   1.000  C
  C334     1.0000 0.11433  0.96477  0.61019  Biso   1.000  C
  C335     1.0000 0.51710  0.21900  0.94352  Biso   1.000  C
  C336     1.0000 0.70190  0.48290  0.94352  Biso   1.000  C
  C337     1.0000 0.55233  0.18377  0.22315  Biso   1.000  C
  C338     1.0000 0.81623  0.36857  0.22315  Biso   1.000  C
  C339     1.0000 0.85043  0.88567  0.61019  Biso   1.000  C
  C340     1.0000 0.03523  0.14957  0.61019  Biso   1.000  C
  C341     1.0000 0.18377  0.55233  0.27685  Biso   1.000  C
  C342     1.0000 0.36857  0.81623  0.27685  Biso   1.000  C
  C343     1.0000 0.70190  0.21900  0.44352  Biso   1.000  C
  C344     1.0000 0.78100  0.48290  0.44352  Biso   1.000  C
  C345     1.0000 0.51710  0.29810  0.44352  Biso   1.000  C
  C346     1.0000 0.21900  0.70190  0.05648  Biso   1.000  C
  C347     1.0000 0.36857  0.55233  0.77685  Biso   1.000  C
  C348     1.0000 0.44767  0.81623  0.77685  Biso   1.000  C
  C349     1.0000 0.18377  0.63143  0.77685  Biso   1.000  C
  C350     1.0000 0.88567  0.03523  0.38981  Biso   1.000  C
  C351     1.0000 0.03523  0.88567  0.11019  Biso   1.000  C
  C352     1.0000 0.55233  0.36857  0.72315  Biso   1.000  C
  C353     1.0000 0.48290  0.78100  0.05648  Biso   1.000  C
  C354     1.0000 0.29810  0.51710  0.05648  Biso   1.000  C
  C355     1.0000 0.11433  0.14957  0.11019  Biso   1.000  C
  C356     1.0000 0.85043  0.96477  0.11019  Biso   1.000  C
  C357     1.0000 0.81623  0.44767  0.72315  Biso   1.000  C
  C358     1.0000 0.63143  0.18377  0.72315  Biso   1.000  C
  C359     1.0000 0.14957  0.11433  0.38981  Biso   1.000  C
  C360     1.0000 0.96477  0.85043  0.38981  Biso   1.000  C
  C361     1.0000 0.41960  0.02620  0.62257  Biso   1.000  C
  C362     1.0000 0.97380  0.39340  0.62257  Biso   1.000  C
  C363     1.0000 0.60660  0.58040  0.62257  Biso   1.000  C
  C364     1.0000 0.02620  0.41960  0.87743  Biso   1.000  C
  C365     1.0000 0.08627  0.35953  0.95590  Biso   1.000  C
  C366     1.0000 0.64047  0.72673  0.95590  Biso   1.000  C
  C367     1.0000 0.27327  0.91373  0.95590  Biso   1.000  C
  C368     1.0000 0.69287  0.75293  0.21076  Biso   1.000  C
  C369     1.0000 0.75293  0.69287  0.28924  Biso   1.000  C
  C370     1.0000 0.35953  0.08627  0.54410  Biso   1.000  C
  C371     1.0000 0.39340  0.97380  0.87743  Biso   1.000  C
  C372     1.0000 0.58040  0.60660  0.87743  Biso   1.000  C
  C373     1.0000 0.30713  0.06007  0.28924  Biso   1.000  C
  C374     1.0000 0.93993  0.24707  0.28924  Biso   1.000  C
  C375     1.0000 0.72673  0.64047  0.54410  Biso   1.000  C
  C376     1.0000 0.91373  0.27327  0.54410  Biso   1.000  C
  C377     1.0000 0.06007  0.30713  0.21076  Biso   1.000  C
  C378     1.0000 0.24707  0.93993  0.21076  Biso   1.000  C
  C379     1.0000 0.58040  0.97380  0.37743  Biso   1.000  C
  C380     1.0000 0.02620  0.60660  0.37743  Biso   1.000  C
  C381     1.0000 0.39340  0.41960  0.37743  Biso   1.000  C
  C382     1.0000 0.97380  0.58040  0.12257  Biso   1.000  C
  C383     1.0000 0.24707  0.30713  0.71076  Biso   1.000  C
  C384     1.0000 0.69287  0.93993  0.71076  Biso   1.000  C
  C385     1.0000 0.06007  0.75293  0.71076  Biso   1.000  C
  C386     1.0000 0.64047  0.91373  0.45590  Biso   1.000  C
  C387     1.0000 0.91373  0.64047  0.04410  Biso   1.000  C
  C388     1.0000 0.30713  0.24707  0.78924  Biso   1.000  C
  C389     1.0000 0.60660  0.02620  0.12257  Biso   1.000  C
  C390     1.0000 0.41960  0.39340  0.12257  Biso   1.000  C
  C391     1.0000 0.35953  0.27327  0.04410  Biso   1.000  C
  C392     1.0000 0.72673  0.08627  0.04410  Biso   1.000  C
  C393     1.0000 0.93993  0.69287  0.78924  Biso   1.000  C
  C394     1.0000 0.75293  0.06007  0.78924  Biso   1.000  C
  C395     1.0000 0.27327  0.35953  0.45590  Biso   1.000  C
  C396     1.0000 0.08627  0.72673  0.45590  Biso   1.000  C
  H145     1.0000 0.28880  0.93130  0.61330  Biso   1.000  H
  H146     1.0000 0.06870  0.35750  0.61330  Biso   1.000  H
  H147     1.0000 0.64250  0.71120  0.61330  Biso   1.000  H
  H148     1.0000 0.93130  0.28880  0.88670  Biso   1.000  H
  H149     1.0000 0.95547  0.26463  0.94663  Biso   1.000  H
  H150     1.0000 0.73537  0.69083  0.94663  Biso   1.000  H
  H151     1.0000 0.30917  0.04453  0.94663  Biso   1.000  H
  H152     1.0000 0.59797  0.62213  0.22003  Biso   1.000  H
  H153     1.0000 0.62213  0.59797  0.27997  Biso   1.000  H
  H154     1.0000 0.26463  0.95547  0.55337  Biso   1.000  H
  H155     1.0000 0.35750  0.06870  0.88670  Biso   1.000  H
  H156     1.0000 0.71120  0.64250  0.88670  Biso   1.000  H
  H157     1.0000 0.40203  0.02417  0.27997  Biso   1.000  H
  H158     1.0000 0.97583  0.37787  0.27997  Biso   1.000  H
  H159     1.0000 0.69083  0.73537  0.55337  Biso   1.000  H
  H160     1.0000 0.04453  0.30917  0.55337  Biso   1.000  H
  H161     1.0000 0.02417  0.40203  0.22003  Biso   1.000  H
  H162     1.0000 0.37787  0.97583  0.22003  Biso   1.000  H
  H163     1.0000 0.71120  0.06870  0.38670  Biso   1.000  H
  H164     1.0000 0.93130  0.64250  0.38670  Biso   1.000  H
  H165     1.0000 0.35750  0.28880  0.38670  Biso   1.000  H
  H166     1.0000 0.06870  0.71120  0.11330  Biso   1.000  H
  H167     1.0000 0.37787  0.40203  0.72003  Biso   1.000  H
  H168     1.0000 0.59797  0.97583  0.72003  Biso   1.000  H
  H169     1.0000 0.02417  0.62213  0.72003  Biso   1.000  H
  H170     1.0000 0.73537  0.04453  0.44663  Biso   1.000  H
  H171     1.0000 0.04453  0.73537  0.05337  Biso   1.000  H
  H172     1.0000 0.40203  0.37787  0.77997  Biso   1.000  H
  H173     1.0000 0.64250  0.93130  0.11330  Biso   1.000  H
  H174     1.0000 0.28880  0.35750  0.11330  Biso   1.000  H
  H175     1.0000 0.26463  0.30917  0.05337  Biso   1.000  H
  H176     1.0000 0.69083  0.95547  0.05337  Biso   1.000  H
  H177     1.0000 0.97583  0.59797  0.77997  Biso   1.000  H
  H178     1.0000 0.62213  0.02417  0.77997  Biso   1.000  H
  H179     1.0000 0.30917  0.26463  0.44663  Biso   1.000  H
  H180     1.0000 0.95547  0.69083  0.44663  Biso   1.000  H
  H181     1.0000 0.51620  0.93660  0.59430  Biso   1.000  H
  H182     1.0000 0.06340  0.57960  0.59430  Biso   1.000  H
  H183     1.0000 0.42040  0.48380  0.59430  Biso   1.000  H
  H184     1.0000 0.93660  0.51620  0.90570  Biso   1.000  H
  H185     1.0000 0.18287  0.26993  0.92763  Biso   1.000  H
  H186     1.0000 0.73007  0.91293  0.92763  Biso   1.000  H
  H187     1.0000 0.08707  0.81713  0.92763  Biso   1.000  H
  H188     1.0000 0.60327  0.84953  0.23903  Biso   1.000  H
  H189     1.0000 0.84953  0.60327  0.26097  Biso   1.000  H
  H190     1.0000 0.26993  0.18287  0.57237  Biso   1.000  H
  H191     1.0000 0.57960  0.06340  0.90570  Biso   1.000  H
  H192     1.0000 0.48380  0.42040  0.90570  Biso   1.000  H
  H193     1.0000 0.39673  0.24627  0.26097  Biso   1.000  H
  H194     1.0000 0.75373  0.15047  0.26097  Biso   1.000  H
  H195     1.0000 0.91293  0.73007  0.57237  Biso   1.000  H
  H196     1.0000 0.81713  0.08707  0.57237  Biso   1.000  H
  H197     1.0000 0.24627  0.39673  0.23903  Biso   1.000  H
  H198     1.0000 0.15047  0.75373  0.23903  Biso   1.000  H
  H199     1.0000 0.48380  0.06340  0.40570  Biso   1.000  H
  H200     1.0000 0.93660  0.42040  0.40570  Biso   1.000  H
  H201     1.0000 0.57960  0.51620  0.40570  Biso   1.000  H
  H202     1.0000 0.06340  0.48380  0.09430  Biso   1.000  H
  H203     1.0000 0.15047  0.39673  0.73903  Biso   1.000  H
  H204     1.0000 0.60327  0.75373  0.73903  Biso   1.000  H
  H205     1.0000 0.24627  0.84953  0.73903  Biso   1.000  H
  H206     1.0000 0.73007  0.81713  0.42763  Biso   1.000  H
  H207     1.0000 0.81713  0.73007  0.07237  Biso   1.000  H
  H208     1.0000 0.39673  0.15047  0.76097  Biso   1.000  H
  H209     1.0000 0.42040  0.93660  0.09430  Biso   1.000  H
  H210     1.0000 0.51620  0.57960  0.09430  Biso   1.000  H
  H211     1.0000 0.26993  0.08707  0.07237  Biso   1.000  H
  H212     1.0000 0.91293  0.18287  0.07237  Biso   1.000  H
  H213     1.0000 0.75373  0.60327  0.76097  Biso   1.000  H
  H214     1.0000 0.84953  0.24627  0.76097  Biso   1.000  H
  H215     1.0000 0.08707  0.26993  0.42763  Biso   1.000  H
  H216     1.0000 0.18287  0.91293  0.42763  Biso   1.000  H
  C397     1.0000 0.55790  0.03040  0.61080  Biso   1.000  C
  C398     1.0000 0.96960  0.52750  0.61080  Biso   1.000  C
  C399     1.0000 0.47250  0.44210  0.61080  Biso   1.000  C
  C400     1.0000 0.03040  0.55790  0.88920  Biso   1.000  C
  C401     1.0000 0.22457  0.36373  0.94413  Biso   1.000  C
  C402     1.0000 0.63627  0.86083  0.94413  Biso   1.000  C
  C403     1.0000 0.13917  0.77543  0.94413  Biso   1.000  C
  C404     1.0000 0.69707  0.89123  0.22253  Biso   1.000  C
  C405     1.0000 0.89123  0.69707  0.27747  Biso   1.000  C
  C406     1.0000 0.36373  0.22457  0.55587  Biso   1.000  C
  C407     1.0000 0.52750  0.96960  0.88920  Biso   1.000  C
  C408     1.0000 0.44210  0.47250  0.88920  Biso   1.000  C
  C409     1.0000 0.30293  0.19417  0.27747  Biso   1.000  C
  C410     1.0000 0.80583  0.10877  0.27747  Biso   1.000  C
  C411     1.0000 0.86083  0.63627  0.55587  Biso   1.000  C
  C412     1.0000 0.77543  0.13917  0.55587  Biso   1.000  C
  C413     1.0000 0.19417  0.30293  0.22253  Biso   1.000  C
  C414     1.0000 0.10877  0.80583  0.22253  Biso   1.000  C
  C415     1.0000 0.44210  0.96960  0.38920  Biso   1.000  C
  C416     1.0000 0.03040  0.47250  0.38920  Biso   1.000  C
  C417     1.0000 0.52750  0.55790  0.38920  Biso   1.000  C
  C418     1.0000 0.96960  0.44210  0.11080  Biso   1.000  C
  C419     1.0000 0.10877  0.30293  0.72253  Biso   1.000  C
  C420     1.0000 0.69707  0.80583  0.72253  Biso   1.000  C
  C421     1.0000 0.19417  0.89123  0.72253  Biso   1.000  C
  C422     1.0000 0.63627  0.77543  0.44413  Biso   1.000  C
  C423     1.0000 0.77543  0.63627  0.05587  Biso   1.000  C
  C424     1.0000 0.30293  0.10877  0.77747  Biso   1.000  C
  C425     1.0000 0.47250  0.03040  0.11080  Biso   1.000  C
  C426     1.0000 0.55790  0.52750  0.11080  Biso   1.000  C
  C427     1.0000 0.36373  0.13917  0.05587  Biso   1.000  C
  C428     1.0000 0.86083  0.22457  0.05587  Biso   1.000  C
  C429     1.0000 0.80583  0.69707  0.77747  Biso   1.000  C
  C430     1.0000 0.89123  0.19417  0.77747  Biso   1.000  C
  C431     1.0000 0.13917  0.36373  0.44413  Biso   1.000  C
  C432     1.0000 0.22457  0.86083  0.44413  Biso   1.000  C
  C433     1.0000 0.46900  0.94910  0.54813  Biso   1.000  C
  C434     1.0000 0.05090  0.51990  0.54813  Biso   1.000  C
  C435     1.0000 0.48010  0.53100  0.54813  Biso   1.000  C
  C436     1.0000 0.94910  0.46900  0.95187  Biso   1.000  C
  C437     1.0000 0.13567  0.28243  0.88146  Biso   1.000  C
  C438     1.0000 0.71757  0.85323  0.88146  Biso   1.000  C
  C439     1.0000 0.14677  0.86433  0.88146  Biso   1.000  C
  C440     1.0000 0.61577  0.80233  0.28520  Biso   1.000  C
  C441     1.0000 0.80233  0.61577  0.21480  Biso   1.000  C
  C442     1.0000 0.28243  0.13567  0.61854  Biso   1.000  C
  C443     1.0000 0.51990  0.05090  0.95187  Biso   1.000  C
  C444     1.0000 0.53100  0.48010  0.95187  Biso   1.000  C
  C445     1.0000 0.38423  0.18657  0.21480  Biso   1.000  C
  C446     1.0000 0.81343  0.19767  0.21480  Biso   1.000  C
  C447     1.0000 0.85323  0.71757  0.61854  Biso   1.000  C
  C448     1.0000 0.86433  0.14677  0.61854  Biso   1.000  C
  C449     1.0000 0.18657  0.38423  0.28520  Biso   1.000  C
  C450     1.0000 0.19767  0.81343  0.28520  Biso   1.000  C
  C451     1.0000 0.53100  0.05090  0.45187  Biso   1.000  C
  C452     1.0000 0.94910  0.48010  0.45187  Biso   1.000  C
  C453     1.0000 0.51990  0.46900  0.45187  Biso   1.000  C
  C454     1.0000 0.05090  0.53100  0.04813  Biso   1.000  C
  C455     1.0000 0.19767  0.38423  0.78520  Biso   1.000  C
  C456     1.0000 0.61577  0.81343  0.78520  Biso   1.000  C
  C457     1.0000 0.18657  0.80233  0.78520  Biso   1.000  C
  C458     1.0000 0.71757  0.86433  0.38146  Biso   1.000  C
  C459     1.0000 0.86433  0.71757  0.11854  Biso   1.000  C
  C460     1.0000 0.38423  0.19767  0.71480  Biso   1.000  C
  C461     1.0000 0.48010  0.94910  0.04813  Biso   1.000  C
  C462     1.0000 0.46900  0.51990  0.04813  Biso   1.000  C
  C463     1.0000 0.28243  0.14677  0.11854  Biso   1.000  C
  C464     1.0000 0.85323  0.13567  0.11854  Biso   1.000  C
  C465     1.0000 0.81343  0.61577  0.71480  Biso   1.000  C
  C466     1.0000 0.80233  0.18657  0.71480  Biso   1.000  C
  C467     1.0000 0.14677  0.28243  0.38146  Biso   1.000  C
  C468     1.0000 0.13567  0.85323  0.38146  Biso   1.000  C
  H217     1.0000 0.48350  0.97180  0.56940  Biso   1.000  H
  H218     1.0000 0.02820  0.51170  0.56940  Biso   1.000  H
  H219     1.0000 0.48830  0.51650  0.56940  Biso   1.000  H
  H220     1.0000 0.97180  0.48350  0.93060  Biso   1.000  H
  H221     1.0000 0.15017  0.30513  0.90273  Biso   1.000  H
  H222     1.0000 0.69487  0.84503  0.90273  Biso   1.000  H
  H223     1.0000 0.15497  0.84983  0.90273  Biso   1.000  H
  H224     1.0000 0.63847  0.81683  0.26393  Biso   1.000  H
  H225     1.0000 0.81683  0.63847  0.23607  Biso   1.000  H
  H226     1.0000 0.30513  0.15017  0.59727  Biso   1.000  H
  H227     1.0000 0.51170  0.02820  0.93060  Biso   1.000  H
  H228     1.0000 0.51650  0.48830  0.93060  Biso   1.000  H
  H229     1.0000 0.36153  0.17837  0.23607  Biso   1.000  H
  H230     1.0000 0.82163  0.18317  0.23607  Biso   1.000  H
  H231     1.0000 0.84503  0.69487  0.59727  Biso   1.000  H
  H232     1.0000 0.84983  0.15497  0.59727  Biso   1.000  H
  H233     1.0000 0.17837  0.36153  0.26393  Biso   1.000  H
  H234     1.0000 0.18317  0.82163  0.26393  Biso   1.000  H
  H235     1.0000 0.51650  0.02820  0.43060  Biso   1.000  H
  H236     1.0000 0.97180  0.48830  0.43060  Biso   1.000  H
  H237     1.0000 0.51170  0.48350  0.43060  Biso   1.000  H
  H238     1.0000 0.02820  0.51650  0.06940  Biso   1.000  H
  H239     1.0000 0.18317  0.36153  0.76393  Biso   1.000  H
  H240     1.0000 0.63847  0.82163  0.76393  Biso   1.000  H
  H241     1.0000 0.17837  0.81683  0.76393  Biso   1.000  H
  H242     1.0000 0.69487  0.84983  0.40273  Biso   1.000  H
  H243     1.0000 0.84983  0.69487  0.09727  Biso   1.000  H
  H244     1.0000 0.36153  0.18317  0.73607  Biso   1.000  H
  H245     1.0000 0.48830  0.97180  0.06940  Biso   1.000  H
  H246     1.0000 0.48350  0.51170  0.06940  Biso   1.000  H
  H247     1.0000 0.30513  0.15497  0.09727  Biso   1.000  H
  H248     1.0000 0.84503  0.15017  0.09727  Biso   1.000  H
  H249     1.0000 0.82163  0.63847  0.73607  Biso   1.000  H
  H250     1.0000 0.81683  0.17837  0.73607  Biso   1.000  H
  H251     1.0000 0.15497  0.30513  0.40273  Biso   1.000  H
  H252     1.0000 0.15017  0.84503  0.40273  Biso   1.000  H
  H253     1.0000 0.23900  0.72350  0.55920  Biso   1.000  H
  H254     1.0000 0.27650  0.51550  0.55920  Biso   1.000  H
  H255     1.0000 0.48450  0.76100  0.55920  Biso   1.000  H
  H256     1.0000 0.72350  0.23900  0.94080  Biso   1.000  H
  H257     1.0000 0.90567  0.05683  0.89253  Biso   1.000  H
  H258     1.0000 0.94317  0.84883  0.89253  Biso   1.000  H
  H259     1.0000 0.15117  0.09433  0.89253  Biso   1.000  H
  H260     1.0000 0.39017  0.57233  0.27413  Biso   1.000  H
  H261     1.0000 0.57233  0.39017  0.22587  Biso   1.000  H
  H262     1.0000 0.05683  0.90567  0.60747  Biso   1.000  H
  H263     1.0000 0.51550  0.27650  0.94080  Biso   1.000  H
  H264     1.0000 0.76100  0.48450  0.94080  Biso   1.000  H
  H265     1.0000 0.60983  0.18217  0.22587  Biso   1.000  H
  H266     1.0000 0.81783  0.42767  0.22587  Biso   1.000  H
  H267     1.0000 0.84883  0.94317  0.60747  Biso   1.000  H
  H268     1.0000 0.09433  0.15117  0.60747  Biso   1.000  H
  H269     1.0000 0.18217  0.60983  0.27413  Biso   1.000  H
  H270     1.0000 0.42767  0.81783  0.27413  Biso   1.000  H
  H271     1.0000 0.76100  0.27650  0.44080  Biso   1.000  H
  H272     1.0000 0.72350  0.48450  0.44080  Biso   1.000  H
  H273     1.0000 0.51550  0.23900  0.44080  Biso   1.000  H
  H274     1.0000 0.27650  0.76100  0.05920  Biso   1.000  H
  H275     1.0000 0.42767  0.60983  0.77413  Biso   1.000  H
  H276     1.0000 0.39017  0.81783  0.77413  Biso   1.000  H
  H277     1.0000 0.18217  0.57233  0.77413  Biso   1.000  H
  H278     1.0000 0.94317  0.09433  0.39253  Biso   1.000  H
  H279     1.0000 0.09433  0.94317  0.10747  Biso   1.000  H
  H280     1.0000 0.60983  0.42767  0.72587  Biso   1.000  H
  H281     1.0000 0.48450  0.72350  0.05920  Biso   1.000  H
  H282     1.0000 0.23900  0.51550  0.05920  Biso   1.000  H
  H283     1.0000 0.05683  0.15117  0.10747  Biso   1.000  H
  H284     1.0000 0.84883  0.90567  0.10747  Biso   1.000  H
  H285     1.0000 0.81783  0.39017  0.72587  Biso   1.000  H
  H286     1.0000 0.57233  0.18217  0.72587  Biso   1.000  H
  H287     1.0000 0.15117  0.05683  0.39253  Biso   1.000  H
  H288     1.0000 0.90567  0.84883  0.39253  Biso   1.000  H
  C469     1.0000 0.32000  0.79650  0.54218  Biso   1.000  C
  C470     1.0000 0.20350  0.52350  0.54218  Biso   1.000  C
  C471     1.0000 0.47650  0.68000  0.54218  Biso   1.000  C
  C472     1.0000 0.79650  0.32000  0.95782  Biso   1.000  C
  C473     1.0000 0.98667  0.12983  0.87551  Biso   1.000  C
  C474     1.0000 0.87017  0.85683  0.87551  Biso   1.000  C
  C475     1.0000 0.14317  0.01333  0.87551  Biso   1.000  C
  C476     1.0000 0.46317  0.65333  0.29115  Biso   1.000  C
  C477     1.0000 0.65333  0.46317  0.20885  Biso   1.000  C
  C478     1.0000 0.12983  0.98667  0.62449  Biso   1.000  C
  C479     1.0000 0.52350  0.20350  0.95782  Biso   1.000  C
  C480     1.0000 0.68000  0.47650  0.95782  Biso   1.000  C
  C481     1.0000 0.53683  0.19017  0.20885  Biso   1.000  C
  C482     1.0000 0.80983  0.34667  0.20885  Biso   1.000  C
  C483     1.0000 0.85683  0.87017  0.62449  Biso   1.000  C
  C484     1.0000 0.01333  0.14317  0.62449  Biso   1.000  C
  C485     1.0000 0.19017  0.53683  0.29115  Biso   1.000  C
  C486     1.0000 0.34667  0.80983  0.29115  Biso   1.000  C
  C487     1.0000 0.68000  0.20350  0.45782  Biso   1.000  C
  C488     1.0000 0.79650  0.47650  0.45782  Biso   1.000  C
  C489     1.0000 0.52350  0.32000  0.45782  Biso   1.000  C
  C490     1.0000 0.20350  0.68000  0.04218  Biso   1.000  C
  C491     1.0000 0.34667  0.53683  0.79115  Biso   1.000  C
  C492     1.0000 0.46317  0.80983  0.79115  Biso   1.000  C
  C493     1.0000 0.19017  0.65333  0.79115  Biso   1.000  C
  C494     1.0000 0.87017  0.01333  0.37551  Biso   1.000  C
  C495     1.0000 0.01333  0.87017  0.12449  Biso   1.000  C
  C496     1.0000 0.53683  0.34667  0.70885  Biso   1.000  C
  C497     1.0000 0.47650  0.79650  0.04218  Biso   1.000  C
  C498     1.0000 0.32000  0.52350  0.04218  Biso   1.000  C
  C499     1.0000 0.12983  0.14317  0.12449  Biso   1.000  C
  C500     1.0000 0.85683  0.98667  0.12449  Biso   1.000  C
  C501     1.0000 0.80983  0.46317  0.70885  Biso   1.000  C
  C502     1.0000 0.65333  0.19017  0.70885  Biso   1.000  C
  C503     1.0000 0.14317  0.12983  0.37551  Biso   1.000  C
  C504     1.0000 0.98667  0.85683  0.37551  Biso   1.000  C
  C505     1.0000 0.52200  0.06520  0.62158  Biso   1.000  C
  C506     1.0000 0.93480  0.45680  0.62158  Biso   1.000  C
  C507     1.0000 0.54320  0.47800  0.62158  Biso   1.000  C
  C508     1.0000 0.06520  0.52200  0.87842  Biso   1.000  C
  C509     1.0000 0.18867  0.39853  0.95491  Biso   1.000  C
  C510     1.0000 0.60147  0.79013  0.95491  Biso   1.000  C
  C511     1.0000 0.20987  0.81133  0.95491  Biso   1.000  C
  C512     1.0000 0.73187  0.85533  0.21175  Biso   1.000  C
  C513     1.0000 0.85533  0.73187  0.28825  Biso   1.000  C
  C514     1.0000 0.39853  0.18867  0.54509  Biso   1.000  C
  C515     1.0000 0.45680  0.93480  0.87842  Biso   1.000  C
  C516     1.0000 0.47800  0.54320  0.87842  Biso   1.000  C
  C517     1.0000 0.26813  0.12347  0.28825  Biso   1.000  C
  C518     1.0000 0.87653  0.14467  0.28825  Biso   1.000  C
  C519     1.0000 0.79013  0.60147  0.54509  Biso   1.000  C
  C520     1.0000 0.81133  0.20987  0.54509  Biso   1.000  C
  C521     1.0000 0.12347  0.26813  0.21175  Biso   1.000  C
  C522     1.0000 0.14467  0.87653  0.21175  Biso   1.000  C
  C523     1.0000 0.47800  0.93480  0.37842  Biso   1.000  C
  C524     1.0000 0.06520  0.54320  0.37842  Biso   1.000  C
  C525     1.0000 0.45680  0.52200  0.37842  Biso   1.000  C
  C526     1.0000 0.93480  0.47800  0.12158  Biso   1.000  C
  C527     1.0000 0.14467  0.26813  0.71175  Biso   1.000  C
  C528     1.0000 0.73187  0.87653  0.71175  Biso   1.000  C
  C529     1.0000 0.12347  0.85533  0.71175  Biso   1.000  C
  C530     1.0000 0.60147  0.81133  0.45491  Biso   1.000  C
  C531     1.0000 0.81133  0.60147  0.04509  Biso   1.000  C
  C532     1.0000 0.26813  0.14467  0.78825  Biso   1.000  C
  C533     1.0000 0.54320  0.06520  0.12158  Biso   1.000  C
  C534     1.0000 0.52200  0.45680  0.12158  Biso   1.000  C
  C535     1.0000 0.39853  0.20987  0.04509  Biso   1.000  C
  C536     1.0000 0.79013  0.18867  0.04509  Biso   1.000  C
  C537     1.0000 0.87653  0.73187  0.78825  Biso   1.000  C
  C538     1.0000 0.85533  0.12347  0.78825  Biso   1.000  C
  C539     1.0000 0.20987  0.39853  0.45491  Biso   1.000  C
  C540     1.0000 0.18867  0.79013  0.45491  Biso   1.000  C
  H289     1.0000 0.39250  0.04620  0.62990  Biso   1.000  H
  H290     1.0000 0.95380  0.34630  0.62990  Biso   1.000  H
  H291     1.0000 0.65370  0.60750  0.62990  Biso   1.000  H
  H292     1.0000 0.04620  0.39250  0.87010  Biso   1.000  H
  H293     1.0000 0.05917  0.37953  0.96323  Biso   1.000  H
  H294     1.0000 0.62047  0.67963  0.96323  Biso   1.000  H
  H295     1.0000 0.32037  0.94083  0.96323  Biso   1.000  H
  H296     1.0000 0.71287  0.72583  0.20343  Biso   1.000  H
  H297     1.0000 0.72583  0.71287  0.29657  Biso   1.000  H
  H298     1.0000 0.37953  0.05917  0.53677  Biso   1.000  H
  H299     1.0000 0.34630  0.95380  0.87010  Biso   1.000  H
  H300     1.0000 0.60750  0.65370  0.87010  Biso   1.000  H
  H301     1.0000 0.28713  0.01297  0.29657  Biso   1.000  H
  H302     1.0000 0.98703  0.27417  0.29657  Biso   1.000  H
  H303     1.0000 0.67963  0.62047  0.53677  Biso   1.000  H
  H304     1.0000 0.94083  0.32037  0.53677  Biso   1.000  H
  H305     1.0000 0.01297  0.28713  0.20343  Biso   1.000  H
  H306     1.0000 0.27417  0.98703  0.20343  Biso   1.000  H
  H307     1.0000 0.60750  0.95380  0.37010  Biso   1.000  H
  H308     1.0000 0.04620  0.65370  0.37010  Biso   1.000  H
  H309     1.0000 0.34630  0.39250  0.37010  Biso   1.000  H
  H310     1.0000 0.95380  0.60750  0.12990  Biso   1.000  H
  H311     1.0000 0.27417  0.28713  0.70343  Biso   1.000  H
  H312     1.0000 0.71287  0.98703  0.70343  Biso   1.000  H
  H313     1.0000 0.01297  0.72583  0.70343  Biso   1.000  H
  H314     1.0000 0.62047  0.94083  0.46323  Biso   1.000  H
  H315     1.0000 0.94083  0.62047  0.03677  Biso   1.000  H
  H316     1.0000 0.28713  0.27417  0.79657  Biso   1.000  H
  H317     1.0000 0.65370  0.04620  0.12990  Biso   1.000  H
  H318     1.0000 0.39250  0.34630  0.12990  Biso   1.000  H
  H319     1.0000 0.37953  0.32037  0.03677  Biso   1.000  H
  H320     1.0000 0.67963  0.05917  0.03677  Biso   1.000  H
  H321     1.0000 0.98703  0.71287  0.79657  Biso   1.000  H
  H322     1.0000 0.72583  0.01297  0.79657  Biso   1.000  H
  H323     1.0000 0.32037  0.37953  0.46323  Biso   1.000  H
  H324     1.0000 0.05917  0.67963  0.46323  Biso   1.000  H
  H325     1.0000 0.62650  0.05400  0.61000  Biso   1.000  H
  H326     1.0000 0.94600  0.57250  0.61000  Biso   1.000  H
  H327     1.0000 0.42750  0.37350  0.61000  Biso   1.000  H
  H328     1.0000 0.05400  0.62650  0.89000  Biso   1.000  H
  H329     1.0000 0.29317  0.38733  0.94333  Biso   1.000  H
  H330     1.0000 0.61267  0.90583  0.94333  Biso   1.000  H
  H331     1.0000 0.09417  0.70683  0.94333  Biso   1.000  H
  H332     1.0000 0.72067  0.95983  0.22333  Biso   1.000  H
  H333     1.0000 0.95983  0.72067  0.27667  Biso   1.000  H
  H334     1.0000 0.38733  0.29317  0.55667  Biso   1.000  H
  H335     1.0000 0.57250  0.94600  0.89000  Biso   1.000  H
  H336     1.0000 0.37350  0.42750  0.89000  Biso   1.000  H
  H337     1.0000 0.27933  0.23917  0.27667  Biso   1.000  H
  H338     1.0000 0.76083  0.04017  0.27667  Biso   1.000  H
  H339     1.0000 0.90583  0.61267  0.55667  Biso   1.000  H
  H340     1.0000 0.70683  0.09417  0.55667  Biso   1.000  H
  H341     1.0000 0.23917  0.27933  0.22333  Biso   1.000  H
  H342     1.0000 0.04017  0.76083  0.22333  Biso   1.000  H
  H343     1.0000 0.37350  0.94600  0.39000  Biso   1.000  H
  H344     1.0000 0.05400  0.42750  0.39000  Biso   1.000  H
  H345     1.0000 0.57250  0.62650  0.39000  Biso   1.000  H
  H346     1.0000 0.94600  0.37350  0.11000  Biso   1.000  H
  H347     1.0000 0.04017  0.27933  0.72333  Biso   1.000  H
  H348     1.0000 0.72067  0.76083  0.72333  Biso   1.000  H
  H349     1.0000 0.23917  0.95983  0.72333  Biso   1.000  H
  H350     1.0000 0.61267  0.70683  0.44333  Biso   1.000  H
  H351     1.0000 0.70683  0.61267  0.05667  Biso   1.000  H
  H352     1.0000 0.27933  0.04017  0.77667  Biso   1.000  H
  H353     1.0000 0.42750  0.05400  0.11000  Biso   1.000  H
  H354     1.0000 0.62650  0.57250  0.11000  Biso   1.000  H
  H355     1.0000 0.38733  0.09417  0.05667  Biso   1.000  H
  H356     1.0000 0.90583  0.29317  0.05667  Biso   1.000  H
  H357     1.0000 0.76083  0.72067  0.77667  Biso   1.000  H
  H358     1.0000 0.95983  0.23917  0.77667  Biso   1.000  H
  H359     1.0000 0.09417  0.38733  0.44333  Biso   1.000  H
  H360     1.0000 0.29317  0.90583  0.44333  Biso   1.000  H
  C541     1.0000 0.40660  0.88310  0.53782  Biso   1.000  C
  C542     1.0000 0.11690  0.52350  0.53782  Biso   1.000  C
  C543     1.0000 0.47650  0.59340  0.53782  Biso   1.000  C
  C544     1.0000 0.88310  0.40660  0.96218  Biso   1.000  C
  C545     1.0000 0.07327  0.21643  0.87115  Biso   1.000  C
  C546     1.0000 0.78357  0.85683  0.87115  Biso   1.000  C
  C547     1.0000 0.14317  0.92673  0.87115  Biso   1.000  C
  C548     1.0000 0.54977  0.73993  0.29551  Biso   1.000  C
  C549     1.0000 0.73993  0.54977  0.20449  Biso   1.000  C
  C550     1.0000 0.21643  0.07327  0.62885  Biso   1.000  C
  C551     1.0000 0.52350  0.11690  0.96218  Biso   1.000  C
  C552     1.0000 0.59340  0.47650  0.96218  Biso   1.000  C
  C553     1.0000 0.45023  0.19017  0.20449  Biso   1.000  C
  C554     1.0000 0.80983  0.26007  0.20449  Biso   1.000  C
  C555     1.0000 0.85683  0.78357  0.62885  Biso   1.000  C
  C556     1.0000 0.92673  0.14317  0.62885  Biso   1.000  C
  C557     1.0000 0.19017  0.45023  0.29551  Biso   1.000  C
  C558     1.0000 0.26007  0.80983  0.29551  Biso   1.000  C
  C559     1.0000 0.59340  0.11690  0.46218  Biso   1.000  C
  C560     1.0000 0.88310  0.47650  0.46218  Biso   1.000  C
  C561     1.0000 0.52350  0.40660  0.46218  Biso   1.000  C
  C562     1.0000 0.11690  0.59340  0.03782  Biso   1.000  C
  C563     1.0000 0.26007  0.45023  0.79551  Biso   1.000  C
  C564     1.0000 0.54977  0.80983  0.79551  Biso   1.000  C
  C565     1.0000 0.19017  0.73993  0.79551  Biso   1.000  C
  C566     1.0000 0.78357  0.92673  0.37115  Biso   1.000  C
  C567     1.0000 0.92673  0.78357  0.12885  Biso   1.000  C
  C568     1.0000 0.45023  0.26007  0.70449  Biso   1.000  C
  C569     1.0000 0.47650  0.88310  0.03782  Biso   1.000  C
  C570     1.0000 0.40660  0.52350  0.03782  Biso   1.000  C
  C571     1.0000 0.21643  0.14317  0.12885  Biso   1.000  C
  C572     1.0000 0.85683  0.07327  0.12885  Biso   1.000  C
  C573     1.0000 0.80983  0.54977  0.70449  Biso   1.000  C
  C574     1.0000 0.73993  0.19017  0.70449  Biso   1.000  C
  C575     1.0000 0.14317  0.21643  0.37115  Biso   1.000  C
  C576     1.0000 0.07327  0.85683  0.37115  Biso   1.000  C
  H361     1.0000 0.52820  0.00710  0.54560  Biso   1.000  H
  H362     1.0000 0.99290  0.52110  0.54560  Biso   1.000  H
  H363     1.0000 0.47890  0.47180  0.54560  Biso   1.000  H
  H364     1.0000 0.00710  0.52820  0.95440  Biso   1.000  H
  H365     1.0000 0.19487  0.34043  0.87893  Biso   1.000  H
  H366     1.0000 0.65957  0.85443  0.87893  Biso   1.000  H
  H367     1.0000 0.14557  0.80513  0.87893  Biso   1.000  H
  H368     1.0000 0.67377  0.86153  0.28773  Biso   1.000  H
  H369     1.0000 0.86153  0.67377  0.21227  Biso   1.000  H
  H370     1.0000 0.34043  0.19487  0.62107  Biso   1.000  H
  H371     1.0000 0.52110  0.99290  0.95440  Biso   1.000  H
  H372     1.0000 0.47180  0.47890  0.95440  Biso   1.000  H
  H373     1.0000 0.32623  0.18777  0.21227  Biso   1.000  H
  H374     1.0000 0.81223  0.13847  0.21227  Biso   1.000  H
  H375     1.0000 0.85443  0.65957  0.62107  Biso   1.000  H
  H376     1.0000 0.80513  0.14557  0.62107  Biso   1.000  H
  H377     1.0000 0.18777  0.32623  0.28773  Biso   1.000  H
  H378     1.0000 0.13847  0.81223  0.28773  Biso   1.000  H
  H379     1.0000 0.47180  0.99290  0.45440  Biso   1.000  H
  H380     1.0000 0.00710  0.47890  0.45440  Biso   1.000  H
  H381     1.0000 0.52110  0.52820  0.45440  Biso   1.000  H
  H382     1.0000 0.99290  0.47180  0.04560  Biso   1.000  H
  H383     1.0000 0.13847  0.32623  0.78773  Biso   1.000  H
  H384     1.0000 0.67377  0.81223  0.78773  Biso   1.000  H
  H385     1.0000 0.18777  0.86153  0.78773  Biso   1.000  H
  H386     1.0000 0.65957  0.80513  0.37893  Biso   1.000  H
  H387     1.0000 0.80513  0.65957  0.12107  Biso   1.000  H
  H388     1.0000 0.32623  0.13847  0.71227  Biso   1.000  H
  H389     1.0000 0.47890  0.00710  0.04560  Biso   1.000  H
  H390     1.0000 0.52820  0.52110  0.04560  Biso   1.000  H
  H391     1.0000 0.34043  0.14557  0.12107  Biso   1.000  H
  H392     1.0000 0.85443  0.19487  0.12107  Biso   1.000  H
  H393     1.0000 0.81223  0.67377  0.71227  Biso   1.000  H
  H394     1.0000 0.86153  0.18777  0.71227  Biso   1.000  H
  H395     1.0000 0.14557  0.34043  0.37893  Biso   1.000  H
  H396     1.0000 0.19487  0.85443  0.37893  Biso   1.000  H
  H397     1.0000 0.27750  0.74980  0.53550  Biso   1.000  H
  H398     1.0000 0.25020  0.52770  0.53550  Biso   1.000  H
  H399     1.0000 0.47230  0.72250  0.53550  Biso   1.000  H
  H400     1.0000 0.74980  0.27750  0.96450  Biso   1.000  H
  H401     1.0000 0.94417  0.08313  0.86883  Biso   1.000  H
  H402     1.0000 0.91687  0.86103  0.86883  Biso   1.000  H
  H403     1.0000 0.13897  0.05583  0.86883  Biso   1.000  H
  H404     1.0000 0.41647  0.61083  0.29783  Biso   1.000  H
  H405     1.0000 0.61083  0.41647  0.20217  Biso   1.000  H
  H406     1.0000 0.08313  0.94417  0.63117  Biso   1.000  H
  H407     1.0000 0.52770  0.25020  0.96450  Biso   1.000  H
  H408     1.0000 0.72250  0.47230  0.96450  Biso   1.000  H
  H409     1.0000 0.58353  0.19437  0.20217  Biso   1.000  H
  H410     1.0000 0.80563  0.38917  0.20217  Biso   1.000  H
  H411     1.0000 0.86103  0.91687  0.63117  Biso   1.000  H
  H412     1.0000 0.05583  0.13897  0.63117  Biso   1.000  H
  H413     1.0000 0.19437  0.58353  0.29783  Biso   1.000  H
  H414     1.0000 0.38917  0.80563  0.29783  Biso   1.000  H
  H415     1.0000 0.72250  0.25020  0.46450  Biso   1.000  H
  H416     1.0000 0.74980  0.47230  0.46450  Biso   1.000  H
  H417     1.0000 0.52770  0.27750  0.46450  Biso   1.000  H
  H418     1.0000 0.25020  0.72250  0.03550  Biso   1.000  H
  H419     1.0000 0.38917  0.58353  0.79783  Biso   1.000  H
  H420     1.0000 0.41647  0.80563  0.79783  Biso   1.000  H
  H421     1.0000 0.19437  0.61083  0.79783  Biso   1.000  H
  H422     1.0000 0.91687  0.05583  0.36883  Biso   1.000  H
  H423     1.0000 0.05583  0.91687  0.13117  Biso   1.000  H
  H424     1.0000 0.58353  0.38917  0.70217  Biso   1.000  H
  H425     1.0000 0.47230  0.74980  0.03550  Biso   1.000  H
  H426     1.0000 0.27750  0.52770  0.03550  Biso   1.000  H
  H427     1.0000 0.08313  0.13897  0.13117  Biso   1.000  H
  H428     1.0000 0.86103  0.94417  0.13117  Biso   1.000  H
  H429     1.0000 0.80563  0.41647  0.70217  Biso   1.000  H
  H430     1.0000 0.61083  0.19437  0.70217  Biso   1.000  H
  H431     1.0000 0.13897  0.08313  0.36883  Biso   1.000  H
  H432     1.0000 0.94417  0.86103  0.36883  Biso   1.000  H
  C577     1.0000 0.59260  0.13990  0.63212  Biso   1.000  C
  C578     1.0000 0.86010  0.45270  0.63212  Biso   1.000  C
  C579     1.0000 0.54730  0.40740  0.63212  Biso   1.000  C
  C580     1.0000 0.13990  0.59260  0.86788  Biso   1.000  C
  C581     1.0000 0.25927  0.47323  0.96545  Biso   1.000  C
  C582     1.0000 0.52677  0.78603  0.96545  Biso   1.000  C
  C583     1.0000 0.21397  0.74073  0.96545  Biso   1.000  C
  C584     1.0000 0.80657  0.92593  0.20121  Biso   1.000  C
  C585     1.0000 0.92593  0.80657  0.29879  Biso   1.000  C
  C586     1.0000 0.47323  0.25927  0.53455  Biso   1.000  C
  C587     1.0000 0.45270  0.86010  0.86788  Biso   1.000  C
  C588     1.0000 0.40740  0.54730  0.86788  Biso   1.000  C
  C589     1.0000 0.19343  0.11937  0.29879  Biso   1.000  C
  C590     1.0000 0.88063  0.07407  0.29879  Biso   1.000  C
  C591     1.0000 0.78603  0.52677  0.53455  Biso   1.000  C
  C592     1.0000 0.74073  0.21397  0.53455  Biso   1.000  C
  C593     1.0000 0.11937  0.19343  0.20121  Biso   1.000  C
  C594     1.0000 0.07407  0.88063  0.20121  Biso   1.000  C
  C595     1.0000 0.40740  0.86010  0.36788  Biso   1.000  C
  C596     1.0000 0.13990  0.54730  0.36788  Biso   1.000  C
  C597     1.0000 0.45270  0.59260  0.36788  Biso   1.000  C
  C598     1.0000 0.86010  0.40740  0.13212  Biso   1.000  C
  C599     1.0000 0.07407  0.19343  0.70121  Biso   1.000  C
  C600     1.0000 0.80657  0.88063  0.70121  Biso   1.000  C
  C601     1.0000 0.11937  0.92593  0.70121  Biso   1.000  C
  C602     1.0000 0.52677  0.74073  0.46545  Biso   1.000  C
  C603     1.0000 0.74073  0.52677  0.03455  Biso   1.000  C
  C604     1.0000 0.19343  0.07407  0.79879  Biso   1.000  C
  C605     1.0000 0.54730  0.13990  0.13212  Biso   1.000  C
  C606     1.0000 0.59260  0.45270  0.13212  Biso   1.000  C
  C607     1.0000 0.47323  0.21397  0.03455  Biso   1.000  C
  C608     1.0000 0.78603  0.25927  0.03455  Biso   1.000  C
  C609     1.0000 0.88063  0.80657  0.79879  Biso   1.000  C
  C610     1.0000 0.92593  0.11937  0.79879  Biso   1.000  C
  C611     1.0000 0.21397  0.47323  0.46545  Biso   1.000  C
  C612     1.0000 0.25927  0.78603  0.46545  Biso   1.000  C
  C613     1.0000 0.42940  0.90140  0.52218  Biso   1.000  C
  C614     1.0000 0.09860  0.52800  0.52218  Biso   1.000  C
  C615     1.0000 0.47200  0.57060  0.52218  Biso   1.000  C
  C616     1.0000 0.90140  0.42940  0.97782  Biso   1.000  C
  C617     1.0000 0.09607  0.23473  0.85551  Biso   1.000  C
  C618     1.0000 0.76527  0.86133  0.85551  Biso   1.000  C
  C619     1.0000 0.13867  0.90393  0.85551  Biso   1.000  C
  C620     1.0000 0.56807  0.76273  0.31115  Biso   1.000  C
  C621     1.0000 0.76273  0.56807  0.18885  Biso   1.000  C
  C622     1.0000 0.23473  0.09607  0.64449  Biso   1.000  C
  C623     1.0000 0.52800  0.09860  0.97782  Biso   1.000  C
  C624     1.0000 0.57060  0.47200  0.97782  Biso   1.000  C
  C625     1.0000 0.43193  0.19467  0.18885  Biso   1.000  C
  C626     1.0000 0.80533  0.23727  0.18885  Biso   1.000  C
  C627     1.0000 0.86133  0.76527  0.64449  Biso   1.000  C
  C628     1.0000 0.90393  0.13867  0.64449  Biso   1.000  C
  C629     1.0000 0.19467  0.43193  0.31115  Biso   1.000  C
  C630     1.0000 0.23727  0.80533  0.31115  Biso   1.000  C
  C631     1.0000 0.57060  0.09860  0.47782  Biso   1.000  C
  C632     1.0000 0.90140  0.47200  0.47782  Biso   1.000  C
  C633     1.0000 0.52800  0.42940  0.47782  Biso   1.000  C
  C634     1.0000 0.09860  0.57060  0.02218  Biso   1.000  C
  C635     1.0000 0.23727  0.43193  0.81115  Biso   1.000  C
  C636     1.0000 0.56807  0.80533  0.81115  Biso   1.000  C
  C637     1.0000 0.19467  0.76273  0.81115  Biso   1.000  C
  C638     1.0000 0.76527  0.90393  0.35551  Biso   1.000  C
  C639     1.0000 0.90393  0.76527  0.14449  Biso   1.000  C
  C640     1.0000 0.43193  0.23727  0.68885  Biso   1.000  C
  C641     1.0000 0.47200  0.90140  0.02218  Biso   1.000  C
  C642     1.0000 0.42940  0.52800  0.02218  Biso   1.000  C
  C643     1.0000 0.23473  0.13867  0.14449  Biso   1.000  C
  C644     1.0000 0.86133  0.09607  0.14449  Biso   1.000  C
  C645     1.0000 0.80533  0.56807  0.68885  Biso   1.000  C
  C646     1.0000 0.76273  0.19467  0.68885  Biso   1.000  C
  C647     1.0000 0.13867  0.23473  0.35551  Biso   1.000  C
  C648     1.0000 0.09607  0.86133  0.35551  Biso   1.000  C
  O229     1.0000 0.80810  0.33330  0.58330  Biso   1.000  O
  O230     1.0000 0.66670  0.47480  0.58330  Biso   1.000  O
  O231     1.0000 0.52520  0.19190  0.58330  Biso   1.000  O
  O232     1.0000 0.33330  0.80810  0.91670  Biso   1.000  O
  O233     1.0000 0.47477  0.66663  0.91663  Biso   1.000  O
  O234     1.0000 0.19187  0.52523  0.91663  Biso   1.000  O
  O235     1.0000 0.99997  0.14143  0.25003  Biso   1.000  O
  O236     1.0000 0.14143  0.99997  0.24997  Biso   1.000  O
  O237     1.0000 0.85853  0.85857  0.24997  Biso   1.000  O
  O238     1.0000 0.19190  0.66670  0.41670  Biso   1.000  O
  O239     1.0000 0.33330  0.52520  0.41670  Biso   1.000  O
  O240     1.0000 0.47480  0.80810  0.41670  Biso   1.000  O
  O241     1.0000 0.66670  0.19190  0.08330  Biso   1.000  O
  O242     1.0000 0.85857  0.00003  0.75003  Biso   1.000  O
  O243     1.0000 0.99997  0.85853  0.75003  Biso   1.000  O
  O244     1.0000 0.14147  0.14143  0.75003  Biso   1.000  O
  O245     1.0000 0.52523  0.33337  0.08337  Biso   1.000  O
  O246     1.0000 0.80810  0.47480  0.08330  Biso   1.000  O
