data_image0
_cell_length_a       15.274
_cell_length_b       15.274
_cell_length_c       93.866
_cell_angle_alpha    90
_cell_angle_beta     90
_cell_angle_gamma    120

_symmetry_space_group_name_H-M    "P 1"
_symmetry_int_tables_number       1

loop_
  _symmetry_equiv_pos_as_xyz
  'x, y, z'

loop_
  _atom_site_label
  _atom_site_occupancy
  _atom_site_fract_x
  _atom_site_fract_y
  _atom_site_fract_z
  _atom_site_thermal_displace_type
  _atom_site_B_iso_or_equiv
  _atom_site_type_symbol
  Tb1      1.0000 0.91797  0.09204  0.67770  Biso   1.000  Tb
  Tb2      1.0000 0.90796  0.82593  0.67770  Biso   1.000  Tb
  Tb3      1.0000 0.17407  0.08203  0.67770  Biso   1.000  Tb
  Tb4      1.0000 0.09204  0.91797  0.82230  Biso   1.000  Tb
  Tb5      1.0000 0.58464  0.42537  0.01103  Biso   1.000  Tb
  Tb6      1.0000 0.57463  0.15927  0.01103  Biso   1.000  Tb
  Tb7      1.0000 0.84073  0.41536  0.01103  Biso   1.000  Tb
  Tb8      1.0000 0.75870  0.25130  0.15563  Biso   1.000  Tb
  Tb9      1.0000 0.25130  0.75870  0.34437  Biso   1.000  Tb
  Tb10     1.0000 0.42537  0.58464  0.48897  Biso   1.000  Tb
  Tb11     1.0000 0.82593  0.90796  0.82230  Biso   1.000  Tb
  Tb12     1.0000 0.08203  0.17407  0.82230  Biso   1.000  Tb
  Tb13     1.0000 0.24130  0.49260  0.34437  Biso   1.000  Tb
  Tb14     1.0000 0.50740  0.74870  0.34437  Biso   1.000  Tb
  Tb15     1.0000 0.15927  0.57463  0.48897  Biso   1.000  Tb
  Tb16     1.0000 0.41536  0.84073  0.48897  Biso   1.000  Tb
  Tb17     1.0000 0.49260  0.24130  0.15563  Biso   1.000  Tb
  Tb18     1.0000 0.74870  0.50740  0.15563  Biso   1.000  Tb
  Tb19     1.0000 0.08203  0.90796  0.32230  Biso   1.000  Tb
  Tb20     1.0000 0.09204  0.17407  0.32230  Biso   1.000  Tb
  Tb21     1.0000 0.82593  0.91797  0.32230  Biso   1.000  Tb
  Tb22     1.0000 0.90796  0.08203  0.17770  Biso   1.000  Tb
  Tb23     1.0000 0.74870  0.24130  0.65563  Biso   1.000  Tb
  Tb24     1.0000 0.75870  0.50740  0.65563  Biso   1.000  Tb
  Tb25     1.0000 0.49260  0.25130  0.65563  Biso   1.000  Tb
  Tb26     1.0000 0.57463  0.41536  0.51103  Biso   1.000  Tb
  Tb27     1.0000 0.41536  0.57463  0.98897  Biso   1.000  Tb
  Tb28     1.0000 0.24130  0.74870  0.84437  Biso   1.000  Tb
  Tb29     1.0000 0.17407  0.09204  0.17770  Biso   1.000  Tb
  Tb30     1.0000 0.91797  0.82593  0.17770  Biso   1.000  Tb
  Tb31     1.0000 0.42537  0.84073  0.98897  Biso   1.000  Tb
  Tb32     1.0000 0.15927  0.58464  0.98897  Biso   1.000  Tb
  Tb33     1.0000 0.50740  0.75870  0.84437  Biso   1.000  Tb
  Tb34     1.0000 0.25130  0.49260  0.84437  Biso   1.000  Tb
  Tb35     1.0000 0.84073  0.42537  0.51103  Biso   1.000  Tb
  Tb36     1.0000 0.58464  0.15927  0.51103  Biso   1.000  Tb
  Cu1      1.0000 0.33330  0.66670  0.62592  Biso   1.000  Cu
  Cu2      1.0000 0.66670  0.33330  0.87408  Biso   1.000  Cu
  Cu3      1.0000 0.99997  0.00003  0.95925  Biso   1.000  Cu
  Cu4      1.0000 0.33337  0.66663  0.20741  Biso   1.000  Cu
  Cu5      1.0000 0.66663  0.33337  0.29259  Biso   1.000  Cu
  Cu6      1.0000 0.00003  0.99997  0.54075  Biso   1.000  Cu
  Cu7      1.0000 0.66670  0.33330  0.37408  Biso   1.000  Cu
  Cu8      1.0000 0.33330  0.66670  0.12592  Biso   1.000  Cu
  Cu9      1.0000 0.33337  0.66663  0.70741  Biso   1.000  Cu
  Cu10     1.0000 0.99997  0.00003  0.45925  Biso   1.000  Cu
  Cu11     1.0000 0.00003  0.99997  0.04075  Biso   1.000  Cu
  Cu12     1.0000 0.66663  0.33337  0.79259  Biso   1.000  Cu
  Cu13     1.0000 0.30699  0.82247  0.58687  Biso   1.000  Cu
  Cu14     1.0000 0.17753  0.48452  0.58687  Biso   1.000  Cu
  Cu15     1.0000 0.51548  0.69301  0.58687  Biso   1.000  Cu
  Cu16     1.0000 0.82247  0.30699  0.91313  Biso   1.000  Cu
  Cu17     1.0000 0.97366  0.15580  0.92020  Biso   1.000  Cu
  Cu18     1.0000 0.84420  0.81785  0.92020  Biso   1.000  Cu
  Cu19     1.0000 0.18215  0.02634  0.92020  Biso   1.000  Cu
  Cu20     1.0000 0.48914  0.64032  0.24646  Biso   1.000  Cu
  Cu21     1.0000 0.64032  0.48914  0.25354  Biso   1.000  Cu
  Cu22     1.0000 0.15580  0.97366  0.57980  Biso   1.000  Cu
  Cu23     1.0000 0.48452  0.17753  0.91313  Biso   1.000  Cu
  Cu24     1.0000 0.69301  0.51548  0.91313  Biso   1.000  Cu
  Cu25     1.0000 0.51086  0.15119  0.25354  Biso   1.000  Cu
  Cu26     1.0000 0.84881  0.35968  0.25354  Biso   1.000  Cu
  Cu27     1.0000 0.81785  0.84420  0.57980  Biso   1.000  Cu
  Cu28     1.0000 0.02634  0.18215  0.57980  Biso   1.000  Cu
  Cu29     1.0000 0.15119  0.51086  0.24646  Biso   1.000  Cu
  Cu30     1.0000 0.35968  0.84881  0.24646  Biso   1.000  Cu
  Cu31     1.0000 0.69301  0.17753  0.41313  Biso   1.000  Cu
  Cu32     1.0000 0.82247  0.51548  0.41313  Biso   1.000  Cu
  Cu33     1.0000 0.48452  0.30699  0.41313  Biso   1.000  Cu
  Cu34     1.0000 0.17753  0.69301  0.08687  Biso   1.000  Cu
  Cu35     1.0000 0.35968  0.51086  0.74646  Biso   1.000  Cu
  Cu36     1.0000 0.48914  0.84881  0.74646  Biso   1.000  Cu
  Cu37     1.0000 0.15119  0.64032  0.74646  Biso   1.000  Cu
  Cu38     1.0000 0.84420  0.02634  0.42020  Biso   1.000  Cu
  Cu39     1.0000 0.02634  0.84420  0.07980  Biso   1.000  Cu
  Cu40     1.0000 0.51086  0.35968  0.75354  Biso   1.000  Cu
  Cu41     1.0000 0.51548  0.82247  0.08687  Biso   1.000  Cu
  Cu42     1.0000 0.30699  0.48452  0.08687  Biso   1.000  Cu
  Cu43     1.0000 0.15580  0.18215  0.07980  Biso   1.000  Cu
  Cu44     1.0000 0.81785  0.97366  0.07980  Biso   1.000  Cu
  Cu45     1.0000 0.84881  0.48914  0.75354  Biso   1.000  Cu
  Cu46     1.0000 0.64032  0.15119  0.75354  Biso   1.000  Cu
  Cu47     1.0000 0.18215  0.15580  0.42020  Biso   1.000  Cu
  Cu48     1.0000 0.97366  0.81785  0.42020  Biso   1.000  Cu
  I1       1.0000 0.33330  0.66670  0.59794  Biso   1.000  I
  I2       1.0000 0.66670  0.33330  0.90206  Biso   1.000  I
  I3       1.0000 0.99997  0.00003  0.93127  Biso   1.000  I
  I4       1.0000 0.33337  0.66663  0.23539  Biso   1.000  I
  I5       1.0000 0.66663  0.33337  0.26461  Biso   1.000  I
  I6       1.0000 0.00003  0.99997  0.56873  Biso   1.000  I
  I7       1.0000 0.66670  0.33330  0.40206  Biso   1.000  I
  I8       1.0000 0.33330  0.66670  0.09794  Biso   1.000  I
  I9       1.0000 0.33337  0.66663  0.73539  Biso   1.000  I
  I10      1.0000 0.99997  0.00003  0.43127  Biso   1.000  I
  I11      1.0000 0.00003  0.99997  0.06873  Biso   1.000  I
  I12      1.0000 0.66663  0.33337  0.76461  Biso   1.000  I
  I13      1.0000 0.12175  0.78840  0.58340  Biso   1.000  I
  I14      1.0000 0.21160  0.33335  0.58340  Biso   1.000  I
  I15      1.0000 0.66665  0.87825  0.58340  Biso   1.000  I
  I16      1.0000 0.78840  0.12175  0.91660  Biso   1.000  I
  I17      1.0000 0.87827  0.66668  0.91673  Biso   1.000  I
  I18      1.0000 0.33332  0.21158  0.91673  Biso   1.000  I
  I19      1.0000 0.45507  0.45508  0.24993  Biso   1.000  I
  I20      1.0000 0.54493  0.00002  0.25007  Biso   1.000  I
  I21      1.0000 0.99998  0.54492  0.25007  Biso   1.000  I
  I22      1.0000 0.87825  0.21160  0.41660  Biso   1.000  I
  I23      1.0000 0.78840  0.66665  0.41660  Biso   1.000  I
  I24      1.0000 0.33335  0.12175  0.41660  Biso   1.000  I
  I25      1.0000 0.21160  0.87825  0.08340  Biso   1.000  I
  I26      1.0000 0.54492  0.54493  0.74993  Biso   1.000  I
  I27      1.0000 0.45507  0.99998  0.74993  Biso   1.000  I
  I28      1.0000 0.00002  0.45508  0.74993  Biso   1.000  I
  I29      1.0000 0.66665  0.78840  0.08340  Biso   1.000  I
  I30      1.0000 0.12175  0.33335  0.08340  Biso   1.000  I
  C1       1.0000 0.73050  0.87160  0.66475  Biso   1.000  C
  C2       1.0000 0.12840  0.85890  0.66475  Biso   1.000  C
  C3       1.0000 0.14110  0.26950  0.66475  Biso   1.000  C
  C4       1.0000 0.87160  0.73050  0.83525  Biso   1.000  C
  C5       1.0000 0.39717  0.20493  0.99808  Biso   1.000  C
  C6       1.0000 0.79507  0.19223  0.99808  Biso   1.000  C
  C7       1.0000 0.80777  0.60283  0.99808  Biso   1.000  C
  C8       1.0000 0.53827  0.06383  0.16858  Biso   1.000  C
  C9       1.0000 0.06383  0.53827  0.33142  Biso   1.000  C
  C10      1.0000 0.20493  0.39717  0.50192  Biso   1.000  C
  C11      1.0000 0.85890  0.12840  0.83525  Biso   1.000  C
  C12      1.0000 0.26950  0.14110  0.83525  Biso   1.000  C
  C13      1.0000 0.46173  0.52557  0.33142  Biso   1.000  C
  C14      1.0000 0.47443  0.93617  0.33142  Biso   1.000  C
  C15      1.0000 0.19223  0.79507  0.50192  Biso   1.000  C
  C16      1.0000 0.60283  0.80777  0.50192  Biso   1.000  C
  C17      1.0000 0.52557  0.46173  0.16858  Biso   1.000  C
  C18      1.0000 0.93617  0.47443  0.16858  Biso   1.000  C
  C19      1.0000 0.26950  0.12840  0.33525  Biso   1.000  C
  C20      1.0000 0.87160  0.14110  0.33525  Biso   1.000  C
  C21      1.0000 0.85890  0.73050  0.33525  Biso   1.000  C
  C22      1.0000 0.12840  0.26950  0.16475  Biso   1.000  C
  C23      1.0000 0.93617  0.46173  0.66858  Biso   1.000  C
  C24      1.0000 0.53827  0.47443  0.66858  Biso   1.000  C
  C25      1.0000 0.52557  0.06383  0.66858  Biso   1.000  C
  C26      1.0000 0.79507  0.60283  0.49808  Biso   1.000  C
  C27      1.0000 0.60283  0.79507  0.00192  Biso   1.000  C
  C28      1.0000 0.46173  0.93617  0.83142  Biso   1.000  C
  C29      1.0000 0.14110  0.87160  0.16475  Biso   1.000  C
  C30      1.0000 0.73050  0.85890  0.16475  Biso   1.000  C
  C31      1.0000 0.20493  0.80777  0.00192  Biso   1.000  C
  C32      1.0000 0.19223  0.39717  0.00192  Biso   1.000  C
  C33      1.0000 0.47443  0.53827  0.83142  Biso   1.000  C
  C34      1.0000 0.06383  0.52557  0.83142  Biso   1.000  C
  C35      1.0000 0.80777  0.20493  0.49808  Biso   1.000  C
  C36      1.0000 0.39717  0.19223  0.49808  Biso   1.000  C
  C37      1.0000 0.64420  0.82270  0.65414  Biso   1.000  C
  C38      1.0000 0.17730  0.82150  0.65414  Biso   1.000  C
  C39      1.0000 0.17850  0.35580  0.65414  Biso   1.000  C
  C40      1.0000 0.82270  0.64420  0.84586  Biso   1.000  C
  C41      1.0000 0.31087  0.15603  0.98747  Biso   1.000  C
  C42      1.0000 0.84397  0.15483  0.98747  Biso   1.000  C
  C43      1.0000 0.84517  0.68913  0.98747  Biso   1.000  C
  C44      1.0000 0.48937  0.97753  0.17919  Biso   1.000  C
  C45      1.0000 0.97753  0.48937  0.32081  Biso   1.000  C
  C46      1.0000 0.15603  0.31087  0.51253  Biso   1.000  C
  C47      1.0000 0.82150  0.17730  0.84586  Biso   1.000  C
  C48      1.0000 0.35580  0.17850  0.84586  Biso   1.000  C
  C49      1.0000 0.51063  0.48817  0.32081  Biso   1.000  C
  C50      1.0000 0.51183  0.02247  0.32081  Biso   1.000  C
  C51      1.0000 0.15483  0.84397  0.51253  Biso   1.000  C
  C52      1.0000 0.68913  0.84517  0.51253  Biso   1.000  C
  C53      1.0000 0.48817  0.51063  0.17919  Biso   1.000  C
  C54      1.0000 0.02247  0.51183  0.17919  Biso   1.000  C
  C55      1.0000 0.35580  0.17730  0.34586  Biso   1.000  C
  C56      1.0000 0.82270  0.17850  0.34586  Biso   1.000  C
  C57      1.0000 0.82150  0.64420  0.34586  Biso   1.000  C
  C58      1.0000 0.17730  0.35580  0.15414  Biso   1.000  C
  C59      1.0000 0.02247  0.51063  0.67919  Biso   1.000  C
  C60      1.0000 0.48937  0.51183  0.67919  Biso   1.000  C
  C61      1.0000 0.48817  0.97753  0.67919  Biso   1.000  C
  C62      1.0000 0.84397  0.68913  0.48747  Biso   1.000  C
  C63      1.0000 0.68913  0.84397  0.01253  Biso   1.000  C
  C64      1.0000 0.51063  0.02247  0.82081  Biso   1.000  C
  C65      1.0000 0.17850  0.82270  0.15414  Biso   1.000  C
  C66      1.0000 0.64420  0.82150  0.15414  Biso   1.000  C
  C67      1.0000 0.15603  0.84517  0.01253  Biso   1.000  C
  C68      1.0000 0.15483  0.31087  0.01253  Biso   1.000  C
  C69      1.0000 0.51183  0.48937  0.82081  Biso   1.000  C
  C70      1.0000 0.97753  0.48817  0.82081  Biso   1.000  C
  C71      1.0000 0.84517  0.15603  0.48747  Biso   1.000  C
  C72      1.0000 0.31087  0.15483  0.48747  Biso   1.000  C
  C73      1.0000 0.57840  0.72080  0.65458  Biso   1.000  C
  C74      1.0000 0.27920  0.85760  0.65458  Biso   1.000  C
  C75      1.0000 0.14240  0.42160  0.65458  Biso   1.000  C
  C76      1.0000 0.72080  0.57840  0.84542  Biso   1.000  C
  C77      1.0000 0.24507  0.05413  0.98791  Biso   1.000  C
  C78      1.0000 0.94587  0.19093  0.98791  Biso   1.000  C
  C79      1.0000 0.80907  0.75493  0.98791  Biso   1.000  C
  C80      1.0000 0.38747  0.91173  0.17875  Biso   1.000  C
  C81      1.0000 0.91173  0.38747  0.32125  Biso   1.000  C
  C82      1.0000 0.05413  0.24507  0.51209  Biso   1.000  C
  C83      1.0000 0.85760  0.27920  0.84542  Biso   1.000  C
  C84      1.0000 0.42160  0.14240  0.84542  Biso   1.000  C
  C85      1.0000 0.61253  0.52427  0.32125  Biso   1.000  C
  C86      1.0000 0.47573  0.08827  0.32125  Biso   1.000  C
  C87      1.0000 0.19093  0.94587  0.51209  Biso   1.000  C
  C88      1.0000 0.75493  0.80907  0.51209  Biso   1.000  C
  C89      1.0000 0.52427  0.61253  0.17875  Biso   1.000  C
  C90      1.0000 0.08827  0.47573  0.17875  Biso   1.000  C
  C91      1.0000 0.42160  0.27920  0.34542  Biso   1.000  C
  C92      1.0000 0.72080  0.14240  0.34542  Biso   1.000  C
  C93      1.0000 0.85760  0.57840  0.34542  Biso   1.000  C
  C94      1.0000 0.27920  0.42160  0.15458  Biso   1.000  C
  C95      1.0000 0.08827  0.61253  0.67875  Biso   1.000  C
  C96      1.0000 0.38747  0.47573  0.67875  Biso   1.000  C
  C97      1.0000 0.52427  0.91173  0.67875  Biso   1.000  C
  C98      1.0000 0.94587  0.75493  0.48791  Biso   1.000  C
  C99      1.0000 0.75493  0.94587  0.01209  Biso   1.000  C
  C100     1.0000 0.61253  0.08827  0.82125  Biso   1.000  C
  C101     1.0000 0.14240  0.72080  0.15458  Biso   1.000  C
  C102     1.0000 0.57840  0.85760  0.15458  Biso   1.000  C
  C103     1.0000 0.05413  0.80907  0.01209  Biso   1.000  C
  C104     1.0000 0.19093  0.24507  0.01209  Biso   1.000  C
  C105     1.0000 0.47573  0.38747  0.82125  Biso   1.000  C
  C106     1.0000 0.91173  0.52427  0.82125  Biso   1.000  C
  C107     1.0000 0.80907  0.05413  0.48791  Biso   1.000  C
  C108     1.0000 0.24507  0.19093  0.48791  Biso   1.000  C
  H1       1.0000 0.58920  0.68040  0.66100  Biso   1.000  H
  H2       1.0000 0.31960  0.90880  0.66100  Biso   1.000  H
  H3       1.0000 0.09120  0.41080  0.66100  Biso   1.000  H
  H4       1.0000 0.68040  0.58920  0.83900  Biso   1.000  H
  H5       1.0000 0.25587  0.01373  0.99433  Biso   1.000  H
  H6       1.0000 0.98627  0.24213  0.99433  Biso   1.000  H
  H7       1.0000 0.75787  0.74413  0.99433  Biso   1.000  H
  H8       1.0000 0.34707  0.92253  0.17233  Biso   1.000  H
  H9       1.0000 0.92253  0.34707  0.32767  Biso   1.000  H
  H10      1.0000 0.01373  0.25587  0.50567  Biso   1.000  H
  H11      1.0000 0.90880  0.31960  0.83900  Biso   1.000  H
  H12      1.0000 0.41080  0.09120  0.83900  Biso   1.000  H
  H13      1.0000 0.65293  0.57547  0.32767  Biso   1.000  H
  H14      1.0000 0.42453  0.07747  0.32767  Biso   1.000  H
  H15      1.0000 0.24213  0.98627  0.50567  Biso   1.000  H
  H16      1.0000 0.74413  0.75787  0.50567  Biso   1.000  H
  H17      1.0000 0.57547  0.65293  0.17233  Biso   1.000  H
  H18      1.0000 0.07747  0.42453  0.17233  Biso   1.000  H
  H19      1.0000 0.41080  0.31960  0.33900  Biso   1.000  H
  H20      1.0000 0.68040  0.09120  0.33900  Biso   1.000  H
  H21      1.0000 0.90880  0.58920  0.33900  Biso   1.000  H
  H22      1.0000 0.31960  0.41080  0.16100  Biso   1.000  H
  H23      1.0000 0.07747  0.65293  0.67233  Biso   1.000  H
  H24      1.0000 0.34707  0.42453  0.67233  Biso   1.000  H
  H25      1.0000 0.57547  0.92253  0.67233  Biso   1.000  H
  H26      1.0000 0.98627  0.74413  0.49433  Biso   1.000  H
  H27      1.0000 0.74413  0.98627  0.00567  Biso   1.000  H
  H28      1.0000 0.65293  0.07747  0.82767  Biso   1.000  H
  H29      1.0000 0.09120  0.68040  0.16100  Biso   1.000  H
  H30      1.0000 0.58920  0.90880  0.16100  Biso   1.000  H
  H31      1.0000 0.01373  0.75787  0.00567  Biso   1.000  H
  H32      1.0000 0.24213  0.25587  0.00567  Biso   1.000  H
  H33      1.0000 0.42453  0.34707  0.82767  Biso   1.000  H
  H34      1.0000 0.92253  0.57547  0.82767  Biso   1.000  H
  H35      1.0000 0.75787  0.01373  0.49433  Biso   1.000  H
  H36      1.0000 0.25587  0.24213  0.49433  Biso   1.000  H
  C109     1.0000 0.49600  0.67790  0.64561  Biso   1.000  C
  C110     1.0000 0.32210  0.81810  0.64561  Biso   1.000  C
  C111     1.0000 0.18190  0.50400  0.64561  Biso   1.000  C
  C112     1.0000 0.67790  0.49600  0.85439  Biso   1.000  C
  C113     1.0000 0.16267  0.01123  0.97894  Biso   1.000  C
  C114     1.0000 0.98877  0.15143  0.97894  Biso   1.000  C
  C115     1.0000 0.84857  0.83733  0.97894  Biso   1.000  C
  C116     1.0000 0.34457  0.82933  0.18772  Biso   1.000  C
  C117     1.0000 0.82933  0.34457  0.31228  Biso   1.000  C
  C118     1.0000 0.01123  0.16267  0.52106  Biso   1.000  C
  C119     1.0000 0.81810  0.32210  0.85439  Biso   1.000  C
  C120     1.0000 0.50400  0.18190  0.85439  Biso   1.000  C
  C121     1.0000 0.65543  0.48477  0.31228  Biso   1.000  C
  C122     1.0000 0.51523  0.17067  0.31228  Biso   1.000  C
  C123     1.0000 0.15143  0.98877  0.52106  Biso   1.000  C
  C124     1.0000 0.83733  0.84857  0.52106  Biso   1.000  C
  C125     1.0000 0.48477  0.65543  0.18772  Biso   1.000  C
  C126     1.0000 0.17067  0.51523  0.18772  Biso   1.000  C
  C127     1.0000 0.50400  0.32210  0.35439  Biso   1.000  C
  C128     1.0000 0.67790  0.18190  0.35439  Biso   1.000  C
  C129     1.0000 0.81810  0.49600  0.35439  Biso   1.000  C
  C130     1.0000 0.32210  0.50400  0.14561  Biso   1.000  C
  C131     1.0000 0.17067  0.65543  0.68772  Biso   1.000  C
  C132     1.0000 0.34457  0.51523  0.68772  Biso   1.000  C
  C133     1.0000 0.48477  0.82933  0.68772  Biso   1.000  C
  C134     1.0000 0.98877  0.83733  0.47894  Biso   1.000  C
  C135     1.0000 0.83733  0.98877  0.02106  Biso   1.000  C
  C136     1.0000 0.65543  0.17067  0.81228  Biso   1.000  C
  C137     1.0000 0.18190  0.67790  0.14561  Biso   1.000  C
  C138     1.0000 0.49600  0.81810  0.14561  Biso   1.000  C
  C139     1.0000 0.01123  0.84857  0.02106  Biso   1.000  C
  C140     1.0000 0.15143  0.16267  0.02106  Biso   1.000  C
  C141     1.0000 0.51523  0.34457  0.81228  Biso   1.000  C
  C142     1.0000 0.82933  0.48477  0.81228  Biso   1.000  C
  C143     1.0000 0.84857  0.01123  0.47894  Biso   1.000  C
  C144     1.0000 0.16267  0.15143  0.47894  Biso   1.000  C
  H37      1.0000 0.45090  0.60900  0.64650  Biso   1.000  H
  H38      1.0000 0.39100  0.84190  0.64650  Biso   1.000  H
  H39      1.0000 0.15810  0.54910  0.64650  Biso   1.000  H
  H40      1.0000 0.60900  0.45090  0.85350  Biso   1.000  H
  H41      1.0000 0.11757  0.94233  0.97983  Biso   1.000  H
  H42      1.0000 0.05767  0.17523  0.97983  Biso   1.000  H
  H43      1.0000 0.82477  0.88243  0.97983  Biso   1.000  H
  H44      1.0000 0.27567  0.78423  0.18683  Biso   1.000  H
  H45      1.0000 0.78423  0.27567  0.31317  Biso   1.000  H
  H46      1.0000 0.94233  0.11757  0.52017  Biso   1.000  H
  H47      1.0000 0.84190  0.39100  0.85350  Biso   1.000  H
  H48      1.0000 0.54910  0.15810  0.85350  Biso   1.000  H
  H49      1.0000 0.72433  0.50857  0.31317  Biso   1.000  H
  H50      1.0000 0.49143  0.21577  0.31317  Biso   1.000  H
  H51      1.0000 0.17523  0.05767  0.52017  Biso   1.000  H
  H52      1.0000 0.88243  0.82477  0.52017  Biso   1.000  H
  H53      1.0000 0.50857  0.72433  0.18683  Biso   1.000  H
  H54      1.0000 0.21577  0.49143  0.18683  Biso   1.000  H
  H55      1.0000 0.54910  0.39100  0.35350  Biso   1.000  H
  H56      1.0000 0.60900  0.15810  0.35350  Biso   1.000  H
  H57      1.0000 0.84190  0.45090  0.35350  Biso   1.000  H
  H58      1.0000 0.39100  0.54910  0.14650  Biso   1.000  H
  H59      1.0000 0.21577  0.72433  0.68683  Biso   1.000  H
  H60      1.0000 0.27567  0.49143  0.68683  Biso   1.000  H
  H61      1.0000 0.50857  0.78423  0.68683  Biso   1.000  H
  H62      1.0000 0.05767  0.88243  0.47983  Biso   1.000  H
  H63      1.0000 0.88243  0.05767  0.02017  Biso   1.000  H
  H64      1.0000 0.72433  0.21577  0.81317  Biso   1.000  H
  H65      1.0000 0.15810  0.60900  0.14650  Biso   1.000  H
  H66      1.0000 0.45090  0.84190  0.14650  Biso   1.000  H
  H67      1.0000 0.94233  0.82477  0.02017  Biso   1.000  H
  H68      1.0000 0.17523  0.11757  0.02017  Biso   1.000  H
  H69      1.0000 0.49143  0.27567  0.81317  Biso   1.000  H
  H70      1.0000 0.78423  0.50857  0.81317  Biso   1.000  H
  H71      1.0000 0.82477  0.94233  0.47983  Biso   1.000  H
  H72      1.0000 0.11757  0.17523  0.47983  Biso   1.000  H
  C145     1.0000 0.54570  0.82850  0.63477  Biso   1.000  C
  C146     1.0000 0.17150  0.71720  0.63477  Biso   1.000  C
  C147     1.0000 0.28280  0.45430  0.63477  Biso   1.000  C
  C148     1.0000 0.82850  0.54570  0.86523  Biso   1.000  C
  C149     1.0000 0.21237  0.16183  0.96810  Biso   1.000  C
  C150     1.0000 0.83817  0.05053  0.96810  Biso   1.000  C
  C151     1.0000 0.94947  0.78763  0.96810  Biso   1.000  C
  C152     1.0000 0.49517  0.87903  0.19856  Biso   1.000  C
  C153     1.0000 0.87903  0.49517  0.30144  Biso   1.000  C
  C154     1.0000 0.16183  0.21237  0.53190  Biso   1.000  C
  C155     1.0000 0.71720  0.17150  0.86523  Biso   1.000  C
  C156     1.0000 0.45430  0.28280  0.86523  Biso   1.000  C
  C157     1.0000 0.50483  0.38387  0.30144  Biso   1.000  C
  C158     1.0000 0.61613  0.12097  0.30144  Biso   1.000  C
  C159     1.0000 0.05053  0.83817  0.53190  Biso   1.000  C
  C160     1.0000 0.78763  0.94947  0.53190  Biso   1.000  C
  C161     1.0000 0.38387  0.50483  0.19856  Biso   1.000  C
  C162     1.0000 0.12097  0.61613  0.19856  Biso   1.000  C
  C163     1.0000 0.45430  0.17150  0.36523  Biso   1.000  C
  C164     1.0000 0.82850  0.28280  0.36523  Biso   1.000  C
  C165     1.0000 0.71720  0.54570  0.36523  Biso   1.000  C
  C166     1.0000 0.17150  0.45430  0.13477  Biso   1.000  C
  C167     1.0000 0.12097  0.50483  0.69856  Biso   1.000  C
  C168     1.0000 0.49517  0.61613  0.69856  Biso   1.000  C
  C169     1.0000 0.38387  0.87903  0.69856  Biso   1.000  C
  C170     1.0000 0.83817  0.78763  0.46810  Biso   1.000  C
  C171     1.0000 0.78763  0.83817  0.03190  Biso   1.000  C
  C172     1.0000 0.50483  0.12097  0.80144  Biso   1.000  C
  C173     1.0000 0.28280  0.82850  0.13477  Biso   1.000  C
  C174     1.0000 0.54570  0.71720  0.13477  Biso   1.000  C
  C175     1.0000 0.16183  0.94947  0.03190  Biso   1.000  C
  C176     1.0000 0.05053  0.21237  0.03190  Biso   1.000  C
  C177     1.0000 0.61613  0.49517  0.80144  Biso   1.000  C
  C178     1.0000 0.87903  0.38387  0.80144  Biso   1.000  C
  C179     1.0000 0.94947  0.16183  0.46810  Biso   1.000  C
  C180     1.0000 0.21237  0.05053  0.46810  Biso   1.000  C
  H73      1.0000 0.53760  0.86590  0.62760  Biso   1.000  H
  H74      1.0000 0.13410  0.67170  0.62760  Biso   1.000  H
  H75      1.0000 0.32830  0.46240  0.62760  Biso   1.000  H
  H76      1.0000 0.86590  0.53760  0.87240  Biso   1.000  H
  H77      1.0000 0.20427  0.19923  0.96093  Biso   1.000  H
  H78      1.0000 0.80077  0.00503  0.96093  Biso   1.000  H
  H79      1.0000 0.99497  0.79573  0.96093  Biso   1.000  H
  H80      1.0000 0.53257  0.87093  0.20573  Biso   1.000  H
  H81      1.0000 0.87093  0.53257  0.29427  Biso   1.000  H
  H82      1.0000 0.19923  0.20427  0.53907  Biso   1.000  H
  H83      1.0000 0.67170  0.13410  0.87240  Biso   1.000  H
  H84      1.0000 0.46240  0.32830  0.87240  Biso   1.000  H
  H85      1.0000 0.46743  0.33837  0.29427  Biso   1.000  H
  H86      1.0000 0.66163  0.12907  0.29427  Biso   1.000  H
  H87      1.0000 0.00503  0.80077  0.53907  Biso   1.000  H
  H88      1.0000 0.79573  0.99497  0.53907  Biso   1.000  H
  H89      1.0000 0.33837  0.46743  0.20573  Biso   1.000  H
  H90      1.0000 0.12907  0.66163  0.20573  Biso   1.000  H
  H91      1.0000 0.46240  0.13410  0.37240  Biso   1.000  H
  H92      1.0000 0.86590  0.32830  0.37240  Biso   1.000  H
  H93      1.0000 0.67170  0.53760  0.37240  Biso   1.000  H
  H94      1.0000 0.13410  0.46240  0.12760  Biso   1.000  H
  H95      1.0000 0.12907  0.46743  0.70573  Biso   1.000  H
  H96      1.0000 0.53257  0.66163  0.70573  Biso   1.000  H
  H97      1.0000 0.33837  0.87093  0.70573  Biso   1.000  H
  H98      1.0000 0.80077  0.79573  0.46093  Biso   1.000  H
  H99      1.0000 0.79573  0.80077  0.03907  Biso   1.000  H
  H100     1.0000 0.46743  0.12907  0.79427  Biso   1.000  H
  H101     1.0000 0.32830  0.86590  0.12760  Biso   1.000  H
  H102     1.0000 0.53760  0.67170  0.12760  Biso   1.000  H
  H103     1.0000 0.19923  0.99497  0.03907  Biso   1.000  H
  H104     1.0000 0.00503  0.20427  0.03907  Biso   1.000  H
  H105     1.0000 0.66163  0.53257  0.79427  Biso   1.000  H
  H106     1.0000 0.87093  0.33837  0.79427  Biso   1.000  H
  H107     1.0000 0.99497  0.19923  0.46093  Biso   1.000  H
  H108     1.0000 0.20427  0.00503  0.46093  Biso   1.000  H
  C181     1.0000 0.62730  0.87770  0.64379  Biso   1.000  C
  C182     1.0000 0.12230  0.74960  0.64379  Biso   1.000  C
  C183     1.0000 0.25040  0.37270  0.64379  Biso   1.000  C
  C184     1.0000 0.87770  0.62730  0.85621  Biso   1.000  C
  C185     1.0000 0.29397  0.21103  0.97712  Biso   1.000  C
  C186     1.0000 0.78897  0.08293  0.97712  Biso   1.000  C
  C187     1.0000 0.91707  0.70603  0.97712  Biso   1.000  C
  C188     1.0000 0.54437  0.96063  0.18954  Biso   1.000  C
  C189     1.0000 0.96063  0.54437  0.31046  Biso   1.000  C
  C190     1.0000 0.21103  0.29397  0.52288  Biso   1.000  C
  C191     1.0000 0.74960  0.12230  0.85621  Biso   1.000  C
  C192     1.0000 0.37270  0.25040  0.85621  Biso   1.000  C
  C193     1.0000 0.45563  0.41627  0.31046  Biso   1.000  C
  C194     1.0000 0.58373  0.03937  0.31046  Biso   1.000  C
  C195     1.0000 0.08293  0.78897  0.52288  Biso   1.000  C
  C196     1.0000 0.70603  0.91707  0.52288  Biso   1.000  C
  C197     1.0000 0.41627  0.45563  0.18954  Biso   1.000  C
  C198     1.0000 0.03937  0.58373  0.18954  Biso   1.000  C
  C199     1.0000 0.37270  0.12230  0.35621  Biso   1.000  C
  C200     1.0000 0.87770  0.25040  0.35621  Biso   1.000  C
  C201     1.0000 0.74960  0.62730  0.35621  Biso   1.000  C
  C202     1.0000 0.12230  0.37270  0.14379  Biso   1.000  C
  C203     1.0000 0.03937  0.45563  0.68954  Biso   1.000  C
  C204     1.0000 0.54437  0.58373  0.68954  Biso   1.000  C
  C205     1.0000 0.41627  0.96063  0.68954  Biso   1.000  C
  C206     1.0000 0.78897  0.70603  0.47712  Biso   1.000  C
  C207     1.0000 0.70603  0.78897  0.02288  Biso   1.000  C
  C208     1.0000 0.45563  0.03937  0.81046  Biso   1.000  C
  C209     1.0000 0.25040  0.87770  0.14379  Biso   1.000  C
  C210     1.0000 0.62730  0.74960  0.14379  Biso   1.000  C
  C211     1.0000 0.21103  0.91707  0.02288  Biso   1.000  C
  C212     1.0000 0.08293  0.29397  0.02288  Biso   1.000  C
  C213     1.0000 0.58373  0.54437  0.81046  Biso   1.000  C
  C214     1.0000 0.96063  0.41627  0.81046  Biso   1.000  C
  C215     1.0000 0.91707  0.21103  0.47712  Biso   1.000  C
  C216     1.0000 0.29397  0.08293  0.47712  Biso   1.000  C
  H109     1.0000 0.67070  0.94700  0.64300  Biso   1.000  H
  H110     1.0000 0.05300  0.72370  0.64300  Biso   1.000  H
  H111     1.0000 0.27630  0.32930  0.64300  Biso   1.000  H
  H112     1.0000 0.94700  0.67070  0.85700  Biso   1.000  H
  H113     1.0000 0.33737  0.28033  0.97633  Biso   1.000  H
  H114     1.0000 0.71967  0.05703  0.97633  Biso   1.000  H
  H115     1.0000 0.94297  0.66263  0.97633  Biso   1.000  H
  H116     1.0000 0.61367  0.00403  0.19033  Biso   1.000  H
  H117     1.0000 0.00403  0.61367  0.30967  Biso   1.000  H
  H118     1.0000 0.28033  0.33737  0.52367  Biso   1.000  H
  H119     1.0000 0.72370  0.05300  0.85700  Biso   1.000  H
  H120     1.0000 0.32930  0.27630  0.85700  Biso   1.000  H
  H121     1.0000 0.38633  0.39037  0.30967  Biso   1.000  H
  H122     1.0000 0.60963  0.99597  0.30967  Biso   1.000  H
  H123     1.0000 0.05703  0.71967  0.52367  Biso   1.000  H
  H124     1.0000 0.66263  0.94297  0.52367  Biso   1.000  H
  H125     1.0000 0.39037  0.38633  0.19033  Biso   1.000  H
  H126     1.0000 0.99597  0.60963  0.19033  Biso   1.000  H
  H127     1.0000 0.32930  0.05300  0.35700  Biso   1.000  H
  H128     1.0000 0.94700  0.27630  0.35700  Biso   1.000  H
  H129     1.0000 0.72370  0.67070  0.35700  Biso   1.000  H
  H130     1.0000 0.05300  0.32930  0.14300  Biso   1.000  H
  H131     1.0000 0.99597  0.38633  0.69033  Biso   1.000  H
  H132     1.0000 0.61367  0.60963  0.69033  Biso   1.000  H
  H133     1.0000 0.39037  0.00403  0.69033  Biso   1.000  H
  H134     1.0000 0.71967  0.66263  0.47633  Biso   1.000  H
  H135     1.0000 0.66263  0.71967  0.02367  Biso   1.000  H
  H136     1.0000 0.38633  0.99597  0.80967  Biso   1.000  H
  H137     1.0000 0.27630  0.94700  0.14300  Biso   1.000  H
  H138     1.0000 0.67070  0.72370  0.14300  Biso   1.000  H
  H139     1.0000 0.28033  0.94297  0.02367  Biso   1.000  H
  H140     1.0000 0.05703  0.33737  0.02367  Biso   1.000  H
  H141     1.0000 0.60963  0.61367  0.80967  Biso   1.000  H
  H142     1.0000 0.00403  0.39037  0.80967  Biso   1.000  H
  H143     1.0000 0.94297  0.28033  0.47633  Biso   1.000  H
  H144     1.0000 0.33737  0.05703  0.47633  Biso   1.000  H
  C217     1.0000 0.59090  0.14110  0.63228  Biso   1.000  C
  C218     1.0000 0.85890  0.44980  0.63228  Biso   1.000  C
  C219     1.0000 0.55020  0.40910  0.63228  Biso   1.000  C
  C220     1.0000 0.14110  0.59090  0.86772  Biso   1.000  C
  C221     1.0000 0.25757  0.47443  0.96561  Biso   1.000  C
  C222     1.0000 0.52557  0.78313  0.96561  Biso   1.000  C
  C223     1.0000 0.21687  0.74243  0.96561  Biso   1.000  C
  C224     1.0000 0.80777  0.92423  0.20105  Biso   1.000  C
  C225     1.0000 0.92423  0.80777  0.29895  Biso   1.000  C
  C226     1.0000 0.47443  0.25757  0.53439  Biso   1.000  C
  C227     1.0000 0.44980  0.85890  0.86772  Biso   1.000  C
  C228     1.0000 0.40910  0.55020  0.86772  Biso   1.000  C
  C229     1.0000 0.19223  0.11647  0.29895  Biso   1.000  C
  C230     1.0000 0.88353  0.07577  0.29895  Biso   1.000  C
  C231     1.0000 0.78313  0.52557  0.53439  Biso   1.000  C
  C232     1.0000 0.74243  0.21687  0.53439  Biso   1.000  C
  C233     1.0000 0.11647  0.19223  0.20105  Biso   1.000  C
  C234     1.0000 0.07577  0.88353  0.20105  Biso   1.000  C
  C235     1.0000 0.40910  0.85890  0.36772  Biso   1.000  C
  C236     1.0000 0.14110  0.55020  0.36772  Biso   1.000  C
  C237     1.0000 0.44980  0.59090  0.36772  Biso   1.000  C
  C238     1.0000 0.85890  0.40910  0.13228  Biso   1.000  C
  C239     1.0000 0.07577  0.19223  0.70105  Biso   1.000  C
  C240     1.0000 0.80777  0.88353  0.70105  Biso   1.000  C
  C241     1.0000 0.11647  0.92423  0.70105  Biso   1.000  C
  C242     1.0000 0.52557  0.74243  0.46561  Biso   1.000  C
  C243     1.0000 0.74243  0.52557  0.03439  Biso   1.000  C
  C244     1.0000 0.19223  0.07577  0.79895  Biso   1.000  C
  C245     1.0000 0.55020  0.14110  0.13228  Biso   1.000  C
  C246     1.0000 0.59090  0.44980  0.13228  Biso   1.000  C
  C247     1.0000 0.47443  0.21687  0.03439  Biso   1.000  C
  C248     1.0000 0.78313  0.25757  0.03439  Biso   1.000  C
  C249     1.0000 0.88353  0.80777  0.79895  Biso   1.000  C
  C250     1.0000 0.92423  0.11647  0.79895  Biso   1.000  C
  C251     1.0000 0.21687  0.47443  0.46561  Biso   1.000  C
  C252     1.0000 0.25757  0.78313  0.46561  Biso   1.000  C
  C253     1.0000 0.52180  0.06630  0.62148  Biso   1.000  C
  C254     1.0000 0.93370  0.45550  0.62148  Biso   1.000  C
  C255     1.0000 0.54450  0.47820  0.62148  Biso   1.000  C
  C256     1.0000 0.06630  0.52180  0.87852  Biso   1.000  C
  C257     1.0000 0.18847  0.39963  0.95481  Biso   1.000  C
  C258     1.0000 0.60037  0.78883  0.95481  Biso   1.000  C
  C259     1.0000 0.21117  0.81153  0.95481  Biso   1.000  C
  C260     1.0000 0.73297  0.85513  0.21185  Biso   1.000  C
  C261     1.0000 0.85513  0.73297  0.28815  Biso   1.000  C
  C262     1.0000 0.39963  0.18847  0.54519  Biso   1.000  C
  C263     1.0000 0.45550  0.93370  0.87852  Biso   1.000  C
  C264     1.0000 0.47820  0.54450  0.87852  Biso   1.000  C
  C265     1.0000 0.26703  0.12217  0.28815  Biso   1.000  C
  C266     1.0000 0.87783  0.14487  0.28815  Biso   1.000  C
  C267     1.0000 0.78883  0.60037  0.54519  Biso   1.000  C
  C268     1.0000 0.81153  0.21117  0.54519  Biso   1.000  C
  C269     1.0000 0.12217  0.26703  0.21185  Biso   1.000  C
  C270     1.0000 0.14487  0.87783  0.21185  Biso   1.000  C
  C271     1.0000 0.47820  0.93370  0.37852  Biso   1.000  C
  C272     1.0000 0.06630  0.54450  0.37852  Biso   1.000  C
  C273     1.0000 0.45550  0.52180  0.37852  Biso   1.000  C
  C274     1.0000 0.93370  0.47820  0.12148  Biso   1.000  C
  C275     1.0000 0.14487  0.26703  0.71185  Biso   1.000  C
  C276     1.0000 0.73297  0.87783  0.71185  Biso   1.000  C
  C277     1.0000 0.12217  0.85513  0.71185  Biso   1.000  C
  C278     1.0000 0.60037  0.81153  0.45481  Biso   1.000  C
  C279     1.0000 0.81153  0.60037  0.04519  Biso   1.000  C
  C280     1.0000 0.26703  0.14487  0.78815  Biso   1.000  C
  C281     1.0000 0.54450  0.06630  0.12148  Biso   1.000  C
  C282     1.0000 0.52180  0.45550  0.12148  Biso   1.000  C
  C283     1.0000 0.39963  0.21117  0.04519  Biso   1.000  C
  C284     1.0000 0.78883  0.18847  0.04519  Biso   1.000  C
  C285     1.0000 0.87783  0.73297  0.78815  Biso   1.000  C
  C286     1.0000 0.85513  0.12217  0.78815  Biso   1.000  C
  C287     1.0000 0.21117  0.39963  0.45481  Biso   1.000  C
  C288     1.0000 0.18847  0.78883  0.45481  Biso   1.000  C
  C289     1.0000 0.41840  0.02430  0.62248  Biso   1.000  C
  C290     1.0000 0.97570  0.39410  0.62248  Biso   1.000  C
  C291     1.0000 0.60590  0.58160  0.62248  Biso   1.000  C
  C292     1.0000 0.02430  0.41840  0.87752  Biso   1.000  C
  C293     1.0000 0.08507  0.35763  0.95581  Biso   1.000  C
  C294     1.0000 0.64237  0.72743  0.95581  Biso   1.000  C
  C295     1.0000 0.27257  0.91493  0.95581  Biso   1.000  C
  C296     1.0000 0.69097  0.75173  0.21085  Biso   1.000  C
  C297     1.0000 0.75173  0.69097  0.28915  Biso   1.000  C
  C298     1.0000 0.35763  0.08507  0.54419  Biso   1.000  C
  C299     1.0000 0.39410  0.97570  0.87752  Biso   1.000  C
  C300     1.0000 0.58160  0.60590  0.87752  Biso   1.000  C
  C301     1.0000 0.30903  0.06077  0.28915  Biso   1.000  C
  C302     1.0000 0.93923  0.24827  0.28915  Biso   1.000  C
  C303     1.0000 0.72743  0.64237  0.54419  Biso   1.000  C
  C304     1.0000 0.91493  0.27257  0.54419  Biso   1.000  C
  C305     1.0000 0.06077  0.30903  0.21085  Biso   1.000  C
  C306     1.0000 0.24827  0.93923  0.21085  Biso   1.000  C
  C307     1.0000 0.58160  0.97570  0.37752  Biso   1.000  C
  C308     1.0000 0.02430  0.60590  0.37752  Biso   1.000  C
  C309     1.0000 0.39410  0.41840  0.37752  Biso   1.000  C
  C310     1.0000 0.97570  0.58160  0.12248  Biso   1.000  C
  C311     1.0000 0.24827  0.30903  0.71085  Biso   1.000  C
  C312     1.0000 0.69097  0.93923  0.71085  Biso   1.000  C
  C313     1.0000 0.06077  0.75173  0.71085  Biso   1.000  C
  C314     1.0000 0.64237  0.91493  0.45581  Biso   1.000  C
  C315     1.0000 0.91493  0.64237  0.04419  Biso   1.000  C
  C316     1.0000 0.30903  0.24827  0.78915  Biso   1.000  C
  C317     1.0000 0.60590  0.02430  0.12248  Biso   1.000  C
  C318     1.0000 0.41840  0.39410  0.12248  Biso   1.000  C
  C319     1.0000 0.35763  0.27257  0.04419  Biso   1.000  C
  C320     1.0000 0.72743  0.08507  0.04419  Biso   1.000  C
  C321     1.0000 0.93923  0.69097  0.78915  Biso   1.000  C
  C322     1.0000 0.75173  0.06077  0.78915  Biso   1.000  C
  C323     1.0000 0.27257  0.35763  0.45581  Biso   1.000  C
  C324     1.0000 0.08507  0.72743  0.45581  Biso   1.000  C
  H145     1.0000 0.39020  0.04270  0.62990  Biso   1.000  H
  H146     1.0000 0.95730  0.34750  0.62990  Biso   1.000  H
  H147     1.0000 0.65250  0.60980  0.62990  Biso   1.000  H
  H148     1.0000 0.04270  0.39020  0.87010  Biso   1.000  H
  H149     1.0000 0.05687  0.37603  0.96323  Biso   1.000  H
  H150     1.0000 0.62397  0.68083  0.96323  Biso   1.000  H
  H151     1.0000 0.31917  0.94313  0.96323  Biso   1.000  H
  H152     1.0000 0.70937  0.72353  0.20343  Biso   1.000  H
  H153     1.0000 0.72353  0.70937  0.29657  Biso   1.000  H
  H154     1.0000 0.37603  0.05687  0.53677  Biso   1.000  H
  H155     1.0000 0.34750  0.95730  0.87010  Biso   1.000  H
  H156     1.0000 0.60980  0.65250  0.87010  Biso   1.000  H
  H157     1.0000 0.29063  0.01417  0.29657  Biso   1.000  H
  H158     1.0000 0.98583  0.27647  0.29657  Biso   1.000  H
  H159     1.0000 0.68083  0.62397  0.53677  Biso   1.000  H
  H160     1.0000 0.94313  0.31917  0.53677  Biso   1.000  H
  H161     1.0000 0.01417  0.29063  0.20343  Biso   1.000  H
  H162     1.0000 0.27647  0.98583  0.20343  Biso   1.000  H
  H163     1.0000 0.60980  0.95730  0.37010  Biso   1.000  H
  H164     1.0000 0.04270  0.65250  0.37010  Biso   1.000  H
  H165     1.0000 0.34750  0.39020  0.37010  Biso   1.000  H
  H166     1.0000 0.95730  0.60980  0.12990  Biso   1.000  H
  H167     1.0000 0.27647  0.29063  0.70343  Biso   1.000  H
  H168     1.0000 0.70937  0.98583  0.70343  Biso   1.000  H
  H169     1.0000 0.01417  0.72353  0.70343  Biso   1.000  H
  H170     1.0000 0.62397  0.94313  0.46323  Biso   1.000  H
  H171     1.0000 0.94313  0.62397  0.03677  Biso   1.000  H
  H172     1.0000 0.29063  0.27647  0.79657  Biso   1.000  H
  H173     1.0000 0.65250  0.04270  0.12990  Biso   1.000  H
  H174     1.0000 0.39020  0.34750  0.12990  Biso   1.000  H
  H175     1.0000 0.37603  0.31917  0.03677  Biso   1.000  H
  H176     1.0000 0.68083  0.05687  0.03677  Biso   1.000  H
  H177     1.0000 0.98583  0.70937  0.79657  Biso   1.000  H
  H178     1.0000 0.72353  0.01417  0.79657  Biso   1.000  H
  H179     1.0000 0.31917  0.37603  0.46323  Biso   1.000  H
  H180     1.0000 0.05687  0.68083  0.46323  Biso   1.000  H
  C325     1.0000 0.35790  0.95530  0.61241  Biso   1.000  C
  C326     1.0000 0.04470  0.40260  0.61241  Biso   1.000  C
  C327     1.0000 0.59740  0.64210  0.61241  Biso   1.000  C
  C328     1.0000 0.95530  0.35790  0.88759  Biso   1.000  C
  C329     1.0000 0.02457  0.28863  0.94574  Biso   1.000  C
  C330     1.0000 0.71137  0.73593  0.94574  Biso   1.000  C
  C331     1.0000 0.26407  0.97543  0.94574  Biso   1.000  C
  C332     1.0000 0.62197  0.69123  0.22092  Biso   1.000  C
  C333     1.0000 0.69123  0.62197  0.27908  Biso   1.000  C
  C334     1.0000 0.28863  0.02457  0.55426  Biso   1.000  C
  C335     1.0000 0.40260  0.04470  0.88759  Biso   1.000  C
  C336     1.0000 0.64210  0.59740  0.88759  Biso   1.000  C
  C337     1.0000 0.37803  0.06927  0.27908  Biso   1.000  C
  C338     1.0000 0.93073  0.30877  0.27908  Biso   1.000  C
  C339     1.0000 0.73593  0.71137  0.55426  Biso   1.000  C
  C340     1.0000 0.97543  0.26407  0.55426  Biso   1.000  C
  C341     1.0000 0.06927  0.37803  0.22092  Biso   1.000  C
  C342     1.0000 0.30877  0.93073  0.22092  Biso   1.000  C
  C343     1.0000 0.64210  0.04470  0.38759  Biso   1.000  C
  C344     1.0000 0.95530  0.59740  0.38759  Biso   1.000  C
  C345     1.0000 0.40260  0.35790  0.38759  Biso   1.000  C
  C346     1.0000 0.04470  0.64210  0.11241  Biso   1.000  C
  C347     1.0000 0.30877  0.37803  0.72092  Biso   1.000  C
  C348     1.0000 0.62197  0.93073  0.72092  Biso   1.000  C
  C349     1.0000 0.06927  0.69123  0.72092  Biso   1.000  C
  C350     1.0000 0.71137  0.97543  0.44574  Biso   1.000  C
  C351     1.0000 0.97543  0.71137  0.05426  Biso   1.000  C
  C352     1.0000 0.37803  0.30877  0.77908  Biso   1.000  C
  C353     1.0000 0.59740  0.95530  0.11241  Biso   1.000  C
  C354     1.0000 0.35790  0.40260  0.11241  Biso   1.000  C
  C355     1.0000 0.28863  0.26407  0.05426  Biso   1.000  C
  C356     1.0000 0.73593  0.02457  0.05426  Biso   1.000  C
  C357     1.0000 0.93073  0.62197  0.77908  Biso   1.000  C
  C358     1.0000 0.69123  0.06927  0.77908  Biso   1.000  C
  C359     1.0000 0.26407  0.28863  0.44574  Biso   1.000  C
  C360     1.0000 0.02457  0.73593  0.44574  Biso   1.000  C
  H181     1.0000 0.28830  0.92740  0.61320  Biso   1.000  H
  H182     1.0000 0.07260  0.36090  0.61320  Biso   1.000  H
  H183     1.0000 0.63910  0.71170  0.61320  Biso   1.000  H
  H184     1.0000 0.92740  0.28830  0.88680  Biso   1.000  H
  H185     1.0000 0.95497  0.26073  0.94653  Biso   1.000  H
  H186     1.0000 0.73927  0.69423  0.94653  Biso   1.000  H
  H187     1.0000 0.30577  0.04503  0.94653  Biso   1.000  H
  H188     1.0000 0.59407  0.62163  0.22013  Biso   1.000  H
  H189     1.0000 0.62163  0.59407  0.27987  Biso   1.000  H
  H190     1.0000 0.26073  0.95497  0.55347  Biso   1.000  H
  H191     1.0000 0.36090  0.07260  0.88680  Biso   1.000  H
  H192     1.0000 0.71170  0.63910  0.88680  Biso   1.000  H
  H193     1.0000 0.40593  0.02757  0.27987  Biso   1.000  H
  H194     1.0000 0.97243  0.37837  0.27987  Biso   1.000  H
  H195     1.0000 0.69423  0.73927  0.55347  Biso   1.000  H
  H196     1.0000 0.04503  0.30577  0.55347  Biso   1.000  H
  H197     1.0000 0.02757  0.40593  0.22013  Biso   1.000  H
  H198     1.0000 0.37837  0.97243  0.22013  Biso   1.000  H
  H199     1.0000 0.71170  0.07260  0.38680  Biso   1.000  H
  H200     1.0000 0.92740  0.63910  0.38680  Biso   1.000  H
  H201     1.0000 0.36090  0.28830  0.38680  Biso   1.000  H
  H202     1.0000 0.07260  0.71170  0.11320  Biso   1.000  H
  H203     1.0000 0.37837  0.40593  0.72013  Biso   1.000  H
  H204     1.0000 0.59407  0.97243  0.72013  Biso   1.000  H
  H205     1.0000 0.02757  0.62163  0.72013  Biso   1.000  H
  H206     1.0000 0.73927  0.04503  0.44653  Biso   1.000  H
  H207     1.0000 0.04503  0.73927  0.05347  Biso   1.000  H
  H208     1.0000 0.40593  0.37837  0.77987  Biso   1.000  H
  H209     1.0000 0.63910  0.92740  0.11320  Biso   1.000  H
  H210     1.0000 0.28830  0.36090  0.11320  Biso   1.000  H
  H211     1.0000 0.26073  0.30577  0.05347  Biso   1.000  H
  H212     1.0000 0.69423  0.95497  0.05347  Biso   1.000  H
  H213     1.0000 0.97243  0.59407  0.77987  Biso   1.000  H
  H214     1.0000 0.62163  0.02757  0.77987  Biso   1.000  H
  H215     1.0000 0.30577  0.26073  0.44653  Biso   1.000  H
  H216     1.0000 0.95497  0.69423  0.44653  Biso   1.000  H
  C361     1.0000 0.49330  0.96430  0.60105  Biso   1.000  C
  C362     1.0000 0.03570  0.52900  0.60105  Biso   1.000  C
  C363     1.0000 0.47100  0.50670  0.60105  Biso   1.000  C
  C364     1.0000 0.96430  0.49330  0.89895  Biso   1.000  C
  C365     1.0000 0.15997  0.29763  0.93438  Biso   1.000  C
  C366     1.0000 0.70237  0.86233  0.93438  Biso   1.000  C
  C367     1.0000 0.13767  0.84003  0.93438  Biso   1.000  C
  C368     1.0000 0.63097  0.82663  0.23228  Biso   1.000  C
  C369     1.0000 0.82663  0.63097  0.26772  Biso   1.000  C
  C370     1.0000 0.29763  0.15997  0.56562  Biso   1.000  C
  C371     1.0000 0.52900  0.03570  0.89895  Biso   1.000  C
  C372     1.0000 0.50670  0.47100  0.89895  Biso   1.000  C
  C373     1.0000 0.36903  0.19567  0.26772  Biso   1.000  C
  C374     1.0000 0.80433  0.17337  0.26772  Biso   1.000  C
  C375     1.0000 0.86233  0.70237  0.56562  Biso   1.000  C
  C376     1.0000 0.84003  0.13767  0.56562  Biso   1.000  C
  C377     1.0000 0.19567  0.36903  0.23228  Biso   1.000  C
  C378     1.0000 0.17337  0.80433  0.23228  Biso   1.000  C
  C379     1.0000 0.50670  0.03570  0.39895  Biso   1.000  C
  C380     1.0000 0.96430  0.47100  0.39895  Biso   1.000  C
  C381     1.0000 0.52900  0.49330  0.39895  Biso   1.000  C
  C382     1.0000 0.03570  0.50670  0.10105  Biso   1.000  C
  C383     1.0000 0.17337  0.36903  0.73228  Biso   1.000  C
  C384     1.0000 0.63097  0.80433  0.73228  Biso   1.000  C
  C385     1.0000 0.19567  0.82663  0.73228  Biso   1.000  C
  C386     1.0000 0.70237  0.84003  0.43438  Biso   1.000  C
  C387     1.0000 0.84003  0.70237  0.06562  Biso   1.000  C
  C388     1.0000 0.36903  0.17337  0.76772  Biso   1.000  C
  C389     1.0000 0.47100  0.96430  0.10105  Biso   1.000  C
  C390     1.0000 0.49330  0.52900  0.10105  Biso   1.000  C
  C391     1.0000 0.29763  0.13767  0.06562  Biso   1.000  C
  C392     1.0000 0.86233  0.15997  0.06562  Biso   1.000  C
  C393     1.0000 0.80433  0.63097  0.76772  Biso   1.000  C
  C394     1.0000 0.82663  0.19567  0.76772  Biso   1.000  C
  C395     1.0000 0.13767  0.29763  0.43438  Biso   1.000  C
  C396     1.0000 0.15997  0.86233  0.43438  Biso   1.000  C
  H217     1.0000 0.51970  0.94270  0.59390  Biso   1.000  H
  H218     1.0000 0.05730  0.57700  0.59390  Biso   1.000  H
  H219     1.0000 0.42300  0.48030  0.59390  Biso   1.000  H
  H220     1.0000 0.94270  0.51970  0.90610  Biso   1.000  H
  H221     1.0000 0.18637  0.27603  0.92723  Biso   1.000  H
  H222     1.0000 0.72397  0.91033  0.92723  Biso   1.000  H
  H223     1.0000 0.08967  0.81363  0.92723  Biso   1.000  H
  H224     1.0000 0.60937  0.85303  0.23943  Biso   1.000  H
  H225     1.0000 0.85303  0.60937  0.26057  Biso   1.000  H
  H226     1.0000 0.27603  0.18637  0.57277  Biso   1.000  H
  H227     1.0000 0.57700  0.05730  0.90610  Biso   1.000  H
  H228     1.0000 0.48030  0.42300  0.90610  Biso   1.000  H
  H229     1.0000 0.39063  0.24367  0.26057  Biso   1.000  H
  H230     1.0000 0.75633  0.14697  0.26057  Biso   1.000  H
  H231     1.0000 0.91033  0.72397  0.57277  Biso   1.000  H
  H232     1.0000 0.81363  0.08967  0.57277  Biso   1.000  H
  H233     1.0000 0.24367  0.39063  0.23943  Biso   1.000  H
  H234     1.0000 0.14697  0.75633  0.23943  Biso   1.000  H
  H235     1.0000 0.48030  0.05730  0.40610  Biso   1.000  H
  H236     1.0000 0.94270  0.42300  0.40610  Biso   1.000  H
  H237     1.0000 0.57700  0.51970  0.40610  Biso   1.000  H
  H238     1.0000 0.05730  0.48030  0.09390  Biso   1.000  H
  H239     1.0000 0.14697  0.39063  0.73943  Biso   1.000  H
  H240     1.0000 0.60937  0.75633  0.73943  Biso   1.000  H
  H241     1.0000 0.24367  0.85303  0.73943  Biso   1.000  H
  H242     1.0000 0.72397  0.81363  0.42723  Biso   1.000  H
  H243     1.0000 0.81363  0.72397  0.07277  Biso   1.000  H
  H244     1.0000 0.39063  0.14697  0.76057  Biso   1.000  H
  H245     1.0000 0.42300  0.94270  0.09390  Biso   1.000  H
  H246     1.0000 0.51970  0.57700  0.09390  Biso   1.000  H
  H247     1.0000 0.27603  0.08967  0.07277  Biso   1.000  H
  H248     1.0000 0.91033  0.18637  0.07277  Biso   1.000  H
  H249     1.0000 0.75633  0.60937  0.76057  Biso   1.000  H
  H250     1.0000 0.85303  0.24367  0.76057  Biso   1.000  H
  H251     1.0000 0.08967  0.27603  0.42723  Biso   1.000  H
  H252     1.0000 0.18637  0.91033  0.42723  Biso   1.000  H
  C397     1.0000 0.55930  0.03400  0.61061  Biso   1.000  C
  C398     1.0000 0.96600  0.52530  0.61061  Biso   1.000  C
  C399     1.0000 0.47470  0.44070  0.61061  Biso   1.000  C
  C400     1.0000 0.03400  0.55930  0.88939  Biso   1.000  C
  C401     1.0000 0.22597  0.36733  0.94394  Biso   1.000  C
  C402     1.0000 0.63267  0.85863  0.94394  Biso   1.000  C
  C403     1.0000 0.14137  0.77403  0.94394  Biso   1.000  C
  C404     1.0000 0.70067  0.89263  0.22272  Biso   1.000  C
  C405     1.0000 0.89263  0.70067  0.27728  Biso   1.000  C
  C406     1.0000 0.36733  0.22597  0.55606  Biso   1.000  C
  C407     1.0000 0.52530  0.96600  0.88939  Biso   1.000  C
  C408     1.0000 0.44070  0.47470  0.88939  Biso   1.000  C
  C409     1.0000 0.29933  0.19197  0.27728  Biso   1.000  C
  C410     1.0000 0.80803  0.10737  0.27728  Biso   1.000  C
  C411     1.0000 0.85863  0.63267  0.55606  Biso   1.000  C
  C412     1.0000 0.77403  0.14137  0.55606  Biso   1.000  C
  C413     1.0000 0.19197  0.29933  0.22272  Biso   1.000  C
  C414     1.0000 0.10737  0.80803  0.22272  Biso   1.000  C
  C415     1.0000 0.44070  0.96600  0.38939  Biso   1.000  C
  C416     1.0000 0.03400  0.47470  0.38939  Biso   1.000  C
  C417     1.0000 0.52530  0.55930  0.38939  Biso   1.000  C
  C418     1.0000 0.96600  0.44070  0.11061  Biso   1.000  C
  C419     1.0000 0.10737  0.29933  0.72272  Biso   1.000  C
  C420     1.0000 0.70067  0.80803  0.72272  Biso   1.000  C
  C421     1.0000 0.19197  0.89263  0.72272  Biso   1.000  C
  C422     1.0000 0.63267  0.77403  0.44394  Biso   1.000  C
  C423     1.0000 0.77403  0.63267  0.05606  Biso   1.000  C
  C424     1.0000 0.29933  0.10737  0.77728  Biso   1.000  C
  C425     1.0000 0.47470  0.03400  0.11061  Biso   1.000  C
  C426     1.0000 0.55930  0.52530  0.11061  Biso   1.000  C
  C427     1.0000 0.36733  0.14137  0.05606  Biso   1.000  C
  C428     1.0000 0.85863  0.22597  0.05606  Biso   1.000  C
  C429     1.0000 0.80803  0.70067  0.77728  Biso   1.000  C
  C430     1.0000 0.89263  0.19197  0.77728  Biso   1.000  C
  C431     1.0000 0.14137  0.36733  0.44394  Biso   1.000  C
  C432     1.0000 0.22597  0.85863  0.44394  Biso   1.000  C
  H253     1.0000 0.62840  0.05910  0.60980  Biso   1.000  H
  H254     1.0000 0.94090  0.56930  0.60980  Biso   1.000  H
  H255     1.0000 0.43070  0.37160  0.60980  Biso   1.000  H
  H256     1.0000 0.05910  0.62840  0.89020  Biso   1.000  H
  H257     1.0000 0.29507  0.39243  0.94313  Biso   1.000  H
  H258     1.0000 0.60757  0.90263  0.94313  Biso   1.000  H
  H259     1.0000 0.09737  0.70493  0.94313  Biso   1.000  H
  H260     1.0000 0.72577  0.96173  0.22353  Biso   1.000  H
  H261     1.0000 0.96173  0.72577  0.27647  Biso   1.000  H
  H262     1.0000 0.39243  0.29507  0.55687  Biso   1.000  H
  H263     1.0000 0.56930  0.94090  0.89020  Biso   1.000  H
  H264     1.0000 0.37160  0.43070  0.89020  Biso   1.000  H
  H265     1.0000 0.27423  0.23597  0.27647  Biso   1.000  H
  H266     1.0000 0.76403  0.03827  0.27647  Biso   1.000  H
  H267     1.0000 0.90263  0.60757  0.55687  Biso   1.000  H
  H268     1.0000 0.70493  0.09737  0.55687  Biso   1.000  H
  H269     1.0000 0.23597  0.27423  0.22353  Biso   1.000  H
  H270     1.0000 0.03827  0.76403  0.22353  Biso   1.000  H
  H271     1.0000 0.37160  0.94090  0.39020  Biso   1.000  H
  H272     1.0000 0.05910  0.43070  0.39020  Biso   1.000  H
  H273     1.0000 0.56930  0.62840  0.39020  Biso   1.000  H
  H274     1.0000 0.94090  0.37160  0.10980  Biso   1.000  H
  H275     1.0000 0.03827  0.27423  0.72353  Biso   1.000  H
  H276     1.0000 0.72577  0.76403  0.72353  Biso   1.000  H
  H277     1.0000 0.23597  0.96173  0.72353  Biso   1.000  H
  H278     1.0000 0.60757  0.70493  0.44313  Biso   1.000  H
  H279     1.0000 0.70493  0.60757  0.05687  Biso   1.000  H
  H280     1.0000 0.27423  0.03827  0.77647  Biso   1.000  H
  H281     1.0000 0.43070  0.05910  0.10980  Biso   1.000  H
  H282     1.0000 0.62840  0.56930  0.10980  Biso   1.000  H
  H283     1.0000 0.39243  0.09737  0.05687  Biso   1.000  H
  H284     1.0000 0.90263  0.29507  0.05687  Biso   1.000  H
  H285     1.0000 0.76403  0.72577  0.77647  Biso   1.000  H
  H286     1.0000 0.96173  0.23597  0.77647  Biso   1.000  H
  H287     1.0000 0.09737  0.39243  0.44313  Biso   1.000  H
  H288     1.0000 0.29507  0.90263  0.44313  Biso   1.000  H
  C433     1.0000 0.43120  0.90440  0.52190  Biso   1.000  C
  C434     1.0000 0.09560  0.52680  0.52190  Biso   1.000  C
  C435     1.0000 0.47320  0.56880  0.52190  Biso   1.000  C
  C436     1.0000 0.90440  0.43120  0.97810  Biso   1.000  C
  C437     1.0000 0.09787  0.23773  0.85523  Biso   1.000  C
  C438     1.0000 0.76227  0.86013  0.85523  Biso   1.000  C
  C439     1.0000 0.13987  0.90213  0.85523  Biso   1.000  C
  C440     1.0000 0.57107  0.76453  0.31143  Biso   1.000  C
  C441     1.0000 0.76453  0.57107  0.18857  Biso   1.000  C
  C442     1.0000 0.23773  0.09787  0.64477  Biso   1.000  C
  C443     1.0000 0.52680  0.09560  0.97810  Biso   1.000  C
  C444     1.0000 0.56880  0.47320  0.97810  Biso   1.000  C
  C445     1.0000 0.42893  0.19347  0.18857  Biso   1.000  C
  C446     1.0000 0.80653  0.23547  0.18857  Biso   1.000  C
  C447     1.0000 0.86013  0.76227  0.64477  Biso   1.000  C
  C448     1.0000 0.90213  0.13987  0.64477  Biso   1.000  C
  C449     1.0000 0.19347  0.42893  0.31143  Biso   1.000  C
  C450     1.0000 0.23547  0.80653  0.31143  Biso   1.000  C
  C451     1.0000 0.56880  0.09560  0.47810  Biso   1.000  C
  C452     1.0000 0.90440  0.47320  0.47810  Biso   1.000  C
  C453     1.0000 0.52680  0.43120  0.47810  Biso   1.000  C
  C454     1.0000 0.09560  0.56880  0.02190  Biso   1.000  C
  C455     1.0000 0.23547  0.42893  0.81143  Biso   1.000  C
  C456     1.0000 0.57107  0.80653  0.81143  Biso   1.000  C
  C457     1.0000 0.19347  0.76453  0.81143  Biso   1.000  C
  C458     1.0000 0.76227  0.90213  0.35523  Biso   1.000  C
  C459     1.0000 0.90213  0.76227  0.14477  Biso   1.000  C
  C460     1.0000 0.42893  0.23547  0.68857  Biso   1.000  C
  C461     1.0000 0.47320  0.90440  0.02190  Biso   1.000  C
  C462     1.0000 0.43120  0.52680  0.02190  Biso   1.000  C
  C463     1.0000 0.23773  0.13987  0.14477  Biso   1.000  C
  C464     1.0000 0.86013  0.09787  0.14477  Biso   1.000  C
  C465     1.0000 0.80653  0.57107  0.68857  Biso   1.000  C
  C466     1.0000 0.76453  0.19347  0.68857  Biso   1.000  C
  C467     1.0000 0.13987  0.23773  0.35523  Biso   1.000  C
  C468     1.0000 0.09787  0.86013  0.35523  Biso   1.000  C
  C469     1.0000 0.40860  0.88500  0.53748  Biso   1.000  C
  C470     1.0000 0.11500  0.52360  0.53748  Biso   1.000  C
  C471     1.0000 0.47640  0.59140  0.53748  Biso   1.000  C
  C472     1.0000 0.88500  0.40860  0.96252  Biso   1.000  C
  C473     1.0000 0.07527  0.21833  0.87081  Biso   1.000  C
  C474     1.0000 0.78167  0.85693  0.87081  Biso   1.000  C
  C475     1.0000 0.14307  0.92473  0.87081  Biso   1.000  C
  C476     1.0000 0.55167  0.74193  0.29585  Biso   1.000  C
  C477     1.0000 0.74193  0.55167  0.20415  Biso   1.000  C
  C478     1.0000 0.21833  0.07527  0.62919  Biso   1.000  C
  C479     1.0000 0.52360  0.11500  0.96252  Biso   1.000  C
  C480     1.0000 0.59140  0.47640  0.96252  Biso   1.000  C
  C481     1.0000 0.44833  0.19027  0.20415  Biso   1.000  C
  C482     1.0000 0.80973  0.25807  0.20415  Biso   1.000  C
  C483     1.0000 0.85693  0.78167  0.62919  Biso   1.000  C
  C484     1.0000 0.92473  0.14307  0.62919  Biso   1.000  C
  C485     1.0000 0.19027  0.44833  0.29585  Biso   1.000  C
  C486     1.0000 0.25807  0.80973  0.29585  Biso   1.000  C
  C487     1.0000 0.59140  0.11500  0.46252  Biso   1.000  C
  C488     1.0000 0.88500  0.47640  0.46252  Biso   1.000  C
  C489     1.0000 0.52360  0.40860  0.46252  Biso   1.000  C
  C490     1.0000 0.11500  0.59140  0.03748  Biso   1.000  C
  C491     1.0000 0.25807  0.44833  0.79585  Biso   1.000  C
  C492     1.0000 0.55167  0.80973  0.79585  Biso   1.000  C
  C493     1.0000 0.19027  0.74193  0.79585  Biso   1.000  C
  C494     1.0000 0.78167  0.92473  0.37081  Biso   1.000  C
  C495     1.0000 0.92473  0.78167  0.12919  Biso   1.000  C
  C496     1.0000 0.44833  0.25807  0.70415  Biso   1.000  C
  C497     1.0000 0.47640  0.88500  0.03748  Biso   1.000  C
  C498     1.0000 0.40860  0.52360  0.03748  Biso   1.000  C
  C499     1.0000 0.21833  0.14307  0.12919  Biso   1.000  C
  C500     1.0000 0.85693  0.07527  0.12919  Biso   1.000  C
  C501     1.0000 0.80973  0.55167  0.70415  Biso   1.000  C
  C502     1.0000 0.74193  0.19027  0.70415  Biso   1.000  C
  C503     1.0000 0.14307  0.21833  0.37081  Biso   1.000  C
  C504     1.0000 0.07527  0.85693  0.37081  Biso   1.000  C
  C505     1.0000 0.47070  0.95100  0.54789  Biso   1.000  C
  C506     1.0000 0.04900  0.51970  0.54789  Biso   1.000  C
  C507     1.0000 0.48030  0.52930  0.54789  Biso   1.000  C
  C508     1.0000 0.95100  0.47070  0.95211  Biso   1.000  C
  C509     1.0000 0.13737  0.28433  0.88122  Biso   1.000  C
  C510     1.0000 0.71567  0.85303  0.88122  Biso   1.000  C
  C511     1.0000 0.14697  0.86263  0.88122  Biso   1.000  C
  C512     1.0000 0.61767  0.80403  0.28544  Biso   1.000  C
  C513     1.0000 0.80403  0.61767  0.21456  Biso   1.000  C
  C514     1.0000 0.28433  0.13737  0.61878  Biso   1.000  C
  C515     1.0000 0.51970  0.04900  0.95211  Biso   1.000  C
  C516     1.0000 0.52930  0.48030  0.95211  Biso   1.000  C
  C517     1.0000 0.38233  0.18637  0.21456  Biso   1.000  C
  C518     1.0000 0.81363  0.19597  0.21456  Biso   1.000  C
  C519     1.0000 0.85303  0.71567  0.61878  Biso   1.000  C
  C520     1.0000 0.86263  0.14697  0.61878  Biso   1.000  C
  C521     1.0000 0.18637  0.38233  0.28544  Biso   1.000  C
  C522     1.0000 0.19597  0.81363  0.28544  Biso   1.000  C
  C523     1.0000 0.52930  0.04900  0.45211  Biso   1.000  C
  C524     1.0000 0.95100  0.48030  0.45211  Biso   1.000  C
  C525     1.0000 0.51970  0.47070  0.45211  Biso   1.000  C
  C526     1.0000 0.04900  0.52930  0.04789  Biso   1.000  C
  C527     1.0000 0.19597  0.38233  0.78544  Biso   1.000  C
  C528     1.0000 0.61767  0.81363  0.78544  Biso   1.000  C
  C529     1.0000 0.18637  0.80403  0.78544  Biso   1.000  C
  C530     1.0000 0.71567  0.86263  0.38122  Biso   1.000  C
  C531     1.0000 0.86263  0.71567  0.11878  Biso   1.000  C
  C532     1.0000 0.38233  0.19597  0.71456  Biso   1.000  C
  C533     1.0000 0.48030  0.95100  0.04789  Biso   1.000  C
  C534     1.0000 0.47070  0.51970  0.04789  Biso   1.000  C
  C535     1.0000 0.28433  0.14697  0.11878  Biso   1.000  C
  C536     1.0000 0.85303  0.13737  0.11878  Biso   1.000  C
  C537     1.0000 0.81363  0.61767  0.71456  Biso   1.000  C
  C538     1.0000 0.80403  0.18637  0.71456  Biso   1.000  C
  C539     1.0000 0.14697  0.28433  0.38122  Biso   1.000  C
  C540     1.0000 0.13737  0.85303  0.38122  Biso   1.000  C
  H289     1.0000 0.52970  0.00980  0.54540  Biso   1.000  H
  H290     1.0000 0.99020  0.51990  0.54540  Biso   1.000  H
  H291     1.0000 0.48010  0.47030  0.54540  Biso   1.000  H
  H292     1.0000 0.00980  0.52970  0.95460  Biso   1.000  H
  H293     1.0000 0.19637  0.34313  0.87873  Biso   1.000  H
  H294     1.0000 0.65687  0.85323  0.87873  Biso   1.000  H
  H295     1.0000 0.14677  0.80363  0.87873  Biso   1.000  H
  H296     1.0000 0.67647  0.86303  0.28793  Biso   1.000  H
  H297     1.0000 0.86303  0.67647  0.21207  Biso   1.000  H
  H298     1.0000 0.34313  0.19637  0.62127  Biso   1.000  H
  H299     1.0000 0.51990  0.99020  0.95460  Biso   1.000  H
  H300     1.0000 0.47030  0.48010  0.95460  Biso   1.000  H
  H301     1.0000 0.32353  0.18657  0.21207  Biso   1.000  H
  H302     1.0000 0.81343  0.13697  0.21207  Biso   1.000  H
  H303     1.0000 0.85323  0.65687  0.62127  Biso   1.000  H
  H304     1.0000 0.80363  0.14677  0.62127  Biso   1.000  H
  H305     1.0000 0.18657  0.32353  0.28793  Biso   1.000  H
  H306     1.0000 0.13697  0.81343  0.28793  Biso   1.000  H
  H307     1.0000 0.47030  0.99020  0.45460  Biso   1.000  H
  H308     1.0000 0.00980  0.48010  0.45460  Biso   1.000  H
  H309     1.0000 0.51990  0.52970  0.45460  Biso   1.000  H
  H310     1.0000 0.99020  0.47030  0.04540  Biso   1.000  H
  H311     1.0000 0.13697  0.32353  0.78793  Biso   1.000  H
  H312     1.0000 0.67647  0.81343  0.78793  Biso   1.000  H
  H313     1.0000 0.18657  0.86303  0.78793  Biso   1.000  H
  H314     1.0000 0.65687  0.80363  0.37873  Biso   1.000  H
  H315     1.0000 0.80363  0.65687  0.12127  Biso   1.000  H
  H316     1.0000 0.32353  0.13697  0.71207  Biso   1.000  H
  H317     1.0000 0.48010  0.00980  0.04540  Biso   1.000  H
  H318     1.0000 0.52970  0.51990  0.04540  Biso   1.000  H
  H319     1.0000 0.34313  0.14677  0.12127  Biso   1.000  H
  H320     1.0000 0.85323  0.19637  0.12127  Biso   1.000  H
  H321     1.0000 0.81343  0.67647  0.71207  Biso   1.000  H
  H322     1.0000 0.86303  0.18657  0.71207  Biso   1.000  H
  H323     1.0000 0.14677  0.34313  0.37873  Biso   1.000  H
  H324     1.0000 0.19637  0.85323  0.37873  Biso   1.000  H
  C541     1.0000 0.44340  0.92800  0.56211  Biso   1.000  C
  C542     1.0000 0.07200  0.51540  0.56211  Biso   1.000  C
  C543     1.0000 0.48460  0.55660  0.56211  Biso   1.000  C
  C544     1.0000 0.92800  0.44340  0.93789  Biso   1.000  C
  C545     1.0000 0.11007  0.26133  0.89544  Biso   1.000  C
  C546     1.0000 0.73867  0.84873  0.89544  Biso   1.000  C
  C547     1.0000 0.15127  0.88993  0.89544  Biso   1.000  C
  C548     1.0000 0.59467  0.77673  0.27122  Biso   1.000  C
  C549     1.0000 0.77673  0.59467  0.22878  Biso   1.000  C
  C550     1.0000 0.26133  0.11007  0.60456  Biso   1.000  C
  C551     1.0000 0.51540  0.07200  0.93789  Biso   1.000  C
  C552     1.0000 0.55660  0.48460  0.93789  Biso   1.000  C
  C553     1.0000 0.40533  0.18207  0.22878  Biso   1.000  C
  C554     1.0000 0.81793  0.22327  0.22878  Biso   1.000  C
  C555     1.0000 0.84873  0.73867  0.60456  Biso   1.000  C
  C556     1.0000 0.88993  0.15127  0.60456  Biso   1.000  C
  C557     1.0000 0.18207  0.40533  0.27122  Biso   1.000  C
  C558     1.0000 0.22327  0.81793  0.27122  Biso   1.000  C
  C559     1.0000 0.55660  0.07200  0.43789  Biso   1.000  C
  C560     1.0000 0.92800  0.48460  0.43789  Biso   1.000  C
  C561     1.0000 0.51540  0.44340  0.43789  Biso   1.000  C
  C562     1.0000 0.07200  0.55660  0.06211  Biso   1.000  C
  C563     1.0000 0.22327  0.40533  0.77122  Biso   1.000  C
  C564     1.0000 0.59467  0.81793  0.77122  Biso   1.000  C
  C565     1.0000 0.18207  0.77673  0.77122  Biso   1.000  C
  C566     1.0000 0.73867  0.88993  0.39544  Biso   1.000  C
  C567     1.0000 0.88993  0.73867  0.10456  Biso   1.000  C
  C568     1.0000 0.40533  0.22327  0.72878  Biso   1.000  C
  C569     1.0000 0.48460  0.92800  0.06211  Biso   1.000  C
  C570     1.0000 0.44340  0.51540  0.06211  Biso   1.000  C
  C571     1.0000 0.26133  0.15127  0.10456  Biso   1.000  C
  C572     1.0000 0.84873  0.11007  0.10456  Biso   1.000  C
  C573     1.0000 0.81793  0.59467  0.72878  Biso   1.000  C
  C574     1.0000 0.77673  0.18207  0.72878  Biso   1.000  C
  C575     1.0000 0.15127  0.26133  0.39544  Biso   1.000  C
  C576     1.0000 0.11007  0.84873  0.39544  Biso   1.000  C
  H325     1.0000 0.48600  0.97250  0.56910  Biso   1.000  H
  H326     1.0000 0.02750  0.51350  0.56910  Biso   1.000  H
  H327     1.0000 0.48650  0.51400  0.56910  Biso   1.000  H
  H328     1.0000 0.97250  0.48600  0.93090  Biso   1.000  H
  H329     1.0000 0.15267  0.30583  0.90243  Biso   1.000  H
  H330     1.0000 0.69417  0.84683  0.90243  Biso   1.000  H
  H331     1.0000 0.15317  0.84733  0.90243  Biso   1.000  H
  H332     1.0000 0.63917  0.81933  0.26423  Biso   1.000  H
  H333     1.0000 0.81933  0.63917  0.23577  Biso   1.000  H
  H334     1.0000 0.30583  0.15267  0.59757  Biso   1.000  H
  H335     1.0000 0.51350  0.02750  0.93090  Biso   1.000  H
  H336     1.0000 0.51400  0.48650  0.93090  Biso   1.000  H
  H337     1.0000 0.36083  0.18017  0.23577  Biso   1.000  H
  H338     1.0000 0.81983  0.18067  0.23577  Biso   1.000  H
  H339     1.0000 0.84683  0.69417  0.59757  Biso   1.000  H
  H340     1.0000 0.84733  0.15317  0.59757  Biso   1.000  H
  H341     1.0000 0.18017  0.36083  0.26423  Biso   1.000  H
  H342     1.0000 0.18067  0.81983  0.26423  Biso   1.000  H
  H343     1.0000 0.51400  0.02750  0.43090  Biso   1.000  H
  H344     1.0000 0.97250  0.48650  0.43090  Biso   1.000  H
  H345     1.0000 0.51350  0.48600  0.43090  Biso   1.000  H
  H346     1.0000 0.02750  0.51400  0.06910  Biso   1.000  H
  H347     1.0000 0.18067  0.36083  0.76423  Biso   1.000  H
  H348     1.0000 0.63917  0.81983  0.76423  Biso   1.000  H
  H349     1.0000 0.18017  0.81933  0.76423  Biso   1.000  H
  H350     1.0000 0.69417  0.84733  0.40243  Biso   1.000  H
  H351     1.0000 0.84733  0.69417  0.09757  Biso   1.000  H
  H352     1.0000 0.36083  0.18067  0.73577  Biso   1.000  H
  H353     1.0000 0.48650  0.97250  0.06910  Biso   1.000  H
  H354     1.0000 0.48600  0.51350  0.06910  Biso   1.000  H
  H355     1.0000 0.30583  0.15317  0.09757  Biso   1.000  H
  H356     1.0000 0.84683  0.15267  0.09757  Biso   1.000  H
  H357     1.0000 0.81983  0.63917  0.73577  Biso   1.000  H
  H358     1.0000 0.81933  0.18017  0.73577  Biso   1.000  H
  H359     1.0000 0.15317  0.30583  0.40243  Biso   1.000  H
  H360     1.0000 0.15267  0.84683  0.40243  Biso   1.000  H
  C577     1.0000 0.29870  0.78180  0.55612  Biso   1.000  C
  C578     1.0000 0.21820  0.51690  0.55612  Biso   1.000  C
  C579     1.0000 0.48310  0.70130  0.55612  Biso   1.000  C
  C580     1.0000 0.78180  0.29870  0.94388  Biso   1.000  C
  C581     1.0000 0.96537  0.11513  0.88945  Biso   1.000  C
  C582     1.0000 0.88487  0.85023  0.88945  Biso   1.000  C
  C583     1.0000 0.14977  0.03463  0.88945  Biso   1.000  C
  C584     1.0000 0.44847  0.63203  0.27721  Biso   1.000  C
  C585     1.0000 0.63203  0.44847  0.22279  Biso   1.000  C
  C586     1.0000 0.11513  0.96537  0.61055  Biso   1.000  C
  C587     1.0000 0.51690  0.21820  0.94388  Biso   1.000  C
  C588     1.0000 0.70130  0.48310  0.94388  Biso   1.000  C
  C589     1.0000 0.55153  0.18357  0.22279  Biso   1.000  C
  C590     1.0000 0.81643  0.36797  0.22279  Biso   1.000  C
  C591     1.0000 0.85023  0.88487  0.61055  Biso   1.000  C
  C592     1.0000 0.03463  0.14977  0.61055  Biso   1.000  C
  C593     1.0000 0.18357  0.55153  0.27721  Biso   1.000  C
  C594     1.0000 0.36797  0.81643  0.27721  Biso   1.000  C
  C595     1.0000 0.70130  0.21820  0.44388  Biso   1.000  C
  C596     1.0000 0.78180  0.48310  0.44388  Biso   1.000  C
  C597     1.0000 0.51690  0.29870  0.44388  Biso   1.000  C
  C598     1.0000 0.21820  0.70130  0.05612  Biso   1.000  C
  C599     1.0000 0.36797  0.55153  0.77721  Biso   1.000  C
  C600     1.0000 0.44847  0.81643  0.77721  Biso   1.000  C
  C601     1.0000 0.18357  0.63203  0.77721  Biso   1.000  C
  C602     1.0000 0.88487  0.03463  0.38945  Biso   1.000  C
  C603     1.0000 0.03463  0.88487  0.11055  Biso   1.000  C
  C604     1.0000 0.55153  0.36797  0.72279  Biso   1.000  C
  C605     1.0000 0.48310  0.78180  0.05612  Biso   1.000  C
  C606     1.0000 0.29870  0.51690  0.05612  Biso   1.000  C
  C607     1.0000 0.11513  0.14977  0.11055  Biso   1.000  C
  C608     1.0000 0.85023  0.96537  0.11055  Biso   1.000  C
  C609     1.0000 0.81643  0.44847  0.72279  Biso   1.000  C
  C610     1.0000 0.63203  0.18357  0.72279  Biso   1.000  C
  C611     1.0000 0.14977  0.11513  0.38945  Biso   1.000  C
  C612     1.0000 0.96537  0.85023  0.38945  Biso   1.000  C
  H361     1.0000 0.23880  0.72470  0.55890  Biso   1.000  H
  H362     1.0000 0.27530  0.51410  0.55890  Biso   1.000  H
  H363     1.0000 0.48590  0.76120  0.55890  Biso   1.000  H
  H364     1.0000 0.72470  0.23880  0.94110  Biso   1.000  H
  H365     1.0000 0.90547  0.05803  0.89223  Biso   1.000  H
  H366     1.0000 0.94197  0.84743  0.89223  Biso   1.000  H
  H367     1.0000 0.15257  0.09453  0.89223  Biso   1.000  H
  H368     1.0000 0.39137  0.57213  0.27443  Biso   1.000  H
  H369     1.0000 0.57213  0.39137  0.22557  Biso   1.000  H
  H370     1.0000 0.05803  0.90547  0.60777  Biso   1.000  H
  H371     1.0000 0.51410  0.27530  0.94110  Biso   1.000  H
  H372     1.0000 0.76120  0.48590  0.94110  Biso   1.000  H
  H373     1.0000 0.60863  0.18077  0.22557  Biso   1.000  H
  H374     1.0000 0.81923  0.42787  0.22557  Biso   1.000  H
  H375     1.0000 0.84743  0.94197  0.60777  Biso   1.000  H
  H376     1.0000 0.09453  0.15257  0.60777  Biso   1.000  H
  H377     1.0000 0.18077  0.60863  0.27443  Biso   1.000  H
  H378     1.0000 0.42787  0.81923  0.27443  Biso   1.000  H
  H379     1.0000 0.76120  0.27530  0.44110  Biso   1.000  H
  H380     1.0000 0.72470  0.48590  0.44110  Biso   1.000  H
  H381     1.0000 0.51410  0.23880  0.44110  Biso   1.000  H
  H382     1.0000 0.27530  0.76120  0.05890  Biso   1.000  H
  H383     1.0000 0.42787  0.60863  0.77443  Biso   1.000  H
  H384     1.0000 0.39137  0.81923  0.77443  Biso   1.000  H
  H385     1.0000 0.18077  0.57213  0.77443  Biso   1.000  H
  H386     1.0000 0.94197  0.09453  0.39223  Biso   1.000  H
  H387     1.0000 0.09453  0.94197  0.10777  Biso   1.000  H
  H388     1.0000 0.60863  0.42787  0.72557  Biso   1.000  H
  H389     1.0000 0.48590  0.72470  0.05890  Biso   1.000  H
  H390     1.0000 0.23880  0.51410  0.05890  Biso   1.000  H
  H391     1.0000 0.05803  0.15257  0.10777  Biso   1.000  H
  H392     1.0000 0.84743  0.90547  0.10777  Biso   1.000  H
  H393     1.0000 0.81923  0.39137  0.72557  Biso   1.000  H
  H394     1.0000 0.57213  0.18077  0.72557  Biso   1.000  H
  H395     1.0000 0.15257  0.05803  0.39223  Biso   1.000  H
  H396     1.0000 0.90547  0.84743  0.39223  Biso   1.000  H
  C613     1.0000 0.32180  0.79800  0.54175  Biso   1.000  C
  C614     1.0000 0.20200  0.52380  0.54175  Biso   1.000  C
  C615     1.0000 0.47620  0.67820  0.54175  Biso   1.000  C
  C616     1.0000 0.79800  0.32180  0.95825  Biso   1.000  C
  C617     1.0000 0.98847  0.13133  0.87508  Biso   1.000  C
  C618     1.0000 0.86867  0.85713  0.87508  Biso   1.000  C
  C619     1.0000 0.14287  0.01153  0.87508  Biso   1.000  C
  C620     1.0000 0.46467  0.65513  0.29158  Biso   1.000  C
  C621     1.0000 0.65513  0.46467  0.20842  Biso   1.000  C
  C622     1.0000 0.13133  0.98847  0.62492  Biso   1.000  C
  C623     1.0000 0.52380  0.20200  0.95825  Biso   1.000  C
  C624     1.0000 0.67820  0.47620  0.95825  Biso   1.000  C
  C625     1.0000 0.53533  0.19047  0.20842  Biso   1.000  C
  C626     1.0000 0.80953  0.34487  0.20842  Biso   1.000  C
  C627     1.0000 0.85713  0.86867  0.62492  Biso   1.000  C
  C628     1.0000 0.01153  0.14287  0.62492  Biso   1.000  C
  C629     1.0000 0.19047  0.53533  0.29158  Biso   1.000  C
  C630     1.0000 0.34487  0.80953  0.29158  Biso   1.000  C
  C631     1.0000 0.67820  0.20200  0.45825  Biso   1.000  C
  C632     1.0000 0.79800  0.47620  0.45825  Biso   1.000  C
  C633     1.0000 0.52380  0.32180  0.45825  Biso   1.000  C
  C634     1.0000 0.20200  0.67820  0.04175  Biso   1.000  C
  C635     1.0000 0.34487  0.53533  0.79158  Biso   1.000  C
  C636     1.0000 0.46467  0.80953  0.79158  Biso   1.000  C
  C637     1.0000 0.19047  0.65513  0.79158  Biso   1.000  C
  C638     1.0000 0.86867  0.01153  0.37508  Biso   1.000  C
  C639     1.0000 0.01153  0.86867  0.12492  Biso   1.000  C
  C640     1.0000 0.53533  0.34487  0.70842  Biso   1.000  C
  C641     1.0000 0.47620  0.79800  0.04175  Biso   1.000  C
  C642     1.0000 0.32180  0.52380  0.04175  Biso   1.000  C
  C643     1.0000 0.13133  0.14287  0.12492  Biso   1.000  C
  C644     1.0000 0.85713  0.98847  0.12492  Biso   1.000  C
  C645     1.0000 0.80953  0.46467  0.70842  Biso   1.000  C
  C646     1.0000 0.65513  0.19047  0.70842  Biso   1.000  C
  C647     1.0000 0.14287  0.13133  0.37508  Biso   1.000  C
  C648     1.0000 0.98847  0.85713  0.37508  Biso   1.000  C
  H397     1.0000 0.27960  0.75110  0.53510  Biso   1.000  H
  H398     1.0000 0.24890  0.52850  0.53510  Biso   1.000  H
  H399     1.0000 0.47150  0.72040  0.53510  Biso   1.000  H
  H400     1.0000 0.75110  0.27960  0.96490  Biso   1.000  H
  H401     1.0000 0.94627  0.08443  0.86843  Biso   1.000  H
  H402     1.0000 0.91557  0.86183  0.86843  Biso   1.000  H
  H403     1.0000 0.13817  0.05373  0.86843  Biso   1.000  H
  H404     1.0000 0.41777  0.61293  0.29823  Biso   1.000  H
  H405     1.0000 0.61293  0.41777  0.20177  Biso   1.000  H
  H406     1.0000 0.08443  0.94627  0.63157  Biso   1.000  H
  H407     1.0000 0.52850  0.24890  0.96490  Biso   1.000  H
  H408     1.0000 0.72040  0.47150  0.96490  Biso   1.000  H
  H409     1.0000 0.58223  0.19517  0.20177  Biso   1.000  H
  H410     1.0000 0.80483  0.38707  0.20177  Biso   1.000  H
  H411     1.0000 0.86183  0.91557  0.63157  Biso   1.000  H
  H412     1.0000 0.05373  0.13817  0.63157  Biso   1.000  H
  H413     1.0000 0.19517  0.58223  0.29823  Biso   1.000  H
  H414     1.0000 0.38707  0.80483  0.29823  Biso   1.000  H
  H415     1.0000 0.72040  0.24890  0.46490  Biso   1.000  H
  H416     1.0000 0.75110  0.47150  0.46490  Biso   1.000  H
  H417     1.0000 0.52850  0.27960  0.46490  Biso   1.000  H
  H418     1.0000 0.24890  0.72040  0.03510  Biso   1.000  H
  H419     1.0000 0.38707  0.58223  0.79823  Biso   1.000  H
  H420     1.0000 0.41777  0.80483  0.79823  Biso   1.000  H
  H421     1.0000 0.19517  0.61293  0.79823  Biso   1.000  H
  H422     1.0000 0.91557  0.05373  0.36843  Biso   1.000  H
  H423     1.0000 0.05373  0.91557  0.13157  Biso   1.000  H
  H424     1.0000 0.58223  0.38707  0.70177  Biso   1.000  H
  H425     1.0000 0.47150  0.75110  0.03510  Biso   1.000  H
  H426     1.0000 0.27960  0.52850  0.03510  Biso   1.000  H
  H427     1.0000 0.08443  0.13817  0.13157  Biso   1.000  H
  H428     1.0000 0.86183  0.94627  0.13157  Biso   1.000  H
  H429     1.0000 0.80483  0.41777  0.70177  Biso   1.000  H
  H430     1.0000 0.61293  0.19517  0.70177  Biso   1.000  H
  H431     1.0000 0.13817  0.08443  0.36843  Biso   1.000  H
  H432     1.0000 0.94627  0.86183  0.36843  Biso   1.000  H
  N1       1.0000 0.47710  0.72950  0.63575  Biso   1.000  N
  N2       1.0000 0.27050  0.74760  0.63575  Biso   1.000  N
  N3       1.0000 0.25240  0.52290  0.63575  Biso   1.000  N
  N4       1.0000 0.72950  0.47710  0.86425  Biso   1.000  N
  N5       1.0000 0.14377  0.06283  0.96908  Biso   1.000  N
  N6       1.0000 0.93717  0.08093  0.96908  Biso   1.000  N
  N7       1.0000 0.91907  0.85623  0.96908  Biso   1.000  N
  N8       1.0000 0.39617  0.81043  0.19758  Biso   1.000  N
  N9       1.0000 0.81043  0.39617  0.30242  Biso   1.000  N
  N10      1.0000 0.06283  0.14377  0.53092  Biso   1.000  N
  N11      1.0000 0.74760  0.27050  0.86425  Biso   1.000  N
  N12      1.0000 0.52290  0.25240  0.86425  Biso   1.000  N
  N13      1.0000 0.60383  0.41427  0.30242  Biso   1.000  N
  N14      1.0000 0.58573  0.18957  0.30242  Biso   1.000  N
  N15      1.0000 0.08093  0.93717  0.53092  Biso   1.000  N
  N16      1.0000 0.85623  0.91907  0.53092  Biso   1.000  N
  N17      1.0000 0.41427  0.60383  0.19758  Biso   1.000  N
  N18      1.0000 0.18957  0.58573  0.19758  Biso   1.000  N
  N19      1.0000 0.52290  0.27050  0.36425  Biso   1.000  N
  N20      1.0000 0.72950  0.25240  0.36425  Biso   1.000  N
  N21      1.0000 0.74760  0.47710  0.36425  Biso   1.000  N
  N22      1.0000 0.27050  0.52290  0.13575  Biso   1.000  N
  N23      1.0000 0.18957  0.60383  0.69758  Biso   1.000  N
  N24      1.0000 0.39617  0.58573  0.69758  Biso   1.000  N
  N25      1.0000 0.41427  0.81043  0.69758  Biso   1.000  N
  N26      1.0000 0.93717  0.85623  0.46908  Biso   1.000  N
  N27      1.0000 0.85623  0.93717  0.03092  Biso   1.000  N
  N28      1.0000 0.60383  0.18957  0.80242  Biso   1.000  N
  N29      1.0000 0.25240  0.72950  0.13575  Biso   1.000  N
  N30      1.0000 0.47710  0.74760  0.13575  Biso   1.000  N
  N31      1.0000 0.06283  0.91907  0.03092  Biso   1.000  N
  N32      1.0000 0.08093  0.14377  0.03092  Biso   1.000  N
  N33      1.0000 0.58573  0.39617  0.80242  Biso   1.000  N
  N34      1.0000 0.81043  0.41427  0.80242  Biso   1.000  N
  N35      1.0000 0.91907  0.06283  0.46908  Biso   1.000  N
  N36      1.0000 0.14377  0.08093  0.46908  Biso   1.000  N
  N37      1.0000 0.39420  0.92630  0.60154  Biso   1.000  N
  N38      1.0000 0.07370  0.46790  0.60154  Biso   1.000  N
  N39      1.0000 0.53210  0.60580  0.60154  Biso   1.000  N
  N40      1.0000 0.92630  0.39420  0.89846  Biso   1.000  N
  N41      1.0000 0.06087  0.25963  0.93487  Biso   1.000  N
  N42      1.0000 0.74037  0.80123  0.93487  Biso   1.000  N
  N43      1.0000 0.19877  0.93913  0.93487  Biso   1.000  N
  N44      1.0000 0.59297  0.72753  0.23179  Biso   1.000  N
  N45      1.0000 0.72753  0.59297  0.26821  Biso   1.000  N
  N46      1.0000 0.25963  0.06087  0.56513  Biso   1.000  N
  N47      1.0000 0.46790  0.07370  0.89846  Biso   1.000  N
  N48      1.0000 0.60580  0.53210  0.89846  Biso   1.000  N
  N49      1.0000 0.40703  0.13457  0.26821  Biso   1.000  N
  N50      1.0000 0.86543  0.27247  0.26821  Biso   1.000  N
  N51      1.0000 0.80123  0.74037  0.56513  Biso   1.000  N
  N52      1.0000 0.93913  0.19877  0.56513  Biso   1.000  N
  N53      1.0000 0.13457  0.40703  0.23179  Biso   1.000  N
  N54      1.0000 0.27247  0.86543  0.23179  Biso   1.000  N
  N55      1.0000 0.60580  0.07370  0.39846  Biso   1.000  N
  N56      1.0000 0.92630  0.53210  0.39846  Biso   1.000  N
  N57      1.0000 0.46790  0.39420  0.39846  Biso   1.000  N
  N58      1.0000 0.07370  0.60580  0.10154  Biso   1.000  N
  N59      1.0000 0.27247  0.40703  0.73179  Biso   1.000  N
  N60      1.0000 0.59297  0.86543  0.73179  Biso   1.000  N
  N61      1.0000 0.13457  0.72753  0.73179  Biso   1.000  N
  N62      1.0000 0.74037  0.93913  0.43487  Biso   1.000  N
  N63      1.0000 0.93913  0.74037  0.06513  Biso   1.000  N
  N64      1.0000 0.40703  0.27247  0.76821  Biso   1.000  N
  N65      1.0000 0.53210  0.92630  0.10154  Biso   1.000  N
  N66      1.0000 0.39420  0.46790  0.10154  Biso   1.000  N
  N67      1.0000 0.25963  0.19877  0.06513  Biso   1.000  N
  N68      1.0000 0.80123  0.06087  0.06513  Biso   1.000  N
  N69      1.0000 0.86543  0.59297  0.76821  Biso   1.000  N
  N70      1.0000 0.72753  0.13457  0.76821  Biso   1.000  N
  N71      1.0000 0.19877  0.25963  0.43487  Biso   1.000  N
  N72      1.0000 0.06087  0.80123  0.43487  Biso   1.000  N
  N73      1.0000 0.35910  0.84510  0.56635  Biso   1.000  N
  N74      1.0000 0.15490  0.51400  0.56635  Biso   1.000  N
  N75      1.0000 0.48600  0.64090  0.56635  Biso   1.000  N
  N76      1.0000 0.84510  0.35910  0.93365  Biso   1.000  N
  N77      1.0000 0.02577  0.17843  0.89968  Biso   1.000  N
  N78      1.0000 0.82157  0.84733  0.89968  Biso   1.000  N
  N79      1.0000 0.15267  0.97423  0.89968  Biso   1.000  N
  N80      1.0000 0.51177  0.69243  0.26698  Biso   1.000  N
  N81      1.0000 0.69243  0.51177  0.23302  Biso   1.000  N
  N82      1.0000 0.17843  0.02577  0.60032  Biso   1.000  N
  N83      1.0000 0.51400  0.15490  0.93365  Biso   1.000  N
  N84      1.0000 0.64090  0.48600  0.93365  Biso   1.000  N
  N85      1.0000 0.48823  0.18067  0.23302  Biso   1.000  N
  N86      1.0000 0.81933  0.30757  0.23302  Biso   1.000  N
  N87      1.0000 0.84733  0.82157  0.60032  Biso   1.000  N
  N88      1.0000 0.97423  0.15267  0.60032  Biso   1.000  N
  N89      1.0000 0.18067  0.48823  0.26698  Biso   1.000  N
  N90      1.0000 0.30757  0.81933  0.26698  Biso   1.000  N
  N91      1.0000 0.64090  0.15490  0.43365  Biso   1.000  N
  N92      1.0000 0.84510  0.48600  0.43365  Biso   1.000  N
  N93      1.0000 0.51400  0.35910  0.43365  Biso   1.000  N
  N94      1.0000 0.15490  0.64090  0.06635  Biso   1.000  N
  N95      1.0000 0.30757  0.48823  0.76698  Biso   1.000  N
  N96      1.0000 0.51177  0.81933  0.76698  Biso   1.000  N
  N97      1.0000 0.18067  0.69243  0.76698  Biso   1.000  N
  N98      1.0000 0.82157  0.97423  0.39968  Biso   1.000  N
  N99      1.0000 0.97423  0.82157  0.10032  Biso   1.000  N
  N100     1.0000 0.48823  0.30757  0.73302  Biso   1.000  N
  N101     1.0000 0.48600  0.84510  0.06635  Biso   1.000  N
  N102     1.0000 0.35910  0.51400  0.06635  Biso   1.000  N
  N103     1.0000 0.17843  0.15267  0.10032  Biso   1.000  N
  N104     1.0000 0.84733  0.02577  0.10032  Biso   1.000  N
  N105     1.0000 0.81933  0.51177  0.73302  Biso   1.000  N
  N106     1.0000 0.69243  0.18067  0.73302  Biso   1.000  N
  N107     1.0000 0.15267  0.17843  0.39968  Biso   1.000  N
  N108     1.0000 0.02577  0.84733  0.39968  Biso   1.000  N
  O1       1.0000 0.79520  0.33330  0.58330  Biso   1.000  O
  O2       1.0000 0.66670  0.46190  0.58330  Biso   1.000  O
  O3       1.0000 0.53810  0.20480  0.58330  Biso   1.000  O
  O4       1.0000 0.33330  0.79520  0.91670  Biso   1.000  O
  O5       1.0000 0.46187  0.66663  0.91663  Biso   1.000  O
  O6       1.0000 0.20477  0.53813  0.91663  Biso   1.000  O
  O7       1.0000 0.99997  0.12853  0.25003  Biso   1.000  O
  O8       1.0000 0.12853  0.99997  0.24997  Biso   1.000  O
  O9       1.0000 0.87143  0.87147  0.24997  Biso   1.000  O
  O10      1.0000 0.20480  0.66670  0.41670  Biso   1.000  O
  O11      1.0000 0.33330  0.53810  0.41670  Biso   1.000  O
  O12      1.0000 0.46190  0.79520  0.41670  Biso   1.000  O
  O13      1.0000 0.66670  0.20480  0.08330  Biso   1.000  O
  O14      1.0000 0.87147  0.00003  0.75003  Biso   1.000  O
  O15      1.0000 0.99997  0.87143  0.75003  Biso   1.000  O
  O16      1.0000 0.12857  0.12853  0.75003  Biso   1.000  O
  O17      1.0000 0.53813  0.33337  0.08337  Biso   1.000  O
  O18      1.0000 0.79520  0.46190  0.08330  Biso   1.000  O
  O19      1.0000 0.76790  0.96370  0.66687  Biso   1.000  O
  O20      1.0000 0.03630  0.80420  0.66687  Biso   1.000  O
  O21      1.0000 0.19580  0.23210  0.66687  Biso   1.000  O
  O22      1.0000 0.96370  0.76790  0.83313  Biso   1.000  O
  O23      1.0000 0.43457  0.29703  0.00020  Biso   1.000  O
  O24      1.0000 0.70297  0.13753  0.00020  Biso   1.000  O
  O25      1.0000 0.86247  0.56543  0.00020  Biso   1.000  O
  O26      1.0000 0.63037  0.10123  0.16646  Biso   1.000  O
  O27      1.0000 0.10123  0.63037  0.33354  Biso   1.000  O
  O28      1.0000 0.29703  0.43457  0.49980  Biso   1.000  O
  O29      1.0000 0.80420  0.03630  0.83313  Biso   1.000  O
  O30      1.0000 0.23210  0.19580  0.83313  Biso   1.000  O
  O31      1.0000 0.36963  0.47087  0.33354  Biso   1.000  O
  O32      1.0000 0.52913  0.89877  0.33354  Biso   1.000  O
  O33      1.0000 0.13753  0.70297  0.49980  Biso   1.000  O
  O34      1.0000 0.56543  0.86247  0.49980  Biso   1.000  O
  O35      1.0000 0.47087  0.36963  0.16646  Biso   1.000  O
  O36      1.0000 0.89877  0.52913  0.16646  Biso   1.000  O
  O37      1.0000 0.23210  0.03630  0.33313  Biso   1.000  O
  O38      1.0000 0.96370  0.19580  0.33313  Biso   1.000  O
  O39      1.0000 0.80420  0.76790  0.33313  Biso   1.000  O
  O40      1.0000 0.03630  0.23210  0.16687  Biso   1.000  O
  O41      1.0000 0.89877  0.36963  0.66646  Biso   1.000  O
  O42      1.0000 0.63037  0.52913  0.66646  Biso   1.000  O
  O43      1.0000 0.47087  0.10123  0.66646  Biso   1.000  O
  O44      1.0000 0.70297  0.56543  0.50020  Biso   1.000  O
  O45      1.0000 0.56543  0.70297  0.99980  Biso   1.000  O
  O46      1.0000 0.36963  0.89877  0.83354  Biso   1.000  O
  O47      1.0000 0.19580  0.96370  0.16687  Biso   1.000  O
  O48      1.0000 0.76790  0.80420  0.16687  Biso   1.000  O
  O49      1.0000 0.29703  0.86247  0.99980  Biso   1.000  O
  O50      1.0000 0.13753  0.43457  0.99980  Biso   1.000  O
  O51      1.0000 0.52913  0.63037  0.83354  Biso   1.000  O
  O52      1.0000 0.10123  0.47087  0.83354  Biso   1.000  O
  O53      1.0000 0.86247  0.29703  0.50020  Biso   1.000  O
  O54      1.0000 0.43457  0.13753  0.50020  Biso   1.000  O
  O55      1.0000 0.05880  0.24540  0.67080  Biso   1.000  O
  O56      1.0000 0.75460  0.81340  0.67080  Biso   1.000  O
  O57      1.0000 0.18660  0.94120  0.67080  Biso   1.000  O
  O58      1.0000 0.24540  0.05880  0.82920  Biso   1.000  O
  O59      1.0000 0.72547  0.57873  0.00413  Biso   1.000  O
  O60      1.0000 0.42127  0.14673  0.00413  Biso   1.000  O
  O61      1.0000 0.85327  0.27453  0.00413  Biso   1.000  O
  O62      1.0000 0.91207  0.39213  0.16253  Biso   1.000  O
  O63      1.0000 0.39213  0.91207  0.33747  Biso   1.000  O
  O64      1.0000 0.57873  0.72547  0.49587  Biso   1.000  O
  O65      1.0000 0.81340  0.75460  0.82920  Biso   1.000  O
  O66      1.0000 0.94120  0.18660  0.82920  Biso   1.000  O
  O67      1.0000 0.08793  0.48007  0.33747  Biso   1.000  O
  O68      1.0000 0.51993  0.60787  0.33747  Biso   1.000  O
  O69      1.0000 0.14673  0.42127  0.49587  Biso   1.000  O
  O70      1.0000 0.27453  0.85327  0.49587  Biso   1.000  O
  O71      1.0000 0.48007  0.08793  0.16253  Biso   1.000  O
  O72      1.0000 0.60787  0.51993  0.16253  Biso   1.000  O
  O73      1.0000 0.94120  0.75460  0.32920  Biso   1.000  O
  O74      1.0000 0.24540  0.18660  0.32920  Biso   1.000  O
  O75      1.0000 0.81340  0.05880  0.32920  Biso   1.000  O
  O76      1.0000 0.75460  0.94120  0.17080  Biso   1.000  O
  O77      1.0000 0.60787  0.08793  0.66253  Biso   1.000  O
  O78      1.0000 0.91207  0.51993  0.66253  Biso   1.000  O
  O79      1.0000 0.48007  0.39213  0.66253  Biso   1.000  O
  O80      1.0000 0.42127  0.27453  0.50413  Biso   1.000  O
  O81      1.0000 0.27453  0.42127  0.99587  Biso   1.000  O
  O82      1.0000 0.08793  0.60787  0.83747  Biso   1.000  O
  O83      1.0000 0.18660  0.24540  0.17080  Biso   1.000  O
  O84      1.0000 0.05880  0.81340  0.17080  Biso   1.000  O
  O85      1.0000 0.57873  0.85327  0.99587  Biso   1.000  O
  O86      1.0000 0.14673  0.72547  0.99587  Biso   1.000  O
  O87      1.0000 0.51993  0.91207  0.83747  Biso   1.000  O
  O88      1.0000 0.39213  0.48007  0.83747  Biso   1.000  O
  O89      1.0000 0.85327  0.57873  0.50413  Biso   1.000  O
  O90      1.0000 0.72547  0.14673  0.50413  Biso   1.000  O
  O91      1.0000 0.85740  0.96390  0.69399  Biso   1.000  O
  O92      1.0000 0.03610  0.89350  0.69399  Biso   1.000  O
  O93      1.0000 0.10650  0.14260  0.69399  Biso   1.000  O
  O94      1.0000 0.96390  0.85740  0.80601  Biso   1.000  O
  O95      1.0000 0.52407  0.29723  0.02732  Biso   1.000  O
  O96      1.0000 0.70277  0.22683  0.02732  Biso   1.000  O
  O97      1.0000 0.77317  0.47593  0.02732  Biso   1.000  O
  O98      1.0000 0.63057  0.19073  0.13934  Biso   1.000  O
  O99      1.0000 0.19073  0.63057  0.36066  Biso   1.000  O
  O100     1.0000 0.29723  0.52407  0.47268  Biso   1.000  O
  O101     1.0000 0.89350  0.03610  0.80601  Biso   1.000  O
  O102     1.0000 0.14260  0.10650  0.80601  Biso   1.000  O
  O103     1.0000 0.36943  0.56017  0.36066  Biso   1.000  O
  O104     1.0000 0.43983  0.80927  0.36066  Biso   1.000  O
  O105     1.0000 0.22683  0.70277  0.47268  Biso   1.000  O
  O106     1.0000 0.47593  0.77317  0.47268  Biso   1.000  O
  O107     1.0000 0.56017  0.36943  0.13934  Biso   1.000  O
  O108     1.0000 0.80927  0.43983  0.13934  Biso   1.000  O
  O109     1.0000 0.14260  0.03610  0.30601  Biso   1.000  O
  O110     1.0000 0.96390  0.10650  0.30601  Biso   1.000  O
  O111     1.0000 0.89350  0.85740  0.30601  Biso   1.000  O
  O112     1.0000 0.03610  0.14260  0.19399  Biso   1.000  O
  O113     1.0000 0.80927  0.36943  0.63934  Biso   1.000  O
  O114     1.0000 0.63057  0.43983  0.63934  Biso   1.000  O
  O115     1.0000 0.56017  0.19073  0.63934  Biso   1.000  O
  O116     1.0000 0.70277  0.47593  0.52732  Biso   1.000  O
  O117     1.0000 0.47593  0.70277  0.97268  Biso   1.000  O
  O118     1.0000 0.36943  0.80927  0.86066  Biso   1.000  O
  O119     1.0000 0.10650  0.96390  0.19399  Biso   1.000  O
  O120     1.0000 0.85740  0.89350  0.19399  Biso   1.000  O
  O121     1.0000 0.29723  0.77317  0.97268  Biso   1.000  O
  O122     1.0000 0.22683  0.52407  0.97268  Biso   1.000  O
  O123     1.0000 0.43983  0.63057  0.86066  Biso   1.000  O
  O124     1.0000 0.19073  0.56017  0.86066  Biso   1.000  O
  O125     1.0000 0.77317  0.29723  0.52732  Biso   1.000  O
  O126     1.0000 0.52407  0.22683  0.52732  Biso   1.000  O
  O127     1.0000 0.99040  0.18280  0.69928  Biso   1.000  O
  O128     1.0000 0.81720  0.80760  0.69928  Biso   1.000  O
  O129     1.0000 0.19240  0.00960  0.69928  Biso   1.000  O
  O130     1.0000 0.18280  0.99040  0.80072  Biso   1.000  O
  O131     1.0000 0.65707  0.51613  0.03261  Biso   1.000  O
  O132     1.0000 0.48387  0.14093  0.03261  Biso   1.000  O
  O133     1.0000 0.85907  0.34293  0.03261  Biso   1.000  O
  O134     1.0000 0.84947  0.32373  0.13405  Biso   1.000  O
  O135     1.0000 0.32373  0.84947  0.36595  Biso   1.000  O
  O136     1.0000 0.51613  0.65707  0.46739  Biso   1.000  O
  O137     1.0000 0.80760  0.81720  0.80072  Biso   1.000  O
  O138     1.0000 0.00960  0.19240  0.80072  Biso   1.000  O
  O139     1.0000 0.15053  0.47427  0.36595  Biso   1.000  O
  O140     1.0000 0.52573  0.67627  0.36595  Biso   1.000  O
  O141     1.0000 0.14093  0.48387  0.46739  Biso   1.000  O
  O142     1.0000 0.34293  0.85907  0.46739  Biso   1.000  O
  O143     1.0000 0.47427  0.15053  0.13405  Biso   1.000  O
  O144     1.0000 0.67627  0.52573  0.13405  Biso   1.000  O
  O145     1.0000 0.00960  0.81720  0.30072  Biso   1.000  O
  O146     1.0000 0.18280  0.19240  0.30072  Biso   1.000  O
  O147     1.0000 0.80760  0.99040  0.30072  Biso   1.000  O
  O148     1.0000 0.81720  0.00960  0.19928  Biso   1.000  O
  O149     1.0000 0.67627  0.15053  0.63405  Biso   1.000  O
  O150     1.0000 0.84947  0.52573  0.63405  Biso   1.000  O
  O151     1.0000 0.47427  0.32373  0.63405  Biso   1.000  O
  O152     1.0000 0.48387  0.34293  0.53261  Biso   1.000  O
  O153     1.0000 0.34293  0.48387  0.96739  Biso   1.000  O
  O154     1.0000 0.15053  0.67627  0.86595  Biso   1.000  O
  O155     1.0000 0.19240  0.18280  0.19928  Biso   1.000  O
  O156     1.0000 0.99040  0.80760  0.19928  Biso   1.000  O
  O157     1.0000 0.51613  0.85907  0.96739  Biso   1.000  O
  O158     1.0000 0.14093  0.65707  0.96739  Biso   1.000  O
  O159     1.0000 0.52573  0.84947  0.86595  Biso   1.000  O
  O160     1.0000 0.32373  0.47427  0.86595  Biso   1.000  O
  O161     1.0000 0.85907  0.51613  0.53261  Biso   1.000  O
  O162     1.0000 0.65707  0.14093  0.53261  Biso   1.000  O
  O163     1.0000 0.81390  0.15350  0.68411  Biso   1.000  O
  O164     1.0000 0.84650  0.66040  0.68411  Biso   1.000  O
  O165     1.0000 0.33960  0.18610  0.68411  Biso   1.000  O
  O166     1.0000 0.15350  0.81390  0.81589  Biso   1.000  O
  O167     1.0000 0.48057  0.48683  0.01744  Biso   1.000  O
  O168     1.0000 0.51317  0.99373  0.01744  Biso   1.000  O
  O169     1.0000 0.00627  0.51943  0.01744  Biso   1.000  O
  O170     1.0000 0.82017  0.14723  0.14922  Biso   1.000  O
  O171     1.0000 0.14723  0.82017  0.35078  Biso   1.000  O
  O172     1.0000 0.48683  0.48057  0.48256  Biso   1.000  O
  O173     1.0000 0.66040  0.84650  0.81589  Biso   1.000  O
  O174     1.0000 0.18610  0.33960  0.81589  Biso   1.000  O
  O175     1.0000 0.17983  0.32707  0.35078  Biso   1.000  O
  O176     1.0000 0.67293  0.85277  0.35078  Biso   1.000  O
  O177     1.0000 0.99373  0.51317  0.48256  Biso   1.000  O
  O178     1.0000 0.51943  0.00627  0.48256  Biso   1.000  O
  O179     1.0000 0.32707  0.17983  0.14922  Biso   1.000  O
  O180     1.0000 0.85277  0.67293  0.14922  Biso   1.000  O
  O181     1.0000 0.18610  0.84650  0.31589  Biso   1.000  O
  O182     1.0000 0.15350  0.33960  0.31589  Biso   1.000  O
  O183     1.0000 0.66040  0.81390  0.31589  Biso   1.000  O
  O184     1.0000 0.84650  0.18610  0.18411  Biso   1.000  O
  O185     1.0000 0.85277  0.17983  0.64922  Biso   1.000  O
  O186     1.0000 0.82017  0.67293  0.64922  Biso   1.000  O
  O187     1.0000 0.32707  0.14723  0.64922  Biso   1.000  O
  O188     1.0000 0.51317  0.51943  0.51744  Biso   1.000  O
  O189     1.0000 0.51943  0.51317  0.98256  Biso   1.000  O
  O190     1.0000 0.17983  0.85277  0.85078  Biso   1.000  O
  O191     1.0000 0.33960  0.15350  0.18411  Biso   1.000  O
  O192     1.0000 0.81390  0.66040  0.18411  Biso   1.000  O
  O193     1.0000 0.48683  0.00627  0.98256  Biso   1.000  O
  O194     1.0000 0.99373  0.48057  0.98256  Biso   1.000  O
  O195     1.0000 0.67293  0.82017  0.85078  Biso   1.000  O
  O196     1.0000 0.14723  0.32707  0.85078  Biso   1.000  O
  O197     1.0000 0.00627  0.48683  0.51744  Biso   1.000  O
  O198     1.0000 0.48057  0.99373  0.51744  Biso   1.000  O
  O199     1.0000 0.93600  0.09790  0.65249  Biso   1.000  O
  O200     1.0000 0.90210  0.83810  0.65249  Biso   1.000  O
  O201     1.0000 0.16190  0.06400  0.65249  Biso   1.000  O
  O202     1.0000 0.09790  0.93600  0.84751  Biso   1.000  O
  O203     1.0000 0.60267  0.43123  0.98582  Biso   1.000  O
  O204     1.0000 0.56877  0.17143  0.98582  Biso   1.000  O
  O205     1.0000 0.82857  0.39733  0.98582  Biso   1.000  O
  O206     1.0000 0.76457  0.26933  0.18084  Biso   1.000  O
  O207     1.0000 0.26933  0.76457  0.31916  Biso   1.000  O
  O208     1.0000 0.43123  0.60267  0.51418  Biso   1.000  O
  O209     1.0000 0.83810  0.90210  0.84751  Biso   1.000  O
  O210     1.0000 0.06400  0.16190  0.84751  Biso   1.000  O
  O211     1.0000 0.23543  0.50477  0.31916  Biso   1.000  O
  O212     1.0000 0.49523  0.73067  0.31916  Biso   1.000  O
  O213     1.0000 0.17143  0.56877  0.51418  Biso   1.000  O
  O214     1.0000 0.39733  0.82857  0.51418  Biso   1.000  O
  O215     1.0000 0.50477  0.23543  0.18084  Biso   1.000  O
  O216     1.0000 0.73067  0.49523  0.18084  Biso   1.000  O
  O217     1.0000 0.06400  0.90210  0.34751  Biso   1.000  O
  O218     1.0000 0.09790  0.16190  0.34751  Biso   1.000  O
  O219     1.0000 0.83810  0.93600  0.34751  Biso   1.000  O
  O220     1.0000 0.90210  0.06400  0.15249  Biso   1.000  O
  O221     1.0000 0.73067  0.23543  0.68084  Biso   1.000  O
  O222     1.0000 0.76457  0.49523  0.68084  Biso   1.000  O
  O223     1.0000 0.50477  0.26933  0.68084  Biso   1.000  O
  O224     1.0000 0.56877  0.39733  0.48582  Biso   1.000  O
  O225     1.0000 0.39733  0.56877  0.01418  Biso   1.000  O
  O226     1.0000 0.23543  0.73067  0.81916  Biso   1.000  O
  O227     1.0000 0.16190  0.09790  0.15249  Biso   1.000  O
  O228     1.0000 0.93600  0.83810  0.15249  Biso   1.000  O
  O229     1.0000 0.43123  0.82857  0.01418  Biso   1.000  O
  O230     1.0000 0.17143  0.60267  0.01418  Biso   1.000  O
  O231     1.0000 0.49523  0.76457  0.81916  Biso   1.000  O
  O232     1.0000 0.26933  0.50477  0.81916  Biso   1.000  O
  O233     1.0000 0.82857  0.43123  0.48582  Biso   1.000  O
  O234     1.0000 0.60267  0.17143  0.48582  Biso   1.000  O
  O235     1.0000 0.00000  0.00000  0.67129  Biso   1.000  O
  O236     1.0000 0.00000  0.00000  0.82871  Biso   1.000  O
  O237     1.0000 0.66667  0.33333  0.00462  Biso   1.000  O
  O238     1.0000 0.66667  0.33333  0.16204  Biso   1.000  O
  O239     1.0000 0.33333  0.66667  0.33796  Biso   1.000  O
  O240     1.0000 0.33333  0.66667  0.49538  Biso   1.000  O
  O241     1.0000 0.00000  0.00000  0.32871  Biso   1.000  O
  O242     1.0000 0.00000  0.00000  0.17129  Biso   1.000  O
  O243     1.0000 0.66667  0.33333  0.66204  Biso   1.000  O
  O244     1.0000 0.66667  0.33333  0.50462  Biso   1.000  O
  O245     1.0000 0.33333  0.66667  0.99538  Biso   1.000  O
  O246     1.0000 0.33333  0.66667  0.83796  Biso   1.000  O
