data_image0
_cell_length_a       15.2435
_cell_length_b       15.2435
_cell_length_c       93.897
_cell_angle_alpha    90
_cell_angle_beta     90
_cell_angle_gamma    120

_symmetry_space_group_name_H-M    "P 1"
_symmetry_int_tables_number       1

loop_
  _symmetry_equiv_pos_as_xyz
  'x, y, z'

loop_
  _atom_site_label
  _atom_site_occupancy
  _atom_site_fract_x
  _atom_site_fract_y
  _atom_site_fract_z
  _atom_site_thermal_displace_type
  _atom_site_B_iso_or_equiv
  _atom_site_type_symbol
  Dy1      1.0000 0.91813  0.09191  0.67772  Biso   1.000  Dy
  Dy2      1.0000 0.90809  0.82622  0.67772  Biso   1.000  Dy
  Dy3      1.0000 0.17378  0.08187  0.67772  Biso   1.000  Dy
  Dy4      1.0000 0.09191  0.91813  0.82228  Biso   1.000  Dy
  Dy5      1.0000 0.58480  0.42524  0.01105  Biso   1.000  Dy
  Dy6      1.0000 0.57476  0.15956  0.01105  Biso   1.000  Dy
  Dy7      1.0000 0.84044  0.41520  0.01105  Biso   1.000  Dy
  Dy8      1.0000 0.75858  0.25147  0.15561  Biso   1.000  Dy
  Dy9      1.0000 0.25147  0.75858  0.34439  Biso   1.000  Dy
  Dy10     1.0000 0.42524  0.58480  0.48895  Biso   1.000  Dy
  Dy11     1.0000 0.82622  0.90809  0.82228  Biso   1.000  Dy
  Dy12     1.0000 0.08187  0.17378  0.82228  Biso   1.000  Dy
  Dy13     1.0000 0.24142  0.49289  0.34439  Biso   1.000  Dy
  Dy14     1.0000 0.50711  0.74853  0.34439  Biso   1.000  Dy
  Dy15     1.0000 0.15956  0.57476  0.48895  Biso   1.000  Dy
  Dy16     1.0000 0.41520  0.84044  0.48895  Biso   1.000  Dy
  Dy17     1.0000 0.49289  0.24142  0.15561  Biso   1.000  Dy
  Dy18     1.0000 0.74853  0.50711  0.15561  Biso   1.000  Dy
  Dy19     1.0000 0.08187  0.90809  0.32228  Biso   1.000  Dy
  Dy20     1.0000 0.09191  0.17378  0.32228  Biso   1.000  Dy
  Dy21     1.0000 0.82622  0.91813  0.32228  Biso   1.000  Dy
  Dy22     1.0000 0.90809  0.08187  0.17772  Biso   1.000  Dy
  Dy23     1.0000 0.74853  0.24142  0.65561  Biso   1.000  Dy
  Dy24     1.0000 0.75858  0.50711  0.65561  Biso   1.000  Dy
  Dy25     1.0000 0.49289  0.25147  0.65561  Biso   1.000  Dy
  Dy26     1.0000 0.57476  0.41520  0.51105  Biso   1.000  Dy
  Dy27     1.0000 0.41520  0.57476  0.98895  Biso   1.000  Dy
  Dy28     1.0000 0.24142  0.74853  0.84439  Biso   1.000  Dy
  Dy29     1.0000 0.17378  0.09191  0.17772  Biso   1.000  Dy
  Dy30     1.0000 0.91813  0.82622  0.17772  Biso   1.000  Dy
  Dy31     1.0000 0.42524  0.84044  0.98895  Biso   1.000  Dy
  Dy32     1.0000 0.15956  0.58480  0.98895  Biso   1.000  Dy
  Dy33     1.0000 0.50711  0.75858  0.84439  Biso   1.000  Dy
  Dy34     1.0000 0.25147  0.49289  0.84439  Biso   1.000  Dy
  Dy35     1.0000 0.84044  0.42524  0.51105  Biso   1.000  Dy
  Dy36     1.0000 0.58480  0.15956  0.51105  Biso   1.000  Dy
  Cu1      1.0000 0.33330  0.66670  0.62595  Biso   1.000  Cu
  Cu2      1.0000 0.66670  0.33330  0.87405  Biso   1.000  Cu
  Cu3      1.0000 0.99997  0.00003  0.95928  Biso   1.000  Cu
  Cu4      1.0000 0.33337  0.66663  0.20738  Biso   1.000  Cu
  Cu5      1.0000 0.66663  0.33337  0.29262  Biso   1.000  Cu
  Cu6      1.0000 0.00003  0.99997  0.54072  Biso   1.000  Cu
  Cu7      1.0000 0.66670  0.33330  0.37405  Biso   1.000  Cu
  Cu8      1.0000 0.33330  0.66670  0.12595  Biso   1.000  Cu
  Cu9      1.0000 0.33337  0.66663  0.70738  Biso   1.000  Cu
  Cu10     1.0000 0.99997  0.00003  0.45928  Biso   1.000  Cu
  Cu11     1.0000 0.00003  0.99997  0.04072  Biso   1.000  Cu
  Cu12     1.0000 0.66663  0.33337  0.79262  Biso   1.000  Cu
  Cu13     1.0000 0.30806  0.82286  0.58671  Biso   1.000  Cu
  Cu14     1.0000 0.17714  0.48520  0.58671  Biso   1.000  Cu
  Cu15     1.0000 0.51480  0.69194  0.58671  Biso   1.000  Cu
  Cu16     1.0000 0.82286  0.30806  0.91329  Biso   1.000  Cu
  Cu17     1.0000 0.97473  0.15619  0.92004  Biso   1.000  Cu
  Cu18     1.0000 0.84381  0.81853  0.92004  Biso   1.000  Cu
  Cu19     1.0000 0.18147  0.02527  0.92004  Biso   1.000  Cu
  Cu20     1.0000 0.48953  0.64139  0.24662  Biso   1.000  Cu
  Cu21     1.0000 0.64139  0.48953  0.25338  Biso   1.000  Cu
  Cu22     1.0000 0.15619  0.97473  0.57996  Biso   1.000  Cu
  Cu23     1.0000 0.48520  0.17714  0.91329  Biso   1.000  Cu
  Cu24     1.0000 0.69194  0.51480  0.91329  Biso   1.000  Cu
  Cu25     1.0000 0.51047  0.15187  0.25338  Biso   1.000  Cu
  Cu26     1.0000 0.84813  0.35861  0.25338  Biso   1.000  Cu
  Cu27     1.0000 0.81853  0.84381  0.57996  Biso   1.000  Cu
  Cu28     1.0000 0.02527  0.18147  0.57996  Biso   1.000  Cu
  Cu29     1.0000 0.15187  0.51047  0.24662  Biso   1.000  Cu
  Cu30     1.0000 0.35861  0.84813  0.24662  Biso   1.000  Cu
  Cu31     1.0000 0.69194  0.17714  0.41329  Biso   1.000  Cu
  Cu32     1.0000 0.82286  0.51480  0.41329  Biso   1.000  Cu
  Cu33     1.0000 0.48520  0.30806  0.41329  Biso   1.000  Cu
  Cu34     1.0000 0.17714  0.69194  0.08671  Biso   1.000  Cu
  Cu35     1.0000 0.35861  0.51047  0.74662  Biso   1.000  Cu
  Cu36     1.0000 0.48953  0.84813  0.74662  Biso   1.000  Cu
  Cu37     1.0000 0.15187  0.64139  0.74662  Biso   1.000  Cu
  Cu38     1.0000 0.84381  0.02527  0.42004  Biso   1.000  Cu
  Cu39     1.0000 0.02527  0.84381  0.07996  Biso   1.000  Cu
  Cu40     1.0000 0.51047  0.35861  0.75338  Biso   1.000  Cu
  Cu41     1.0000 0.51480  0.82286  0.08671  Biso   1.000  Cu
  Cu42     1.0000 0.30806  0.48520  0.08671  Biso   1.000  Cu
  Cu43     1.0000 0.15619  0.18147  0.07996  Biso   1.000  Cu
  Cu44     1.0000 0.81853  0.97473  0.07996  Biso   1.000  Cu
  Cu45     1.0000 0.84813  0.48953  0.75338  Biso   1.000  Cu
  Cu46     1.0000 0.64139  0.15187  0.75338  Biso   1.000  Cu
  Cu47     1.0000 0.18147  0.15619  0.42004  Biso   1.000  Cu
  Cu48     1.0000 0.97473  0.81853  0.42004  Biso   1.000  Cu
  I1       1.0000 0.33330  0.66670  0.59793  Biso   1.000  I
  I2       1.0000 0.66670  0.33330  0.90207  Biso   1.000  I
  I3       1.0000 0.99997  0.00003  0.93126  Biso   1.000  I
  I4       1.0000 0.33337  0.66663  0.23540  Biso   1.000  I
  I5       1.0000 0.66663  0.33337  0.26460  Biso   1.000  I
  I6       1.0000 0.00003  0.99997  0.56874  Biso   1.000  I
  I7       1.0000 0.66670  0.33330  0.40207  Biso   1.000  I
  I8       1.0000 0.33330  0.66670  0.09793  Biso   1.000  I
  I9       1.0000 0.33337  0.66663  0.73540  Biso   1.000  I
  I10      1.0000 0.99997  0.00003  0.43126  Biso   1.000  I
  I11      1.0000 0.00003  0.99997  0.06874  Biso   1.000  I
  I12      1.0000 0.66663  0.33337  0.76460  Biso   1.000  I
  I13      1.0000 0.12238  0.78900  0.58340  Biso   1.000  I
  I14      1.0000 0.21100  0.33338  0.58340  Biso   1.000  I
  I15      1.0000 0.66662  0.87762  0.58340  Biso   1.000  I
  I16      1.0000 0.78900  0.12238  0.91660  Biso   1.000  I
  I17      1.0000 0.87767  0.66671  0.91673  Biso   1.000  I
  I18      1.0000 0.33329  0.21095  0.91673  Biso   1.000  I
  I19      1.0000 0.45567  0.45571  0.24993  Biso   1.000  I
  I20      1.0000 0.54433  0.00005  0.25007  Biso   1.000  I
  I21      1.0000 0.99995  0.54429  0.25007  Biso   1.000  I
  I22      1.0000 0.87762  0.21100  0.41660  Biso   1.000  I
  I23      1.0000 0.78900  0.66662  0.41660  Biso   1.000  I
  I24      1.0000 0.33338  0.12238  0.41660  Biso   1.000  I
  I25      1.0000 0.21100  0.87762  0.08340  Biso   1.000  I
  I26      1.0000 0.54429  0.54433  0.74993  Biso   1.000  I
  I27      1.0000 0.45567  0.99995  0.74993  Biso   1.000  I
  I28      1.0000 0.00005  0.45571  0.74993  Biso   1.000  I
  I29      1.0000 0.66662  0.78900  0.08340  Biso   1.000  I
  I30      1.0000 0.12238  0.33338  0.08340  Biso   1.000  I
  C1       1.0000 0.73130  0.87190  0.66480  Biso   1.000  C
  C2       1.0000 0.12810  0.85940  0.66480  Biso   1.000  C
  C3       1.0000 0.14060  0.26870  0.66480  Biso   1.000  C
  C4       1.0000 0.87190  0.73130  0.83520  Biso   1.000  C
  C5       1.0000 0.39797  0.20523  0.99813  Biso   1.000  C
  C6       1.0000 0.79477  0.19273  0.99813  Biso   1.000  C
  C7       1.0000 0.80727  0.60203  0.99813  Biso   1.000  C
  C8       1.0000 0.53857  0.06463  0.16853  Biso   1.000  C
  C9       1.0000 0.06463  0.53857  0.33147  Biso   1.000  C
  C10      1.0000 0.20523  0.39797  0.50187  Biso   1.000  C
  C11      1.0000 0.85940  0.12810  0.83520  Biso   1.000  C
  C12      1.0000 0.26870  0.14060  0.83520  Biso   1.000  C
  C13      1.0000 0.46143  0.52607  0.33147  Biso   1.000  C
  C14      1.0000 0.47393  0.93537  0.33147  Biso   1.000  C
  C15      1.0000 0.19273  0.79477  0.50187  Biso   1.000  C
  C16      1.0000 0.60203  0.80727  0.50187  Biso   1.000  C
  C17      1.0000 0.52607  0.46143  0.16853  Biso   1.000  C
  C18      1.0000 0.93537  0.47393  0.16853  Biso   1.000  C
  C19      1.0000 0.26870  0.12810  0.33520  Biso   1.000  C
  C20      1.0000 0.87190  0.14060  0.33520  Biso   1.000  C
  C21      1.0000 0.85940  0.73130  0.33520  Biso   1.000  C
  C22      1.0000 0.12810  0.26870  0.16480  Biso   1.000  C
  C23      1.0000 0.93537  0.46143  0.66853  Biso   1.000  C
  C24      1.0000 0.53857  0.47393  0.66853  Biso   1.000  C
  C25      1.0000 0.52607  0.06463  0.66853  Biso   1.000  C
  C26      1.0000 0.79477  0.60203  0.49813  Biso   1.000  C
  C27      1.0000 0.60203  0.79477  0.00187  Biso   1.000  C
  C28      1.0000 0.46143  0.93537  0.83147  Biso   1.000  C
  C29      1.0000 0.14060  0.87190  0.16480  Biso   1.000  C
  C30      1.0000 0.73130  0.85940  0.16480  Biso   1.000  C
  C31      1.0000 0.20523  0.80727  0.00187  Biso   1.000  C
  C32      1.0000 0.19273  0.39797  0.00187  Biso   1.000  C
  C33      1.0000 0.47393  0.53857  0.83147  Biso   1.000  C
  C34      1.0000 0.06463  0.52607  0.83147  Biso   1.000  C
  C35      1.0000 0.80727  0.20523  0.49813  Biso   1.000  C
  C36      1.0000 0.39797  0.19273  0.49813  Biso   1.000  C
  C37      1.0000 0.64420  0.82300  0.65417  Biso   1.000  C
  C38      1.0000 0.17700  0.82120  0.65417  Biso   1.000  C
  C39      1.0000 0.17880  0.35580  0.65417  Biso   1.000  C
  C40      1.0000 0.82300  0.64420  0.84583  Biso   1.000  C
  C41      1.0000 0.31087  0.15633  0.98750  Biso   1.000  C
  C42      1.0000 0.84367  0.15453  0.98750  Biso   1.000  C
  C43      1.0000 0.84547  0.68913  0.98750  Biso   1.000  C
  C44      1.0000 0.48967  0.97753  0.17916  Biso   1.000  C
  C45      1.0000 0.97753  0.48967  0.32084  Biso   1.000  C
  C46      1.0000 0.15633  0.31087  0.51250  Biso   1.000  C
  C47      1.0000 0.82120  0.17700  0.84583  Biso   1.000  C
  C48      1.0000 0.35580  0.17880  0.84583  Biso   1.000  C
  C49      1.0000 0.51033  0.48787  0.32084  Biso   1.000  C
  C50      1.0000 0.51213  0.02247  0.32084  Biso   1.000  C
  C51      1.0000 0.15453  0.84367  0.51250  Biso   1.000  C
  C52      1.0000 0.68913  0.84547  0.51250  Biso   1.000  C
  C53      1.0000 0.48787  0.51033  0.17916  Biso   1.000  C
  C54      1.0000 0.02247  0.51213  0.17916  Biso   1.000  C
  C55      1.0000 0.35580  0.17700  0.34583  Biso   1.000  C
  C56      1.0000 0.82300  0.17880  0.34583  Biso   1.000  C
  C57      1.0000 0.82120  0.64420  0.34583  Biso   1.000  C
  C58      1.0000 0.17700  0.35580  0.15417  Biso   1.000  C
  C59      1.0000 0.02247  0.51033  0.67916  Biso   1.000  C
  C60      1.0000 0.48967  0.51213  0.67916  Biso   1.000  C
  C61      1.0000 0.48787  0.97753  0.67916  Biso   1.000  C
  C62      1.0000 0.84367  0.68913  0.48750  Biso   1.000  C
  C63      1.0000 0.68913  0.84367  0.01250  Biso   1.000  C
  C64      1.0000 0.51033  0.02247  0.82084  Biso   1.000  C
  C65      1.0000 0.17880  0.82300  0.15417  Biso   1.000  C
  C66      1.0000 0.64420  0.82120  0.15417  Biso   1.000  C
  C67      1.0000 0.15633  0.84547  0.01250  Biso   1.000  C
  C68      1.0000 0.15453  0.31087  0.01250  Biso   1.000  C
  C69      1.0000 0.51213  0.48967  0.82084  Biso   1.000  C
  C70      1.0000 0.97753  0.48787  0.82084  Biso   1.000  C
  C71      1.0000 0.84547  0.15633  0.48750  Biso   1.000  C
  C72      1.0000 0.31087  0.15453  0.48750  Biso   1.000  C
  C73      1.0000 0.57880  0.72200  0.65460  Biso   1.000  C
  C74      1.0000 0.27800  0.85680  0.65460  Biso   1.000  C
  C75      1.0000 0.14320  0.42120  0.65460  Biso   1.000  C
  C76      1.0000 0.72200  0.57880  0.84540  Biso   1.000  C
  C77      1.0000 0.24547  0.05533  0.98793  Biso   1.000  C
  C78      1.0000 0.94467  0.19013  0.98793  Biso   1.000  C
  C79      1.0000 0.80987  0.75453  0.98793  Biso   1.000  C
  C80      1.0000 0.38867  0.91213  0.17873  Biso   1.000  C
  C81      1.0000 0.91213  0.38867  0.32127  Biso   1.000  C
  C82      1.0000 0.05533  0.24547  0.51207  Biso   1.000  C
  C83      1.0000 0.85680  0.27800  0.84540  Biso   1.000  C
  C84      1.0000 0.42120  0.14320  0.84540  Biso   1.000  C
  C85      1.0000 0.61133  0.52347  0.32127  Biso   1.000  C
  C86      1.0000 0.47653  0.08787  0.32127  Biso   1.000  C
  C87      1.0000 0.19013  0.94467  0.51207  Biso   1.000  C
  C88      1.0000 0.75453  0.80987  0.51207  Biso   1.000  C
  C89      1.0000 0.52347  0.61133  0.17873  Biso   1.000  C
  C90      1.0000 0.08787  0.47653  0.17873  Biso   1.000  C
  C91      1.0000 0.42120  0.27800  0.34540  Biso   1.000  C
  C92      1.0000 0.72200  0.14320  0.34540  Biso   1.000  C
  C93      1.0000 0.85680  0.57880  0.34540  Biso   1.000  C
  C94      1.0000 0.27800  0.42120  0.15460  Biso   1.000  C
  C95      1.0000 0.08787  0.61133  0.67873  Biso   1.000  C
  C96      1.0000 0.38867  0.47653  0.67873  Biso   1.000  C
  C97      1.0000 0.52347  0.91213  0.67873  Biso   1.000  C
  C98      1.0000 0.94467  0.75453  0.48793  Biso   1.000  C
  C99      1.0000 0.75453  0.94467  0.01207  Biso   1.000  C
  C100     1.0000 0.61133  0.08787  0.82127  Biso   1.000  C
  C101     1.0000 0.14320  0.72200  0.15460  Biso   1.000  C
  C102     1.0000 0.57880  0.85680  0.15460  Biso   1.000  C
  C103     1.0000 0.05533  0.80987  0.01207  Biso   1.000  C
  C104     1.0000 0.19013  0.24547  0.01207  Biso   1.000  C
  C105     1.0000 0.47653  0.38867  0.82127  Biso   1.000  C
  C106     1.0000 0.91213  0.52347  0.82127  Biso   1.000  C
  C107     1.0000 0.80987  0.05533  0.48793  Biso   1.000  C
  C108     1.0000 0.24547  0.19013  0.48793  Biso   1.000  C
  H1       1.0000 0.58950  0.68160  0.66100  Biso   1.000  H
  H2       1.0000 0.31840  0.90790  0.66100  Biso   1.000  H
  H3       1.0000 0.09210  0.41050  0.66100  Biso   1.000  H
  H4       1.0000 0.68160  0.58950  0.83900  Biso   1.000  H
  H5       1.0000 0.25617  0.01493  0.99433  Biso   1.000  H
  H6       1.0000 0.98507  0.24123  0.99433  Biso   1.000  H
  H7       1.0000 0.75877  0.74383  0.99433  Biso   1.000  H
  H8       1.0000 0.34827  0.92283  0.17233  Biso   1.000  H
  H9       1.0000 0.92283  0.34827  0.32767  Biso   1.000  H
  H10      1.0000 0.01493  0.25617  0.50567  Biso   1.000  H
  H11      1.0000 0.90790  0.31840  0.83900  Biso   1.000  H
  H12      1.0000 0.41050  0.09210  0.83900  Biso   1.000  H
  H13      1.0000 0.65173  0.57457  0.32767  Biso   1.000  H
  H14      1.0000 0.42543  0.07717  0.32767  Biso   1.000  H
  H15      1.0000 0.24123  0.98507  0.50567  Biso   1.000  H
  H16      1.0000 0.74383  0.75877  0.50567  Biso   1.000  H
  H17      1.0000 0.57457  0.65173  0.17233  Biso   1.000  H
  H18      1.0000 0.07717  0.42543  0.17233  Biso   1.000  H
  H19      1.0000 0.41050  0.31840  0.33900  Biso   1.000  H
  H20      1.0000 0.68160  0.09210  0.33900  Biso   1.000  H
  H21      1.0000 0.90790  0.58950  0.33900  Biso   1.000  H
  H22      1.0000 0.31840  0.41050  0.16100  Biso   1.000  H
  H23      1.0000 0.07717  0.65173  0.67233  Biso   1.000  H
  H24      1.0000 0.34827  0.42543  0.67233  Biso   1.000  H
  H25      1.0000 0.57457  0.92283  0.67233  Biso   1.000  H
  H26      1.0000 0.98507  0.74383  0.49433  Biso   1.000  H
  H27      1.0000 0.74383  0.98507  0.00567  Biso   1.000  H
  H28      1.0000 0.65173  0.07717  0.82767  Biso   1.000  H
  H29      1.0000 0.09210  0.68160  0.16100  Biso   1.000  H
  H30      1.0000 0.58950  0.90790  0.16100  Biso   1.000  H
  H31      1.0000 0.01493  0.75877  0.00567  Biso   1.000  H
  H32      1.0000 0.24123  0.25617  0.00567  Biso   1.000  H
  H33      1.0000 0.42543  0.34827  0.82767  Biso   1.000  H
  H34      1.0000 0.92283  0.57457  0.82767  Biso   1.000  H
  H35      1.0000 0.75877  0.01493  0.49433  Biso   1.000  H
  H36      1.0000 0.25617  0.24123  0.49433  Biso   1.000  H
  C109     1.0000 0.49710  0.67930  0.64567  Biso   1.000  C
  C110     1.0000 0.32070  0.81780  0.64567  Biso   1.000  C
  C111     1.0000 0.18220  0.50290  0.64567  Biso   1.000  C
  C112     1.0000 0.67930  0.49710  0.85433  Biso   1.000  C
  C113     1.0000 0.16377  0.01263  0.97900  Biso   1.000  C
  C114     1.0000 0.98737  0.15113  0.97900  Biso   1.000  C
  C115     1.0000 0.84887  0.83623  0.97900  Biso   1.000  C
  C116     1.0000 0.34597  0.83043  0.18766  Biso   1.000  C
  C117     1.0000 0.83043  0.34597  0.31234  Biso   1.000  C
  C118     1.0000 0.01263  0.16377  0.52100  Biso   1.000  C
  C119     1.0000 0.81780  0.32070  0.85433  Biso   1.000  C
  C120     1.0000 0.50290  0.18220  0.85433  Biso   1.000  C
  C121     1.0000 0.65403  0.48447  0.31234  Biso   1.000  C
  C122     1.0000 0.51553  0.16957  0.31234  Biso   1.000  C
  C123     1.0000 0.15113  0.98737  0.52100  Biso   1.000  C
  C124     1.0000 0.83623  0.84887  0.52100  Biso   1.000  C
  C125     1.0000 0.48447  0.65403  0.18766  Biso   1.000  C
  C126     1.0000 0.16957  0.51553  0.18766  Biso   1.000  C
  C127     1.0000 0.50290  0.32070  0.35433  Biso   1.000  C
  C128     1.0000 0.67930  0.18220  0.35433  Biso   1.000  C
  C129     1.0000 0.81780  0.49710  0.35433  Biso   1.000  C
  C130     1.0000 0.32070  0.50290  0.14567  Biso   1.000  C
  C131     1.0000 0.16957  0.65403  0.68766  Biso   1.000  C
  C132     1.0000 0.34597  0.51553  0.68766  Biso   1.000  C
  C133     1.0000 0.48447  0.83043  0.68766  Biso   1.000  C
  C134     1.0000 0.98737  0.83623  0.47900  Biso   1.000  C
  C135     1.0000 0.83623  0.98737  0.02100  Biso   1.000  C
  C136     1.0000 0.65403  0.16957  0.81234  Biso   1.000  C
  C137     1.0000 0.18220  0.67930  0.14567  Biso   1.000  C
  C138     1.0000 0.49710  0.81780  0.14567  Biso   1.000  C
  C139     1.0000 0.01263  0.84887  0.02100  Biso   1.000  C
  C140     1.0000 0.15113  0.16377  0.02100  Biso   1.000  C
  C141     1.0000 0.51553  0.34597  0.81234  Biso   1.000  C
  C142     1.0000 0.83043  0.48447  0.81234  Biso   1.000  C
  C143     1.0000 0.84887  0.01263  0.47900  Biso   1.000  C
  C144     1.0000 0.16377  0.15113  0.47900  Biso   1.000  C
  H37      1.0000 0.45230  0.61000  0.64650  Biso   1.000  H
  H38      1.0000 0.39000  0.84230  0.64650  Biso   1.000  H
  H39      1.0000 0.15770  0.54770  0.64650  Biso   1.000  H
  H40      1.0000 0.61000  0.45230  0.85350  Biso   1.000  H
  H41      1.0000 0.11897  0.94333  0.97983  Biso   1.000  H
  H42      1.0000 0.05667  0.17563  0.97983  Biso   1.000  H
  H43      1.0000 0.82437  0.88103  0.97983  Biso   1.000  H
  H44      1.0000 0.27667  0.78563  0.18683  Biso   1.000  H
  H45      1.0000 0.78563  0.27667  0.31317  Biso   1.000  H
  H46      1.0000 0.94333  0.11897  0.52017  Biso   1.000  H
  H47      1.0000 0.84230  0.39000  0.85350  Biso   1.000  H
  H48      1.0000 0.54770  0.15770  0.85350  Biso   1.000  H
  H49      1.0000 0.72333  0.50897  0.31317  Biso   1.000  H
  H50      1.0000 0.49103  0.21437  0.31317  Biso   1.000  H
  H51      1.0000 0.17563  0.05667  0.52017  Biso   1.000  H
  H52      1.0000 0.88103  0.82437  0.52017  Biso   1.000  H
  H53      1.0000 0.50897  0.72333  0.18683  Biso   1.000  H
  H54      1.0000 0.21437  0.49103  0.18683  Biso   1.000  H
  H55      1.0000 0.54770  0.39000  0.35350  Biso   1.000  H
  H56      1.0000 0.61000  0.15770  0.35350  Biso   1.000  H
  H57      1.0000 0.84230  0.45230  0.35350  Biso   1.000  H
  H58      1.0000 0.39000  0.54770  0.14650  Biso   1.000  H
  H59      1.0000 0.21437  0.72333  0.68683  Biso   1.000  H
  H60      1.0000 0.27667  0.49103  0.68683  Biso   1.000  H
  H61      1.0000 0.50897  0.78563  0.68683  Biso   1.000  H
  H62      1.0000 0.05667  0.88103  0.47983  Biso   1.000  H
  H63      1.0000 0.88103  0.05667  0.02017  Biso   1.000  H
  H64      1.0000 0.72333  0.21437  0.81317  Biso   1.000  H
  H65      1.0000 0.15770  0.61000  0.14650  Biso   1.000  H
  H66      1.0000 0.45230  0.84230  0.14650  Biso   1.000  H
  H67      1.0000 0.94333  0.82437  0.02017  Biso   1.000  H
  H68      1.0000 0.17563  0.11897  0.02017  Biso   1.000  H
  H69      1.0000 0.49103  0.27667  0.81317  Biso   1.000  H
  H70      1.0000 0.78563  0.50897  0.81317  Biso   1.000  H
  H71      1.0000 0.82437  0.94333  0.47983  Biso   1.000  H
  H72      1.0000 0.11897  0.17563  0.47983  Biso   1.000  H
  C145     1.0000 0.54670  0.82960  0.63483  Biso   1.000  C
  C146     1.0000 0.17040  0.71710  0.63483  Biso   1.000  C
  C147     1.0000 0.28290  0.45330  0.63483  Biso   1.000  C
  C148     1.0000 0.82960  0.54670  0.86517  Biso   1.000  C
  C149     1.0000 0.21337  0.16293  0.96816  Biso   1.000  C
  C150     1.0000 0.83707  0.05043  0.96816  Biso   1.000  C
  C151     1.0000 0.94957  0.78663  0.96816  Biso   1.000  C
  C152     1.0000 0.49627  0.88003  0.19850  Biso   1.000  C
  C153     1.0000 0.88003  0.49627  0.30150  Biso   1.000  C
  C154     1.0000 0.16293  0.21337  0.53184  Biso   1.000  C
  C155     1.0000 0.71710  0.17040  0.86517  Biso   1.000  C
  C156     1.0000 0.45330  0.28290  0.86517  Biso   1.000  C
  C157     1.0000 0.50373  0.38377  0.30150  Biso   1.000  C
  C158     1.0000 0.61623  0.11997  0.30150  Biso   1.000  C
  C159     1.0000 0.05043  0.83707  0.53184  Biso   1.000  C
  C160     1.0000 0.78663  0.94957  0.53184  Biso   1.000  C
  C161     1.0000 0.38377  0.50373  0.19850  Biso   1.000  C
  C162     1.0000 0.11997  0.61623  0.19850  Biso   1.000  C
  C163     1.0000 0.45330  0.17040  0.36517  Biso   1.000  C
  C164     1.0000 0.82960  0.28290  0.36517  Biso   1.000  C
  C165     1.0000 0.71710  0.54670  0.36517  Biso   1.000  C
  C166     1.0000 0.17040  0.45330  0.13483  Biso   1.000  C
  C167     1.0000 0.11997  0.50373  0.69850  Biso   1.000  C
  C168     1.0000 0.49627  0.61623  0.69850  Biso   1.000  C
  C169     1.0000 0.38377  0.88003  0.69850  Biso   1.000  C
  C170     1.0000 0.83707  0.78663  0.46816  Biso   1.000  C
  C171     1.0000 0.78663  0.83707  0.03184  Biso   1.000  C
  C172     1.0000 0.50373  0.11997  0.80150  Biso   1.000  C
  C173     1.0000 0.28290  0.82960  0.13483  Biso   1.000  C
  C174     1.0000 0.54670  0.71710  0.13483  Biso   1.000  C
  C175     1.0000 0.16293  0.94957  0.03184  Biso   1.000  C
  C176     1.0000 0.05043  0.21337  0.03184  Biso   1.000  C
  C177     1.0000 0.61623  0.49627  0.80150  Biso   1.000  C
  C178     1.0000 0.88003  0.38377  0.80150  Biso   1.000  C
  C179     1.0000 0.94957  0.16293  0.46816  Biso   1.000  C
  C180     1.0000 0.21337  0.05043  0.46816  Biso   1.000  C
  H73      1.0000 0.53920  0.86700  0.62760  Biso   1.000  H
  H74      1.0000 0.13300  0.67220  0.62760  Biso   1.000  H
  H75      1.0000 0.32780  0.46080  0.62760  Biso   1.000  H
  H76      1.0000 0.86700  0.53920  0.87240  Biso   1.000  H
  H77      1.0000 0.20587  0.20033  0.96093  Biso   1.000  H
  H78      1.0000 0.79967  0.00553  0.96093  Biso   1.000  H
  H79      1.0000 0.99447  0.79413  0.96093  Biso   1.000  H
  H80      1.0000 0.53367  0.87253  0.20573  Biso   1.000  H
  H81      1.0000 0.87253  0.53367  0.29427  Biso   1.000  H
  H82      1.0000 0.20033  0.20587  0.53907  Biso   1.000  H
  H83      1.0000 0.67220  0.13300  0.87240  Biso   1.000  H
  H84      1.0000 0.46080  0.32780  0.87240  Biso   1.000  H
  H85      1.0000 0.46633  0.33887  0.29427  Biso   1.000  H
  H86      1.0000 0.66113  0.12747  0.29427  Biso   1.000  H
  H87      1.0000 0.00553  0.79967  0.53907  Biso   1.000  H
  H88      1.0000 0.79413  0.99447  0.53907  Biso   1.000  H
  H89      1.0000 0.33887  0.46633  0.20573  Biso   1.000  H
  H90      1.0000 0.12747  0.66113  0.20573  Biso   1.000  H
  H91      1.0000 0.46080  0.13300  0.37240  Biso   1.000  H
  H92      1.0000 0.86700  0.32780  0.37240  Biso   1.000  H
  H93      1.0000 0.67220  0.53920  0.37240  Biso   1.000  H
  H94      1.0000 0.13300  0.46080  0.12760  Biso   1.000  H
  H95      1.0000 0.12747  0.46633  0.70573  Biso   1.000  H
  H96      1.0000 0.53367  0.66113  0.70573  Biso   1.000  H
  H97      1.0000 0.33887  0.87253  0.70573  Biso   1.000  H
  H98      1.0000 0.79967  0.79413  0.46093  Biso   1.000  H
  H99      1.0000 0.79413  0.79967  0.03907  Biso   1.000  H
  H100     1.0000 0.46633  0.12747  0.79427  Biso   1.000  H
  H101     1.0000 0.32780  0.86700  0.12760  Biso   1.000  H
  H102     1.0000 0.53920  0.67220  0.12760  Biso   1.000  H
  H103     1.0000 0.20033  0.99447  0.03907  Biso   1.000  H
  H104     1.0000 0.00553  0.20587  0.03907  Biso   1.000  H
  H105     1.0000 0.66113  0.53367  0.79427  Biso   1.000  H
  H106     1.0000 0.87253  0.33887  0.79427  Biso   1.000  H
  H107     1.0000 0.99447  0.20033  0.46093  Biso   1.000  H
  H108     1.0000 0.20587  0.00553  0.46093  Biso   1.000  H
  C181     1.0000 0.62750  0.87820  0.64388  Biso   1.000  C
  C182     1.0000 0.12180  0.74930  0.64388  Biso   1.000  C
  C183     1.0000 0.25070  0.37250  0.64388  Biso   1.000  C
  C184     1.0000 0.87820  0.62750  0.85612  Biso   1.000  C
  C185     1.0000 0.29417  0.21153  0.97721  Biso   1.000  C
  C186     1.0000 0.78847  0.08263  0.97721  Biso   1.000  C
  C187     1.0000 0.91737  0.70583  0.97721  Biso   1.000  C
  C188     1.0000 0.54487  0.96083  0.18945  Biso   1.000  C
  C189     1.0000 0.96083  0.54487  0.31055  Biso   1.000  C
  C190     1.0000 0.21153  0.29417  0.52279  Biso   1.000  C
  C191     1.0000 0.74930  0.12180  0.85612  Biso   1.000  C
  C192     1.0000 0.37250  0.25070  0.85612  Biso   1.000  C
  C193     1.0000 0.45513  0.41597  0.31055  Biso   1.000  C
  C194     1.0000 0.58403  0.03917  0.31055  Biso   1.000  C
  C195     1.0000 0.08263  0.78847  0.52279  Biso   1.000  C
  C196     1.0000 0.70583  0.91737  0.52279  Biso   1.000  C
  C197     1.0000 0.41597  0.45513  0.18945  Biso   1.000  C
  C198     1.0000 0.03917  0.58403  0.18945  Biso   1.000  C
  C199     1.0000 0.37250  0.12180  0.35612  Biso   1.000  C
  C200     1.0000 0.87820  0.25070  0.35612  Biso   1.000  C
  C201     1.0000 0.74930  0.62750  0.35612  Biso   1.000  C
  C202     1.0000 0.12180  0.37250  0.14388  Biso   1.000  C
  C203     1.0000 0.03917  0.45513  0.68945  Biso   1.000  C
  C204     1.0000 0.54487  0.58403  0.68945  Biso   1.000  C
  C205     1.0000 0.41597  0.96083  0.68945  Biso   1.000  C
  C206     1.0000 0.78847  0.70583  0.47721  Biso   1.000  C
  C207     1.0000 0.70583  0.78847  0.02279  Biso   1.000  C
  C208     1.0000 0.45513  0.03917  0.81055  Biso   1.000  C
  C209     1.0000 0.25070  0.87820  0.14388  Biso   1.000  C
  C210     1.0000 0.62750  0.74930  0.14388  Biso   1.000  C
  C211     1.0000 0.21153  0.91737  0.02279  Biso   1.000  C
  C212     1.0000 0.08263  0.29417  0.02279  Biso   1.000  C
  C213     1.0000 0.58403  0.54487  0.81055  Biso   1.000  C
  C214     1.0000 0.96083  0.41597  0.81055  Biso   1.000  C
  C215     1.0000 0.91737  0.21153  0.47721  Biso   1.000  C
  C216     1.0000 0.29417  0.08263  0.47721  Biso   1.000  C
  H109     1.0000 0.67080  0.94770  0.64320  Biso   1.000  H
  H110     1.0000 0.05230  0.72310  0.64320  Biso   1.000  H
  H111     1.0000 0.27690  0.32920  0.64320  Biso   1.000  H
  H112     1.0000 0.94770  0.67080  0.85680  Biso   1.000  H
  H113     1.0000 0.33747  0.28103  0.97653  Biso   1.000  H
  H114     1.0000 0.71897  0.05643  0.97653  Biso   1.000  H
  H115     1.0000 0.94357  0.66253  0.97653  Biso   1.000  H
  H116     1.0000 0.61437  0.00413  0.19013  Biso   1.000  H
  H117     1.0000 0.00413  0.61437  0.30987  Biso   1.000  H
  H118     1.0000 0.28103  0.33747  0.52347  Biso   1.000  H
  H119     1.0000 0.72310  0.05230  0.85680  Biso   1.000  H
  H120     1.0000 0.32920  0.27690  0.85680  Biso   1.000  H
  H121     1.0000 0.38563  0.38977  0.30987  Biso   1.000  H
  H122     1.0000 0.61023  0.99587  0.30987  Biso   1.000  H
  H123     1.0000 0.05643  0.71897  0.52347  Biso   1.000  H
  H124     1.0000 0.66253  0.94357  0.52347  Biso   1.000  H
  H125     1.0000 0.38977  0.38563  0.19013  Biso   1.000  H
  H126     1.0000 0.99587  0.61023  0.19013  Biso   1.000  H
  H127     1.0000 0.32920  0.05230  0.35680  Biso   1.000  H
  H128     1.0000 0.94770  0.27690  0.35680  Biso   1.000  H
  H129     1.0000 0.72310  0.67080  0.35680  Biso   1.000  H
  H130     1.0000 0.05230  0.32920  0.14320  Biso   1.000  H
  H131     1.0000 0.99587  0.38563  0.69013  Biso   1.000  H
  H132     1.0000 0.61437  0.61023  0.69013  Biso   1.000  H
  H133     1.0000 0.38977  0.00413  0.69013  Biso   1.000  H
  H134     1.0000 0.71897  0.66253  0.47653  Biso   1.000  H
  H135     1.0000 0.66253  0.71897  0.02347  Biso   1.000  H
  H136     1.0000 0.38563  0.99587  0.80987  Biso   1.000  H
  H137     1.0000 0.27690  0.94770  0.14320  Biso   1.000  H
  H138     1.0000 0.67080  0.72310  0.14320  Biso   1.000  H
  H139     1.0000 0.28103  0.94357  0.02347  Biso   1.000  H
  H140     1.0000 0.05643  0.33747  0.02347  Biso   1.000  H
  H141     1.0000 0.61023  0.61437  0.80987  Biso   1.000  H
  H142     1.0000 0.00413  0.38977  0.80987  Biso   1.000  H
  H143     1.0000 0.94357  0.28103  0.47653  Biso   1.000  H
  H144     1.0000 0.33747  0.05643  0.47653  Biso   1.000  H
  C217     1.0000 0.58990  0.14060  0.63218  Biso   1.000  C
  C218     1.0000 0.85940  0.44930  0.63218  Biso   1.000  C
  C219     1.0000 0.55070  0.41010  0.63218  Biso   1.000  C
  C220     1.0000 0.14060  0.58990  0.86782  Biso   1.000  C
  C221     1.0000 0.25657  0.47393  0.96551  Biso   1.000  C
  C222     1.0000 0.52607  0.78263  0.96551  Biso   1.000  C
  C223     1.0000 0.21737  0.74343  0.96551  Biso   1.000  C
  C224     1.0000 0.80727  0.92323  0.20115  Biso   1.000  C
  C225     1.0000 0.92323  0.80727  0.29885  Biso   1.000  C
  C226     1.0000 0.47393  0.25657  0.53449  Biso   1.000  C
  C227     1.0000 0.44930  0.85940  0.86782  Biso   1.000  C
  C228     1.0000 0.41010  0.55070  0.86782  Biso   1.000  C
  C229     1.0000 0.19273  0.11597  0.29885  Biso   1.000  C
  C230     1.0000 0.88403  0.07677  0.29885  Biso   1.000  C
  C231     1.0000 0.78263  0.52607  0.53449  Biso   1.000  C
  C232     1.0000 0.74343  0.21737  0.53449  Biso   1.000  C
  C233     1.0000 0.11597  0.19273  0.20115  Biso   1.000  C
  C234     1.0000 0.07677  0.88403  0.20115  Biso   1.000  C
  C235     1.0000 0.41010  0.85940  0.36782  Biso   1.000  C
  C236     1.0000 0.14060  0.55070  0.36782  Biso   1.000  C
  C237     1.0000 0.44930  0.58990  0.36782  Biso   1.000  C
  C238     1.0000 0.85940  0.41010  0.13218  Biso   1.000  C
  C239     1.0000 0.07677  0.19273  0.70115  Biso   1.000  C
  C240     1.0000 0.80727  0.88403  0.70115  Biso   1.000  C
  C241     1.0000 0.11597  0.92323  0.70115  Biso   1.000  C
  C242     1.0000 0.52607  0.74343  0.46551  Biso   1.000  C
  C243     1.0000 0.74343  0.52607  0.03449  Biso   1.000  C
  C244     1.0000 0.19273  0.07677  0.79885  Biso   1.000  C
  C245     1.0000 0.55070  0.14060  0.13218  Biso   1.000  C
  C246     1.0000 0.58990  0.44930  0.13218  Biso   1.000  C
  C247     1.0000 0.47393  0.21737  0.03449  Biso   1.000  C
  C248     1.0000 0.78263  0.25657  0.03449  Biso   1.000  C
  C249     1.0000 0.88403  0.80727  0.79885  Biso   1.000  C
  C250     1.0000 0.92323  0.11597  0.79885  Biso   1.000  C
  C251     1.0000 0.21737  0.47393  0.46551  Biso   1.000  C
  C252     1.0000 0.25657  0.78263  0.46551  Biso   1.000  C
  C253     1.0000 0.52180  0.06650  0.62140  Biso   1.000  C
  C254     1.0000 0.93350  0.45530  0.62140  Biso   1.000  C
  C255     1.0000 0.54470  0.47820  0.62140  Biso   1.000  C
  C256     1.0000 0.06650  0.52180  0.87860  Biso   1.000  C
  C257     1.0000 0.18847  0.39983  0.95473  Biso   1.000  C
  C258     1.0000 0.60017  0.78863  0.95473  Biso   1.000  C
  C259     1.0000 0.21137  0.81153  0.95473  Biso   1.000  C
  C260     1.0000 0.73317  0.85513  0.21193  Biso   1.000  C
  C261     1.0000 0.85513  0.73317  0.28807  Biso   1.000  C
  C262     1.0000 0.39983  0.18847  0.54527  Biso   1.000  C
  C263     1.0000 0.45530  0.93350  0.87860  Biso   1.000  C
  C264     1.0000 0.47820  0.54470  0.87860  Biso   1.000  C
  C265     1.0000 0.26683  0.12197  0.28807  Biso   1.000  C
  C266     1.0000 0.87803  0.14487  0.28807  Biso   1.000  C
  C267     1.0000 0.78863  0.60017  0.54527  Biso   1.000  C
  C268     1.0000 0.81153  0.21137  0.54527  Biso   1.000  C
  C269     1.0000 0.12197  0.26683  0.21193  Biso   1.000  C
  C270     1.0000 0.14487  0.87803  0.21193  Biso   1.000  C
  C271     1.0000 0.47820  0.93350  0.37860  Biso   1.000  C
  C272     1.0000 0.06650  0.54470  0.37860  Biso   1.000  C
  C273     1.0000 0.45530  0.52180  0.37860  Biso   1.000  C
  C274     1.0000 0.93350  0.47820  0.12140  Biso   1.000  C
  C275     1.0000 0.14487  0.26683  0.71193  Biso   1.000  C
  C276     1.0000 0.73317  0.87803  0.71193  Biso   1.000  C
  C277     1.0000 0.12197  0.85513  0.71193  Biso   1.000  C
  C278     1.0000 0.60017  0.81153  0.45473  Biso   1.000  C
  C279     1.0000 0.81153  0.60017  0.04527  Biso   1.000  C
  C280     1.0000 0.26683  0.14487  0.78807  Biso   1.000  C
  C281     1.0000 0.54470  0.06650  0.12140  Biso   1.000  C
  C282     1.0000 0.52180  0.45530  0.12140  Biso   1.000  C
  C283     1.0000 0.39983  0.21137  0.04527  Biso   1.000  C
  C284     1.0000 0.78863  0.18847  0.04527  Biso   1.000  C
  C285     1.0000 0.87803  0.73317  0.78807  Biso   1.000  C
  C286     1.0000 0.85513  0.12197  0.78807  Biso   1.000  C
  C287     1.0000 0.21137  0.39983  0.45473  Biso   1.000  C
  C288     1.0000 0.18847  0.78863  0.45473  Biso   1.000  C
  C289     1.0000 0.41870  0.02440  0.62230  Biso   1.000  C
  C290     1.0000 0.97560  0.39430  0.62230  Biso   1.000  C
  C291     1.0000 0.60570  0.58130  0.62230  Biso   1.000  C
  C292     1.0000 0.02440  0.41870  0.87770  Biso   1.000  C
  C293     1.0000 0.08537  0.35773  0.95563  Biso   1.000  C
  C294     1.0000 0.64227  0.72763  0.95563  Biso   1.000  C
  C295     1.0000 0.27237  0.91463  0.95563  Biso   1.000  C
  C296     1.0000 0.69107  0.75203  0.21103  Biso   1.000  C
  C297     1.0000 0.75203  0.69107  0.28897  Biso   1.000  C
  C298     1.0000 0.35773  0.08537  0.54437  Biso   1.000  C
  C299     1.0000 0.39430  0.97560  0.87770  Biso   1.000  C
  C300     1.0000 0.58130  0.60570  0.87770  Biso   1.000  C
  C301     1.0000 0.30893  0.06097  0.28897  Biso   1.000  C
  C302     1.0000 0.93903  0.24797  0.28897  Biso   1.000  C
  C303     1.0000 0.72763  0.64227  0.54437  Biso   1.000  C
  C304     1.0000 0.91463  0.27237  0.54437  Biso   1.000  C
  C305     1.0000 0.06097  0.30893  0.21103  Biso   1.000  C
  C306     1.0000 0.24797  0.93903  0.21103  Biso   1.000  C
  C307     1.0000 0.58130  0.97560  0.37770  Biso   1.000  C
  C308     1.0000 0.02440  0.60570  0.37770  Biso   1.000  C
  C309     1.0000 0.39430  0.41870  0.37770  Biso   1.000  C
  C310     1.0000 0.97560  0.58130  0.12230  Biso   1.000  C
  C311     1.0000 0.24797  0.30893  0.71103  Biso   1.000  C
  C312     1.0000 0.69107  0.93903  0.71103  Biso   1.000  C
  C313     1.0000 0.06097  0.75203  0.71103  Biso   1.000  C
  C314     1.0000 0.64227  0.91463  0.45563  Biso   1.000  C
  C315     1.0000 0.91463  0.64227  0.04437  Biso   1.000  C
  C316     1.0000 0.30893  0.24797  0.78897  Biso   1.000  C
  C317     1.0000 0.60570  0.02440  0.12230  Biso   1.000  C
  C318     1.0000 0.41870  0.39430  0.12230  Biso   1.000  C
  C319     1.0000 0.35773  0.27237  0.04437  Biso   1.000  C
  C320     1.0000 0.72763  0.08537  0.04437  Biso   1.000  C
  C321     1.0000 0.93903  0.69107  0.78897  Biso   1.000  C
  C322     1.0000 0.75203  0.06097  0.78897  Biso   1.000  C
  C323     1.0000 0.27237  0.35773  0.45563  Biso   1.000  C
  C324     1.0000 0.08537  0.72763  0.45563  Biso   1.000  C
  H145     1.0000 0.39010  0.04300  0.62960  Biso   1.000  H
  H146     1.0000 0.95700  0.34710  0.62960  Biso   1.000  H
  H147     1.0000 0.65290  0.60990  0.62960  Biso   1.000  H
  H148     1.0000 0.04300  0.39010  0.87040  Biso   1.000  H
  H149     1.0000 0.05677  0.37633  0.96293  Biso   1.000  H
  H150     1.0000 0.62367  0.68043  0.96293  Biso   1.000  H
  H151     1.0000 0.31957  0.94323  0.96293  Biso   1.000  H
  H152     1.0000 0.70967  0.72343  0.20373  Biso   1.000  H
  H153     1.0000 0.72343  0.70967  0.29627  Biso   1.000  H
  H154     1.0000 0.37633  0.05677  0.53707  Biso   1.000  H
  H155     1.0000 0.34710  0.95700  0.87040  Biso   1.000  H
  H156     1.0000 0.60990  0.65290  0.87040  Biso   1.000  H
  H157     1.0000 0.29033  0.01377  0.29627  Biso   1.000  H
  H158     1.0000 0.98623  0.27657  0.29627  Biso   1.000  H
  H159     1.0000 0.68043  0.62367  0.53707  Biso   1.000  H
  H160     1.0000 0.94323  0.31957  0.53707  Biso   1.000  H
  H161     1.0000 0.01377  0.29033  0.20373  Biso   1.000  H
  H162     1.0000 0.27657  0.98623  0.20373  Biso   1.000  H
  H163     1.0000 0.60990  0.95700  0.37040  Biso   1.000  H
  H164     1.0000 0.04300  0.65290  0.37040  Biso   1.000  H
  H165     1.0000 0.34710  0.39010  0.37040  Biso   1.000  H
  H166     1.0000 0.95700  0.60990  0.12960  Biso   1.000  H
  H167     1.0000 0.27657  0.29033  0.70373  Biso   1.000  H
  H168     1.0000 0.70967  0.98623  0.70373  Biso   1.000  H
  H169     1.0000 0.01377  0.72343  0.70373  Biso   1.000  H
  H170     1.0000 0.62367  0.94323  0.46293  Biso   1.000  H
  H171     1.0000 0.94323  0.62367  0.03707  Biso   1.000  H
  H172     1.0000 0.29033  0.27657  0.79627  Biso   1.000  H
  H173     1.0000 0.65290  0.04300  0.12960  Biso   1.000  H
  H174     1.0000 0.39010  0.34710  0.12960  Biso   1.000  H
  H175     1.0000 0.37633  0.31957  0.03707  Biso   1.000  H
  H176     1.0000 0.68043  0.05677  0.03707  Biso   1.000  H
  H177     1.0000 0.98623  0.70967  0.79627  Biso   1.000  H
  H178     1.0000 0.72343  0.01377  0.79627  Biso   1.000  H
  H179     1.0000 0.31957  0.37633  0.46293  Biso   1.000  H
  H180     1.0000 0.05677  0.68043  0.46293  Biso   1.000  H
  C325     1.0000 0.35860  0.95510  0.61236  Biso   1.000  C
  C326     1.0000 0.04490  0.40350  0.61236  Biso   1.000  C
  C327     1.0000 0.59650  0.64140  0.61236  Biso   1.000  C
  C328     1.0000 0.95510  0.35860  0.88764  Biso   1.000  C
  C329     1.0000 0.02527  0.28843  0.94569  Biso   1.000  C
  C330     1.0000 0.71157  0.73683  0.94569  Biso   1.000  C
  C331     1.0000 0.26317  0.97473  0.94569  Biso   1.000  C
  C332     1.0000 0.62177  0.69193  0.22097  Biso   1.000  C
  C333     1.0000 0.69193  0.62177  0.27903  Biso   1.000  C
  C334     1.0000 0.28843  0.02527  0.55431  Biso   1.000  C
  C335     1.0000 0.40350  0.04490  0.88764  Biso   1.000  C
  C336     1.0000 0.64140  0.59650  0.88764  Biso   1.000  C
  C337     1.0000 0.37823  0.07017  0.27903  Biso   1.000  C
  C338     1.0000 0.92983  0.30807  0.27903  Biso   1.000  C
  C339     1.0000 0.73683  0.71157  0.55431  Biso   1.000  C
  C340     1.0000 0.97473  0.26317  0.55431  Biso   1.000  C
  C341     1.0000 0.07017  0.37823  0.22097  Biso   1.000  C
  C342     1.0000 0.30807  0.92983  0.22097  Biso   1.000  C
  C343     1.0000 0.64140  0.04490  0.38764  Biso   1.000  C
  C344     1.0000 0.95510  0.59650  0.38764  Biso   1.000  C
  C345     1.0000 0.40350  0.35860  0.38764  Biso   1.000  C
  C346     1.0000 0.04490  0.64140  0.11236  Biso   1.000  C
  C347     1.0000 0.30807  0.37823  0.72097  Biso   1.000  C
  C348     1.0000 0.62177  0.92983  0.72097  Biso   1.000  C
  C349     1.0000 0.07017  0.69193  0.72097  Biso   1.000  C
  C350     1.0000 0.71157  0.97473  0.44569  Biso   1.000  C
  C351     1.0000 0.97473  0.71157  0.05431  Biso   1.000  C
  C352     1.0000 0.37823  0.30807  0.77903  Biso   1.000  C
  C353     1.0000 0.59650  0.95510  0.11236  Biso   1.000  C
  C354     1.0000 0.35860  0.40350  0.11236  Biso   1.000  C
  C355     1.0000 0.28843  0.26317  0.05431  Biso   1.000  C
  C356     1.0000 0.73683  0.02527  0.05431  Biso   1.000  C
  C357     1.0000 0.92983  0.62177  0.77903  Biso   1.000  C
  C358     1.0000 0.69193  0.07017  0.77903  Biso   1.000  C
  C359     1.0000 0.26317  0.28843  0.44569  Biso   1.000  C
  C360     1.0000 0.02527  0.73683  0.44569  Biso   1.000  C
  H181     1.0000 0.28870  0.92560  0.61330  Biso   1.000  H
  H182     1.0000 0.07440  0.36310  0.61330  Biso   1.000  H
  H183     1.0000 0.63690  0.71130  0.61330  Biso   1.000  H
  H184     1.0000 0.92560  0.28870  0.88670  Biso   1.000  H
  H185     1.0000 0.95537  0.25893  0.94663  Biso   1.000  H
  H186     1.0000 0.74107  0.69643  0.94663  Biso   1.000  H
  H187     1.0000 0.30357  0.04463  0.94663  Biso   1.000  H
  H188     1.0000 0.59227  0.62203  0.22003  Biso   1.000  H
  H189     1.0000 0.62203  0.59227  0.27997  Biso   1.000  H
  H190     1.0000 0.25893  0.95537  0.55337  Biso   1.000  H
  H191     1.0000 0.36310  0.07440  0.88670  Biso   1.000  H
  H192     1.0000 0.71130  0.63690  0.88670  Biso   1.000  H
  H193     1.0000 0.40773  0.02977  0.27997  Biso   1.000  H
  H194     1.0000 0.97023  0.37797  0.27997  Biso   1.000  H
  H195     1.0000 0.69643  0.74107  0.55337  Biso   1.000  H
  H196     1.0000 0.04463  0.30357  0.55337  Biso   1.000  H
  H197     1.0000 0.02977  0.40773  0.22003  Biso   1.000  H
  H198     1.0000 0.37797  0.97023  0.22003  Biso   1.000  H
  H199     1.0000 0.71130  0.07440  0.38670  Biso   1.000  H
  H200     1.0000 0.92560  0.63690  0.38670  Biso   1.000  H
  H201     1.0000 0.36310  0.28870  0.38670  Biso   1.000  H
  H202     1.0000 0.07440  0.71130  0.11330  Biso   1.000  H
  H203     1.0000 0.37797  0.40773  0.72003  Biso   1.000  H
  H204     1.0000 0.59227  0.97023  0.72003  Biso   1.000  H
  H205     1.0000 0.02977  0.62203  0.72003  Biso   1.000  H
  H206     1.0000 0.74107  0.04463  0.44663  Biso   1.000  H
  H207     1.0000 0.04463  0.74107  0.05337  Biso   1.000  H
  H208     1.0000 0.40773  0.37797  0.77997  Biso   1.000  H
  H209     1.0000 0.63690  0.92560  0.11330  Biso   1.000  H
  H210     1.0000 0.28870  0.36310  0.11330  Biso   1.000  H
  H211     1.0000 0.25893  0.30357  0.05337  Biso   1.000  H
  H212     1.0000 0.69643  0.95537  0.05337  Biso   1.000  H
  H213     1.0000 0.97023  0.59227  0.77997  Biso   1.000  H
  H214     1.0000 0.62203  0.02977  0.77997  Biso   1.000  H
  H215     1.0000 0.30357  0.25893  0.44663  Biso   1.000  H
  H216     1.0000 0.95537  0.69643  0.44663  Biso   1.000  H
  C361     1.0000 0.49360  0.96610  0.60107  Biso   1.000  C
  C362     1.0000 0.03390  0.52750  0.60107  Biso   1.000  C
  C363     1.0000 0.47250  0.50640  0.60107  Biso   1.000  C
  C364     1.0000 0.96610  0.49360  0.89893  Biso   1.000  C
  C365     1.0000 0.16027  0.29943  0.93440  Biso   1.000  C
  C366     1.0000 0.70057  0.86083  0.93440  Biso   1.000  C
  C367     1.0000 0.13917  0.83973  0.93440  Biso   1.000  C
  C368     1.0000 0.63277  0.82693  0.23226  Biso   1.000  C
  C369     1.0000 0.82693  0.63277  0.26774  Biso   1.000  C
  C370     1.0000 0.29943  0.16027  0.56560  Biso   1.000  C
  C371     1.0000 0.52750  0.03390  0.89893  Biso   1.000  C
  C372     1.0000 0.50640  0.47250  0.89893  Biso   1.000  C
  C373     1.0000 0.36723  0.19417  0.26774  Biso   1.000  C
  C374     1.0000 0.80583  0.17307  0.26774  Biso   1.000  C
  C375     1.0000 0.86083  0.70057  0.56560  Biso   1.000  C
  C376     1.0000 0.83973  0.13917  0.56560  Biso   1.000  C
  C377     1.0000 0.19417  0.36723  0.23226  Biso   1.000  C
  C378     1.0000 0.17307  0.80583  0.23226  Biso   1.000  C
  C379     1.0000 0.50640  0.03390  0.39893  Biso   1.000  C
  C380     1.0000 0.96610  0.47250  0.39893  Biso   1.000  C
  C381     1.0000 0.52750  0.49360  0.39893  Biso   1.000  C
  C382     1.0000 0.03390  0.50640  0.10107  Biso   1.000  C
  C383     1.0000 0.17307  0.36723  0.73226  Biso   1.000  C
  C384     1.0000 0.63277  0.80583  0.73226  Biso   1.000  C
  C385     1.0000 0.19417  0.82693  0.73226  Biso   1.000  C
  C386     1.0000 0.70057  0.83973  0.43440  Biso   1.000  C
  C387     1.0000 0.83973  0.70057  0.06560  Biso   1.000  C
  C388     1.0000 0.36723  0.17307  0.76774  Biso   1.000  C
  C389     1.0000 0.47250  0.96610  0.10107  Biso   1.000  C
  C390     1.0000 0.49360  0.52750  0.10107  Biso   1.000  C
  C391     1.0000 0.29943  0.13917  0.06560  Biso   1.000  C
  C392     1.0000 0.86083  0.16027  0.06560  Biso   1.000  C
  C393     1.0000 0.80583  0.63277  0.76774  Biso   1.000  C
  C394     1.0000 0.82693  0.19417  0.76774  Biso   1.000  C
  C395     1.0000 0.13917  0.29943  0.43440  Biso   1.000  C
  C396     1.0000 0.16027  0.86083  0.43440  Biso   1.000  C
  H217     1.0000 0.52030  0.94480  0.59390  Biso   1.000  H
  H218     1.0000 0.05520  0.57550  0.59390  Biso   1.000  H
  H219     1.0000 0.42450  0.47970  0.59390  Biso   1.000  H
  H220     1.0000 0.94480  0.52030  0.90610  Biso   1.000  H
  H221     1.0000 0.18697  0.27813  0.92723  Biso   1.000  H
  H222     1.0000 0.72187  0.90883  0.92723  Biso   1.000  H
  H223     1.0000 0.09117  0.81303  0.92723  Biso   1.000  H
  H224     1.0000 0.61147  0.85363  0.23943  Biso   1.000  H
  H225     1.0000 0.85363  0.61147  0.26057  Biso   1.000  H
  H226     1.0000 0.27813  0.18697  0.57277  Biso   1.000  H
  H227     1.0000 0.57550  0.05520  0.90610  Biso   1.000  H
  H228     1.0000 0.47970  0.42450  0.90610  Biso   1.000  H
  H229     1.0000 0.38853  0.24217  0.26057  Biso   1.000  H
  H230     1.0000 0.75783  0.14637  0.26057  Biso   1.000  H
  H231     1.0000 0.90883  0.72187  0.57277  Biso   1.000  H
  H232     1.0000 0.81303  0.09117  0.57277  Biso   1.000  H
  H233     1.0000 0.24217  0.38853  0.23943  Biso   1.000  H
  H234     1.0000 0.14637  0.75783  0.23943  Biso   1.000  H
  H235     1.0000 0.47970  0.05520  0.40610  Biso   1.000  H
  H236     1.0000 0.94480  0.42450  0.40610  Biso   1.000  H
  H237     1.0000 0.57550  0.52030  0.40610  Biso   1.000  H
  H238     1.0000 0.05520  0.47970  0.09390  Biso   1.000  H
  H239     1.0000 0.14637  0.38853  0.73943  Biso   1.000  H
  H240     1.0000 0.61147  0.75783  0.73943  Biso   1.000  H
  H241     1.0000 0.24217  0.85363  0.73943  Biso   1.000  H
  H242     1.0000 0.72187  0.81303  0.42723  Biso   1.000  H
  H243     1.0000 0.81303  0.72187  0.07277  Biso   1.000  H
  H244     1.0000 0.38853  0.14637  0.76057  Biso   1.000  H
  H245     1.0000 0.42450  0.94480  0.09390  Biso   1.000  H
  H246     1.0000 0.52030  0.57550  0.09390  Biso   1.000  H
  H247     1.0000 0.27813  0.09117  0.07277  Biso   1.000  H
  H248     1.0000 0.90883  0.18697  0.07277  Biso   1.000  H
  H249     1.0000 0.75783  0.61147  0.76057  Biso   1.000  H
  H250     1.0000 0.85363  0.24217  0.76057  Biso   1.000  H
  H251     1.0000 0.09117  0.27813  0.42723  Biso   1.000  H
  H252     1.0000 0.18697  0.90883  0.42723  Biso   1.000  H
  C397     1.0000 0.55980  0.03520  0.61055  Biso   1.000  C
  C398     1.0000 0.96480  0.52460  0.61055  Biso   1.000  C
  C399     1.0000 0.47540  0.44020  0.61055  Biso   1.000  C
  C400     1.0000 0.03520  0.55980  0.88945  Biso   1.000  C
  C401     1.0000 0.22647  0.36853  0.94388  Biso   1.000  C
  C402     1.0000 0.63147  0.85793  0.94388  Biso   1.000  C
  C403     1.0000 0.14207  0.77353  0.94388  Biso   1.000  C
  C404     1.0000 0.70187  0.89313  0.22278  Biso   1.000  C
  C405     1.0000 0.89313  0.70187  0.27722  Biso   1.000  C
  C406     1.0000 0.36853  0.22647  0.55612  Biso   1.000  C
  C407     1.0000 0.52460  0.96480  0.88945  Biso   1.000  C
  C408     1.0000 0.44020  0.47540  0.88945  Biso   1.000  C
  C409     1.0000 0.29813  0.19127  0.27722  Biso   1.000  C
  C410     1.0000 0.80873  0.10687  0.27722  Biso   1.000  C
  C411     1.0000 0.85793  0.63147  0.55612  Biso   1.000  C
  C412     1.0000 0.77353  0.14207  0.55612  Biso   1.000  C
  C413     1.0000 0.19127  0.29813  0.22278  Biso   1.000  C
  C414     1.0000 0.10687  0.80873  0.22278  Biso   1.000  C
  C415     1.0000 0.44020  0.96480  0.38945  Biso   1.000  C
  C416     1.0000 0.03520  0.47540  0.38945  Biso   1.000  C
  C417     1.0000 0.52460  0.55980  0.38945  Biso   1.000  C
  C418     1.0000 0.96480  0.44020  0.11055  Biso   1.000  C
  C419     1.0000 0.10687  0.29813  0.72278  Biso   1.000  C
  C420     1.0000 0.70187  0.80873  0.72278  Biso   1.000  C
  C421     1.0000 0.19127  0.89313  0.72278  Biso   1.000  C
  C422     1.0000 0.63147  0.77353  0.44388  Biso   1.000  C
  C423     1.0000 0.77353  0.63147  0.05612  Biso   1.000  C
  C424     1.0000 0.29813  0.10687  0.77722  Biso   1.000  C
  C425     1.0000 0.47540  0.03520  0.11055  Biso   1.000  C
  C426     1.0000 0.55980  0.52460  0.11055  Biso   1.000  C
  C427     1.0000 0.36853  0.14207  0.05612  Biso   1.000  C
  C428     1.0000 0.85793  0.22647  0.05612  Biso   1.000  C
  C429     1.0000 0.80873  0.70187  0.77722  Biso   1.000  C
  C430     1.0000 0.89313  0.19127  0.77722  Biso   1.000  C
  C431     1.0000 0.14207  0.36853  0.44388  Biso   1.000  C
  C432     1.0000 0.22647  0.85793  0.44388  Biso   1.000  C
  H253     1.0000 0.62910  0.06050  0.60970  Biso   1.000  H
  H254     1.0000 0.93950  0.56860  0.60970  Biso   1.000  H
  H255     1.0000 0.43140  0.37090  0.60970  Biso   1.000  H
  H256     1.0000 0.06050  0.62910  0.89030  Biso   1.000  H
  H257     1.0000 0.29577  0.39383  0.94303  Biso   1.000  H
  H258     1.0000 0.60617  0.90193  0.94303  Biso   1.000  H
  H259     1.0000 0.09807  0.70423  0.94303  Biso   1.000  H
  H260     1.0000 0.72717  0.96243  0.22363  Biso   1.000  H
  H261     1.0000 0.96243  0.72717  0.27637  Biso   1.000  H
  H262     1.0000 0.39383  0.29577  0.55697  Biso   1.000  H
  H263     1.0000 0.56860  0.93950  0.89030  Biso   1.000  H
  H264     1.0000 0.37090  0.43140  0.89030  Biso   1.000  H
  H265     1.0000 0.27283  0.23527  0.27637  Biso   1.000  H
  H266     1.0000 0.76473  0.03757  0.27637  Biso   1.000  H
  H267     1.0000 0.90193  0.60617  0.55697  Biso   1.000  H
  H268     1.0000 0.70423  0.09807  0.55697  Biso   1.000  H
  H269     1.0000 0.23527  0.27283  0.22363  Biso   1.000  H
  H270     1.0000 0.03757  0.76473  0.22363  Biso   1.000  H
  H271     1.0000 0.37090  0.93950  0.39030  Biso   1.000  H
  H272     1.0000 0.06050  0.43140  0.39030  Biso   1.000  H
  H273     1.0000 0.56860  0.62910  0.39030  Biso   1.000  H
  H274     1.0000 0.93950  0.37090  0.10970  Biso   1.000  H
  H275     1.0000 0.03757  0.27283  0.72363  Biso   1.000  H
  H276     1.0000 0.72717  0.76473  0.72363  Biso   1.000  H
  H277     1.0000 0.23527  0.96243  0.72363  Biso   1.000  H
  H278     1.0000 0.60617  0.70423  0.44303  Biso   1.000  H
  H279     1.0000 0.70423  0.60617  0.05697  Biso   1.000  H
  H280     1.0000 0.27283  0.03757  0.77637  Biso   1.000  H
  H281     1.0000 0.43140  0.06050  0.10970  Biso   1.000  H
  H282     1.0000 0.62910  0.56860  0.10970  Biso   1.000  H
  H283     1.0000 0.39383  0.09807  0.05697  Biso   1.000  H
  H284     1.0000 0.90193  0.29577  0.05697  Biso   1.000  H
  H285     1.0000 0.76473  0.72717  0.77637  Biso   1.000  H
  H286     1.0000 0.96243  0.23527  0.77637  Biso   1.000  H
  H287     1.0000 0.09807  0.39383  0.44303  Biso   1.000  H
  H288     1.0000 0.29577  0.90193  0.44303  Biso   1.000  H
  C433     1.0000 0.43140  0.90450  0.52183  Biso   1.000  C
  C434     1.0000 0.09550  0.52690  0.52183  Biso   1.000  C
  C435     1.0000 0.47310  0.56860  0.52183  Biso   1.000  C
  C436     1.0000 0.90450  0.43140  0.97817  Biso   1.000  C
  C437     1.0000 0.09807  0.23783  0.85516  Biso   1.000  C
  C438     1.0000 0.76217  0.86023  0.85516  Biso   1.000  C
  C439     1.0000 0.13977  0.90193  0.85516  Biso   1.000  C
  C440     1.0000 0.57117  0.76473  0.31150  Biso   1.000  C
  C441     1.0000 0.76473  0.57117  0.18850  Biso   1.000  C
  C442     1.0000 0.23783  0.09807  0.64484  Biso   1.000  C
  C443     1.0000 0.52690  0.09550  0.97817  Biso   1.000  C
  C444     1.0000 0.56860  0.47310  0.97817  Biso   1.000  C
  C445     1.0000 0.42883  0.19357  0.18850  Biso   1.000  C
  C446     1.0000 0.80643  0.23527  0.18850  Biso   1.000  C
  C447     1.0000 0.86023  0.76217  0.64484  Biso   1.000  C
  C448     1.0000 0.90193  0.13977  0.64484  Biso   1.000  C
  C449     1.0000 0.19357  0.42883  0.31150  Biso   1.000  C
  C450     1.0000 0.23527  0.80643  0.31150  Biso   1.000  C
  C451     1.0000 0.56860  0.09550  0.47817  Biso   1.000  C
  C452     1.0000 0.90450  0.47310  0.47817  Biso   1.000  C
  C453     1.0000 0.52690  0.43140  0.47817  Biso   1.000  C
  C454     1.0000 0.09550  0.56860  0.02183  Biso   1.000  C
  C455     1.0000 0.23527  0.42883  0.81150  Biso   1.000  C
  C456     1.0000 0.57117  0.80643  0.81150  Biso   1.000  C
  C457     1.0000 0.19357  0.76473  0.81150  Biso   1.000  C
  C458     1.0000 0.76217  0.90193  0.35516  Biso   1.000  C
  C459     1.0000 0.90193  0.76217  0.14484  Biso   1.000  C
  C460     1.0000 0.42883  0.23527  0.68850  Biso   1.000  C
  C461     1.0000 0.47310  0.90450  0.02183  Biso   1.000  C
  C462     1.0000 0.43140  0.52690  0.02183  Biso   1.000  C
  C463     1.0000 0.23783  0.13977  0.14484  Biso   1.000  C
  C464     1.0000 0.86023  0.09807  0.14484  Biso   1.000  C
  C465     1.0000 0.80643  0.57117  0.68850  Biso   1.000  C
  C466     1.0000 0.76473  0.19357  0.68850  Biso   1.000  C
  C467     1.0000 0.13977  0.23783  0.35516  Biso   1.000  C
  C468     1.0000 0.09807  0.86023  0.35516  Biso   1.000  C
  C469     1.0000 0.40930  0.88600  0.53726  Biso   1.000  C
  C470     1.0000 0.11400  0.52330  0.53726  Biso   1.000  C
  C471     1.0000 0.47670  0.59070  0.53726  Biso   1.000  C
  C472     1.0000 0.88600  0.40930  0.96274  Biso   1.000  C
  C473     1.0000 0.07597  0.21933  0.87059  Biso   1.000  C
  C474     1.0000 0.78067  0.85663  0.87059  Biso   1.000  C
  C475     1.0000 0.14337  0.92403  0.87059  Biso   1.000  C
  C476     1.0000 0.55267  0.74263  0.29607  Biso   1.000  C
  C477     1.0000 0.74263  0.55267  0.20393  Biso   1.000  C
  C478     1.0000 0.21933  0.07597  0.62941  Biso   1.000  C
  C479     1.0000 0.52330  0.11400  0.96274  Biso   1.000  C
  C480     1.0000 0.59070  0.47670  0.96274  Biso   1.000  C
  C481     1.0000 0.44733  0.18997  0.20393  Biso   1.000  C
  C482     1.0000 0.81003  0.25737  0.20393  Biso   1.000  C
  C483     1.0000 0.85663  0.78067  0.62941  Biso   1.000  C
  C484     1.0000 0.92403  0.14337  0.62941  Biso   1.000  C
  C485     1.0000 0.18997  0.44733  0.29607  Biso   1.000  C
  C486     1.0000 0.25737  0.81003  0.29607  Biso   1.000  C
  C487     1.0000 0.59070  0.11400  0.46274  Biso   1.000  C
  C488     1.0000 0.88600  0.47670  0.46274  Biso   1.000  C
  C489     1.0000 0.52330  0.40930  0.46274  Biso   1.000  C
  C490     1.0000 0.11400  0.59070  0.03726  Biso   1.000  C
  C491     1.0000 0.25737  0.44733  0.79607  Biso   1.000  C
  C492     1.0000 0.55267  0.81003  0.79607  Biso   1.000  C
  C493     1.0000 0.18997  0.74263  0.79607  Biso   1.000  C
  C494     1.0000 0.78067  0.92403  0.37059  Biso   1.000  C
  C495     1.0000 0.92403  0.78067  0.12941  Biso   1.000  C
  C496     1.0000 0.44733  0.25737  0.70393  Biso   1.000  C
  C497     1.0000 0.47670  0.88600  0.03726  Biso   1.000  C
  C498     1.0000 0.40930  0.52330  0.03726  Biso   1.000  C
  C499     1.0000 0.21933  0.14337  0.12941  Biso   1.000  C
  C500     1.0000 0.85663  0.07597  0.12941  Biso   1.000  C
  C501     1.0000 0.81003  0.55267  0.70393  Biso   1.000  C
  C502     1.0000 0.74263  0.18997  0.70393  Biso   1.000  C
  C503     1.0000 0.14337  0.21933  0.37059  Biso   1.000  C
  C504     1.0000 0.07597  0.85663  0.37059  Biso   1.000  C
  C505     1.0000 0.47120  0.95160  0.54777  Biso   1.000  C
  C506     1.0000 0.04840  0.51960  0.54777  Biso   1.000  C
  C507     1.0000 0.48040  0.52880  0.54777  Biso   1.000  C
  C508     1.0000 0.95160  0.47120  0.95223  Biso   1.000  C
  C509     1.0000 0.13787  0.28493  0.88110  Biso   1.000  C
  C510     1.0000 0.71507  0.85293  0.88110  Biso   1.000  C
  C511     1.0000 0.14707  0.86213  0.88110  Biso   1.000  C
  C512     1.0000 0.61827  0.80453  0.28556  Biso   1.000  C
  C513     1.0000 0.80453  0.61827  0.21444  Biso   1.000  C
  C514     1.0000 0.28493  0.13787  0.61890  Biso   1.000  C
  C515     1.0000 0.51960  0.04840  0.95223  Biso   1.000  C
  C516     1.0000 0.52880  0.48040  0.95223  Biso   1.000  C
  C517     1.0000 0.38173  0.18627  0.21444  Biso   1.000  C
  C518     1.0000 0.81373  0.19547  0.21444  Biso   1.000  C
  C519     1.0000 0.85293  0.71507  0.61890  Biso   1.000  C
  C520     1.0000 0.86213  0.14707  0.61890  Biso   1.000  C
  C521     1.0000 0.18627  0.38173  0.28556  Biso   1.000  C
  C522     1.0000 0.19547  0.81373  0.28556  Biso   1.000  C
  C523     1.0000 0.52880  0.04840  0.45223  Biso   1.000  C
  C524     1.0000 0.95160  0.48040  0.45223  Biso   1.000  C
  C525     1.0000 0.51960  0.47120  0.45223  Biso   1.000  C
  C526     1.0000 0.04840  0.52880  0.04777  Biso   1.000  C
  C527     1.0000 0.19547  0.38173  0.78556  Biso   1.000  C
  C528     1.0000 0.61827  0.81373  0.78556  Biso   1.000  C
  C529     1.0000 0.18627  0.80453  0.78556  Biso   1.000  C
  C530     1.0000 0.71507  0.86213  0.38110  Biso   1.000  C
  C531     1.0000 0.86213  0.71507  0.11890  Biso   1.000  C
  C532     1.0000 0.38173  0.19547  0.71444  Biso   1.000  C
  C533     1.0000 0.48040  0.95160  0.04777  Biso   1.000  C
  C534     1.0000 0.47120  0.51960  0.04777  Biso   1.000  C
  C535     1.0000 0.28493  0.14707  0.11890  Biso   1.000  C
  C536     1.0000 0.85293  0.13787  0.11890  Biso   1.000  C
  C537     1.0000 0.81373  0.61827  0.71444  Biso   1.000  C
  C538     1.0000 0.80453  0.18627  0.71444  Biso   1.000  C
  C539     1.0000 0.14707  0.28493  0.38110  Biso   1.000  C
  C540     1.0000 0.13787  0.85293  0.38110  Biso   1.000  C
  H289     1.0000 0.53060  0.01030  0.54530  Biso   1.000  H
  H290     1.0000 0.98970  0.52030  0.54530  Biso   1.000  H
  H291     1.0000 0.47970  0.46940  0.54530  Biso   1.000  H
  H292     1.0000 0.01030  0.53060  0.95470  Biso   1.000  H
  H293     1.0000 0.19727  0.34363  0.87863  Biso   1.000  H
  H294     1.0000 0.65637  0.85363  0.87863  Biso   1.000  H
  H295     1.0000 0.14637  0.80273  0.87863  Biso   1.000  H
  H296     1.0000 0.67697  0.86393  0.28803  Biso   1.000  H
  H297     1.0000 0.86393  0.67697  0.21197  Biso   1.000  H
  H298     1.0000 0.34363  0.19727  0.62137  Biso   1.000  H
  H299     1.0000 0.52030  0.98970  0.95470  Biso   1.000  H
  H300     1.0000 0.46940  0.47970  0.95470  Biso   1.000  H
  H301     1.0000 0.32303  0.18697  0.21197  Biso   1.000  H
  H302     1.0000 0.81303  0.13607  0.21197  Biso   1.000  H
  H303     1.0000 0.85363  0.65637  0.62137  Biso   1.000  H
  H304     1.0000 0.80273  0.14637  0.62137  Biso   1.000  H
  H305     1.0000 0.18697  0.32303  0.28803  Biso   1.000  H
  H306     1.0000 0.13607  0.81303  0.28803  Biso   1.000  H
  H307     1.0000 0.46940  0.98970  0.45470  Biso   1.000  H
  H308     1.0000 0.01030  0.47970  0.45470  Biso   1.000  H
  H309     1.0000 0.52030  0.53060  0.45470  Biso   1.000  H
  H310     1.0000 0.98970  0.46940  0.04530  Biso   1.000  H
  H311     1.0000 0.13607  0.32303  0.78803  Biso   1.000  H
  H312     1.0000 0.67697  0.81303  0.78803  Biso   1.000  H
  H313     1.0000 0.18697  0.86393  0.78803  Biso   1.000  H
  H314     1.0000 0.65637  0.80273  0.37863  Biso   1.000  H
  H315     1.0000 0.80273  0.65637  0.12137  Biso   1.000  H
  H316     1.0000 0.32303  0.13607  0.71197  Biso   1.000  H
  H317     1.0000 0.47970  0.01030  0.04530  Biso   1.000  H
  H318     1.0000 0.53060  0.52030  0.04530  Biso   1.000  H
  H319     1.0000 0.34363  0.14637  0.12137  Biso   1.000  H
  H320     1.0000 0.85363  0.19727  0.12137  Biso   1.000  H
  H321     1.0000 0.81303  0.67697  0.71197  Biso   1.000  H
  H322     1.0000 0.86393  0.18697  0.71197  Biso   1.000  H
  H323     1.0000 0.14637  0.34363  0.37863  Biso   1.000  H
  H324     1.0000 0.19727  0.85363  0.37863  Biso   1.000  H
  C541     1.0000 0.44460  0.92960  0.56186  Biso   1.000  C
  C542     1.0000 0.07040  0.51500  0.56186  Biso   1.000  C
  C543     1.0000 0.48500  0.55540  0.56186  Biso   1.000  C
  C544     1.0000 0.92960  0.44460  0.93814  Biso   1.000  C
  C545     1.0000 0.11127  0.26293  0.89519  Biso   1.000  C
  C546     1.0000 0.73707  0.84833  0.89519  Biso   1.000  C
  C547     1.0000 0.15167  0.88873  0.89519  Biso   1.000  C
  C548     1.0000 0.59627  0.77793  0.27147  Biso   1.000  C
  C549     1.0000 0.77793  0.59627  0.22853  Biso   1.000  C
  C550     1.0000 0.26293  0.11127  0.60481  Biso   1.000  C
  C551     1.0000 0.51500  0.07040  0.93814  Biso   1.000  C
  C552     1.0000 0.55540  0.48500  0.93814  Biso   1.000  C
  C553     1.0000 0.40373  0.18167  0.22853  Biso   1.000  C
  C554     1.0000 0.81833  0.22207  0.22853  Biso   1.000  C
  C555     1.0000 0.84833  0.73707  0.60481  Biso   1.000  C
  C556     1.0000 0.88873  0.15167  0.60481  Biso   1.000  C
  C557     1.0000 0.18167  0.40373  0.27147  Biso   1.000  C
  C558     1.0000 0.22207  0.81833  0.27147  Biso   1.000  C
  C559     1.0000 0.55540  0.07040  0.43814  Biso   1.000  C
  C560     1.0000 0.92960  0.48500  0.43814  Biso   1.000  C
  C561     1.0000 0.51500  0.44460  0.43814  Biso   1.000  C
  C562     1.0000 0.07040  0.55540  0.06186  Biso   1.000  C
  C563     1.0000 0.22207  0.40373  0.77147  Biso   1.000  C
  C564     1.0000 0.59627  0.81833  0.77147  Biso   1.000  C
  C565     1.0000 0.18167  0.77793  0.77147  Biso   1.000  C
  C566     1.0000 0.73707  0.88873  0.39519  Biso   1.000  C
  C567     1.0000 0.88873  0.73707  0.10481  Biso   1.000  C
  C568     1.0000 0.40373  0.22207  0.72853  Biso   1.000  C
  C569     1.0000 0.48500  0.92960  0.06186  Biso   1.000  C
  C570     1.0000 0.44460  0.51500  0.06186  Biso   1.000  C
  C571     1.0000 0.26293  0.15167  0.10481  Biso   1.000  C
  C572     1.0000 0.84833  0.11127  0.10481  Biso   1.000  C
  C573     1.0000 0.81833  0.59627  0.72853  Biso   1.000  C
  C574     1.0000 0.77793  0.18167  0.72853  Biso   1.000  C
  C575     1.0000 0.15167  0.26293  0.39519  Biso   1.000  C
  C576     1.0000 0.11127  0.84833  0.39519  Biso   1.000  C
  H325     1.0000 0.48710  0.97480  0.56880  Biso   1.000  H
  H326     1.0000 0.02520  0.51230  0.56880  Biso   1.000  H
  H327     1.0000 0.48770  0.51290  0.56880  Biso   1.000  H
  H328     1.0000 0.97480  0.48710  0.93120  Biso   1.000  H
  H329     1.0000 0.15377  0.30813  0.90213  Biso   1.000  H
  H330     1.0000 0.69187  0.84563  0.90213  Biso   1.000  H
  H331     1.0000 0.15437  0.84623  0.90213  Biso   1.000  H
  H332     1.0000 0.64147  0.82043  0.26453  Biso   1.000  H
  H333     1.0000 0.82043  0.64147  0.23547  Biso   1.000  H
  H334     1.0000 0.30813  0.15377  0.59787  Biso   1.000  H
  H335     1.0000 0.51230  0.02520  0.93120  Biso   1.000  H
  H336     1.0000 0.51290  0.48770  0.93120  Biso   1.000  H
  H337     1.0000 0.35853  0.17897  0.23547  Biso   1.000  H
  H338     1.0000 0.82103  0.17957  0.23547  Biso   1.000  H
  H339     1.0000 0.84563  0.69187  0.59787  Biso   1.000  H
  H340     1.0000 0.84623  0.15437  0.59787  Biso   1.000  H
  H341     1.0000 0.17897  0.35853  0.26453  Biso   1.000  H
  H342     1.0000 0.17957  0.82103  0.26453  Biso   1.000  H
  H343     1.0000 0.51290  0.02520  0.43120  Biso   1.000  H
  H344     1.0000 0.97480  0.48770  0.43120  Biso   1.000  H
  H345     1.0000 0.51230  0.48710  0.43120  Biso   1.000  H
  H346     1.0000 0.02520  0.51290  0.06880  Biso   1.000  H
  H347     1.0000 0.17957  0.35853  0.76453  Biso   1.000  H
  H348     1.0000 0.64147  0.82103  0.76453  Biso   1.000  H
  H349     1.0000 0.17897  0.82043  0.76453  Biso   1.000  H
  H350     1.0000 0.69187  0.84623  0.40213  Biso   1.000  H
  H351     1.0000 0.84623  0.69187  0.09787  Biso   1.000  H
  H352     1.0000 0.35853  0.17957  0.73547  Biso   1.000  H
  H353     1.0000 0.48770  0.97480  0.06880  Biso   1.000  H
  H354     1.0000 0.48710  0.51230  0.06880  Biso   1.000  H
  H355     1.0000 0.30813  0.15437  0.09787  Biso   1.000  H
  H356     1.0000 0.84563  0.15377  0.09787  Biso   1.000  H
  H357     1.0000 0.82103  0.64147  0.73547  Biso   1.000  H
  H358     1.0000 0.82043  0.17897  0.73547  Biso   1.000  H
  H359     1.0000 0.15437  0.30813  0.40213  Biso   1.000  H
  H360     1.0000 0.15377  0.84563  0.40213  Biso   1.000  H
  C577     1.0000 0.29910  0.78320  0.55601  Biso   1.000  C
  C578     1.0000 0.21680  0.51590  0.55601  Biso   1.000  C
  C579     1.0000 0.48410  0.70090  0.55601  Biso   1.000  C
  C580     1.0000 0.78320  0.29910  0.94399  Biso   1.000  C
  C581     1.0000 0.96577  0.11653  0.88934  Biso   1.000  C
  C582     1.0000 0.88347  0.84923  0.88934  Biso   1.000  C
  C583     1.0000 0.15077  0.03423  0.88934  Biso   1.000  C
  C584     1.0000 0.44987  0.63243  0.27732  Biso   1.000  C
  C585     1.0000 0.63243  0.44987  0.22268  Biso   1.000  C
  C586     1.0000 0.11653  0.96577  0.61066  Biso   1.000  C
  C587     1.0000 0.51590  0.21680  0.94399  Biso   1.000  C
  C588     1.0000 0.70090  0.48410  0.94399  Biso   1.000  C
  C589     1.0000 0.55013  0.18257  0.22268  Biso   1.000  C
  C590     1.0000 0.81743  0.36757  0.22268  Biso   1.000  C
  C591     1.0000 0.84923  0.88347  0.61066  Biso   1.000  C
  C592     1.0000 0.03423  0.15077  0.61066  Biso   1.000  C
  C593     1.0000 0.18257  0.55013  0.27732  Biso   1.000  C
  C594     1.0000 0.36757  0.81743  0.27732  Biso   1.000  C
  C595     1.0000 0.70090  0.21680  0.44399  Biso   1.000  C
  C596     1.0000 0.78320  0.48410  0.44399  Biso   1.000  C
  C597     1.0000 0.51590  0.29910  0.44399  Biso   1.000  C
  C598     1.0000 0.21680  0.70090  0.05601  Biso   1.000  C
  C599     1.0000 0.36757  0.55013  0.77732  Biso   1.000  C
  C600     1.0000 0.44987  0.81743  0.77732  Biso   1.000  C
  C601     1.0000 0.18257  0.63243  0.77732  Biso   1.000  C
  C602     1.0000 0.88347  0.03423  0.38934  Biso   1.000  C
  C603     1.0000 0.03423  0.88347  0.11066  Biso   1.000  C
  C604     1.0000 0.55013  0.36757  0.72268  Biso   1.000  C
  C605     1.0000 0.48410  0.78320  0.05601  Biso   1.000  C
  C606     1.0000 0.29910  0.51590  0.05601  Biso   1.000  C
  C607     1.0000 0.11653  0.15077  0.11066  Biso   1.000  C
  C608     1.0000 0.84923  0.96577  0.11066  Biso   1.000  C
  C609     1.0000 0.81743  0.44987  0.72268  Biso   1.000  C
  C610     1.0000 0.63243  0.18257  0.72268  Biso   1.000  C
  C611     1.0000 0.15077  0.11653  0.38934  Biso   1.000  C
  C612     1.0000 0.96577  0.84923  0.38934  Biso   1.000  C
  H361     1.0000 0.23840  0.72670  0.55870  Biso   1.000  H
  H362     1.0000 0.27330  0.51170  0.55870  Biso   1.000  H
  H363     1.0000 0.48830  0.76160  0.55870  Biso   1.000  H
  H364     1.0000 0.72670  0.23840  0.94130  Biso   1.000  H
  H365     1.0000 0.90507  0.06003  0.89203  Biso   1.000  H
  H366     1.0000 0.93997  0.84503  0.89203  Biso   1.000  H
  H367     1.0000 0.15497  0.09493  0.89203  Biso   1.000  H
  H368     1.0000 0.39337  0.57173  0.27463  Biso   1.000  H
  H369     1.0000 0.57173  0.39337  0.22537  Biso   1.000  H
  H370     1.0000 0.06003  0.90507  0.60797  Biso   1.000  H
  H371     1.0000 0.51170  0.27330  0.94130  Biso   1.000  H
  H372     1.0000 0.76160  0.48830  0.94130  Biso   1.000  H
  H373     1.0000 0.60663  0.17837  0.22537  Biso   1.000  H
  H374     1.0000 0.82163  0.42827  0.22537  Biso   1.000  H
  H375     1.0000 0.84503  0.93997  0.60797  Biso   1.000  H
  H376     1.0000 0.09493  0.15497  0.60797  Biso   1.000  H
  H377     1.0000 0.17837  0.60663  0.27463  Biso   1.000  H
  H378     1.0000 0.42827  0.82163  0.27463  Biso   1.000  H
  H379     1.0000 0.76160  0.27330  0.44130  Biso   1.000  H
  H380     1.0000 0.72670  0.48830  0.44130  Biso   1.000  H
  H381     1.0000 0.51170  0.23840  0.44130  Biso   1.000  H
  H382     1.0000 0.27330  0.76160  0.05870  Biso   1.000  H
  H383     1.0000 0.42827  0.60663  0.77463  Biso   1.000  H
  H384     1.0000 0.39337  0.82163  0.77463  Biso   1.000  H
  H385     1.0000 0.17837  0.57173  0.77463  Biso   1.000  H
  H386     1.0000 0.93997  0.09493  0.39203  Biso   1.000  H
  H387     1.0000 0.09493  0.93997  0.10797  Biso   1.000  H
  H388     1.0000 0.60663  0.42827  0.72537  Biso   1.000  H
  H389     1.0000 0.48830  0.72670  0.05870  Biso   1.000  H
  H390     1.0000 0.23840  0.51170  0.05870  Biso   1.000  H
  H391     1.0000 0.06003  0.15497  0.10797  Biso   1.000  H
  H392     1.0000 0.84503  0.90507  0.10797  Biso   1.000  H
  H393     1.0000 0.82163  0.39337  0.72537  Biso   1.000  H
  H394     1.0000 0.57173  0.17837  0.72537  Biso   1.000  H
  H395     1.0000 0.15497  0.06003  0.39203  Biso   1.000  H
  H396     1.0000 0.90507  0.84503  0.39203  Biso   1.000  H
  C613     1.0000 0.32210  0.79870  0.54159  Biso   1.000  C
  C614     1.0000 0.20130  0.52340  0.54159  Biso   1.000  C
  C615     1.0000 0.47660  0.67790  0.54159  Biso   1.000  C
  C616     1.0000 0.79870  0.32210  0.95841  Biso   1.000  C
  C617     1.0000 0.98877  0.13203  0.87492  Biso   1.000  C
  C618     1.0000 0.86797  0.85673  0.87492  Biso   1.000  C
  C619     1.0000 0.14327  0.01123  0.87492  Biso   1.000  C
  C620     1.0000 0.46537  0.65543  0.29174  Biso   1.000  C
  C621     1.0000 0.65543  0.46537  0.20826  Biso   1.000  C
  C622     1.0000 0.13203  0.98877  0.62508  Biso   1.000  C
  C623     1.0000 0.52340  0.20130  0.95841  Biso   1.000  C
  C624     1.0000 0.67790  0.47660  0.95841  Biso   1.000  C
  C625     1.0000 0.53463  0.19007  0.20826  Biso   1.000  C
  C626     1.0000 0.80993  0.34457  0.20826  Biso   1.000  C
  C627     1.0000 0.85673  0.86797  0.62508  Biso   1.000  C
  C628     1.0000 0.01123  0.14327  0.62508  Biso   1.000  C
  C629     1.0000 0.19007  0.53463  0.29174  Biso   1.000  C
  C630     1.0000 0.34457  0.80993  0.29174  Biso   1.000  C
  C631     1.0000 0.67790  0.20130  0.45841  Biso   1.000  C
  C632     1.0000 0.79870  0.47660  0.45841  Biso   1.000  C
  C633     1.0000 0.52340  0.32210  0.45841  Biso   1.000  C
  C634     1.0000 0.20130  0.67790  0.04159  Biso   1.000  C
  C635     1.0000 0.34457  0.53463  0.79174  Biso   1.000  C
  C636     1.0000 0.46537  0.80993  0.79174  Biso   1.000  C
  C637     1.0000 0.19007  0.65543  0.79174  Biso   1.000  C
  C638     1.0000 0.86797  0.01123  0.37492  Biso   1.000  C
  C639     1.0000 0.01123  0.86797  0.12508  Biso   1.000  C
  C640     1.0000 0.53463  0.34457  0.70826  Biso   1.000  C
  C641     1.0000 0.47660  0.79870  0.04159  Biso   1.000  C
  C642     1.0000 0.32210  0.52340  0.04159  Biso   1.000  C
  C643     1.0000 0.13203  0.14327  0.12508  Biso   1.000  C
  C644     1.0000 0.85673  0.98877  0.12508  Biso   1.000  C
  C645     1.0000 0.80993  0.46537  0.70826  Biso   1.000  C
  C646     1.0000 0.65543  0.19007  0.70826  Biso   1.000  C
  C647     1.0000 0.14327  0.13203  0.37492  Biso   1.000  C
  C648     1.0000 0.98877  0.85673  0.37492  Biso   1.000  C
  H397     1.0000 0.27970  0.75130  0.53490  Biso   1.000  H
  H398     1.0000 0.24870  0.52840  0.53490  Biso   1.000  H
  H399     1.0000 0.47160  0.72030  0.53490  Biso   1.000  H
  H400     1.0000 0.75130  0.27970  0.96510  Biso   1.000  H
  H401     1.0000 0.94637  0.08463  0.86823  Biso   1.000  H
  H402     1.0000 0.91537  0.86173  0.86823  Biso   1.000  H
  H403     1.0000 0.13827  0.05363  0.86823  Biso   1.000  H
  H404     1.0000 0.41797  0.61303  0.29843  Biso   1.000  H
  H405     1.0000 0.61303  0.41797  0.20157  Biso   1.000  H
  H406     1.0000 0.08463  0.94637  0.63177  Biso   1.000  H
  H407     1.0000 0.52840  0.24870  0.96510  Biso   1.000  H
  H408     1.0000 0.72030  0.47160  0.96510  Biso   1.000  H
  H409     1.0000 0.58203  0.19507  0.20157  Biso   1.000  H
  H410     1.0000 0.80493  0.38697  0.20157  Biso   1.000  H
  H411     1.0000 0.86173  0.91537  0.63177  Biso   1.000  H
  H412     1.0000 0.05363  0.13827  0.63177  Biso   1.000  H
  H413     1.0000 0.19507  0.58203  0.29843  Biso   1.000  H
  H414     1.0000 0.38697  0.80493  0.29843  Biso   1.000  H
  H415     1.0000 0.72030  0.24870  0.46510  Biso   1.000  H
  H416     1.0000 0.75130  0.47160  0.46510  Biso   1.000  H
  H417     1.0000 0.52840  0.27970  0.46510  Biso   1.000  H
  H418     1.0000 0.24870  0.72030  0.03490  Biso   1.000  H
  H419     1.0000 0.38697  0.58203  0.79843  Biso   1.000  H
  H420     1.0000 0.41797  0.80493  0.79843  Biso   1.000  H
  H421     1.0000 0.19507  0.61303  0.79843  Biso   1.000  H
  H422     1.0000 0.91537  0.05363  0.36823  Biso   1.000  H
  H423     1.0000 0.05363  0.91537  0.13177  Biso   1.000  H
  H424     1.0000 0.58203  0.38697  0.70157  Biso   1.000  H
  H425     1.0000 0.47160  0.75130  0.03490  Biso   1.000  H
  H426     1.0000 0.27970  0.52840  0.03490  Biso   1.000  H
  H427     1.0000 0.08463  0.13827  0.13177  Biso   1.000  H
  H428     1.0000 0.86173  0.94637  0.13177  Biso   1.000  H
  H429     1.0000 0.80493  0.41797  0.70157  Biso   1.000  H
  H430     1.0000 0.61303  0.19507  0.70157  Biso   1.000  H
  H431     1.0000 0.13827  0.08463  0.36823  Biso   1.000  H
  H432     1.0000 0.94637  0.86173  0.36823  Biso   1.000  H
  N1       1.0000 0.47730  0.73010  0.63589  Biso   1.000  N
  N2       1.0000 0.26990  0.74720  0.63589  Biso   1.000  N
  N3       1.0000 0.25280  0.52270  0.63589  Biso   1.000  N
  N4       1.0000 0.73010  0.47730  0.86411  Biso   1.000  N
  N5       1.0000 0.14397  0.06343  0.96922  Biso   1.000  N
  N6       1.0000 0.93657  0.08053  0.96922  Biso   1.000  N
  N7       1.0000 0.91947  0.85603  0.96922  Biso   1.000  N
  N8       1.0000 0.39677  0.81063  0.19744  Biso   1.000  N
  N9       1.0000 0.81063  0.39677  0.30256  Biso   1.000  N
  N10      1.0000 0.06343  0.14397  0.53078  Biso   1.000  N
  N11      1.0000 0.74720  0.26990  0.86411  Biso   1.000  N
  N12      1.0000 0.52270  0.25280  0.86411  Biso   1.000  N
  N13      1.0000 0.60323  0.41387  0.30256  Biso   1.000  N
  N14      1.0000 0.58613  0.18937  0.30256  Biso   1.000  N
  N15      1.0000 0.08053  0.93657  0.53078  Biso   1.000  N
  N16      1.0000 0.85603  0.91947  0.53078  Biso   1.000  N
  N17      1.0000 0.41387  0.60323  0.19744  Biso   1.000  N
  N18      1.0000 0.18937  0.58613  0.19744  Biso   1.000  N
  N19      1.0000 0.52270  0.26990  0.36411  Biso   1.000  N
  N20      1.0000 0.73010  0.25280  0.36411  Biso   1.000  N
  N21      1.0000 0.74720  0.47730  0.36411  Biso   1.000  N
  N22      1.0000 0.26990  0.52270  0.13589  Biso   1.000  N
  N23      1.0000 0.18937  0.60323  0.69744  Biso   1.000  N
  N24      1.0000 0.39677  0.58613  0.69744  Biso   1.000  N
  N25      1.0000 0.41387  0.81063  0.69744  Biso   1.000  N
  N26      1.0000 0.93657  0.85603  0.46922  Biso   1.000  N
  N27      1.0000 0.85603  0.93657  0.03078  Biso   1.000  N
  N28      1.0000 0.60323  0.18937  0.80256  Biso   1.000  N
  N29      1.0000 0.25280  0.73010  0.13589  Biso   1.000  N
  N30      1.0000 0.47730  0.74720  0.13589  Biso   1.000  N
  N31      1.0000 0.06343  0.91947  0.03078  Biso   1.000  N
  N32      1.0000 0.08053  0.14397  0.03078  Biso   1.000  N
  N33      1.0000 0.58613  0.39677  0.80256  Biso   1.000  N
  N34      1.0000 0.81063  0.41387  0.80256  Biso   1.000  N
  N35      1.0000 0.91947  0.06343  0.46922  Biso   1.000  N
  N36      1.0000 0.14397  0.08053  0.46922  Biso   1.000  N
  N37      1.0000 0.39470  0.92720  0.60137  Biso   1.000  N
  N38      1.0000 0.07280  0.46750  0.60137  Biso   1.000  N
  N39      1.0000 0.53250  0.60530  0.60137  Biso   1.000  N
  N40      1.0000 0.92720  0.39470  0.89863  Biso   1.000  N
  N41      1.0000 0.06137  0.26053  0.93470  Biso   1.000  N
  N42      1.0000 0.73947  0.80083  0.93470  Biso   1.000  N
  N43      1.0000 0.19917  0.93863  0.93470  Biso   1.000  N
  N44      1.0000 0.59387  0.72803  0.23196  Biso   1.000  N
  N45      1.0000 0.72803  0.59387  0.26804  Biso   1.000  N
  N46      1.0000 0.26053  0.06137  0.56530  Biso   1.000  N
  N47      1.0000 0.46750  0.07280  0.89863  Biso   1.000  N
  N48      1.0000 0.60530  0.53250  0.89863  Biso   1.000  N
  N49      1.0000 0.40613  0.13417  0.26804  Biso   1.000  N
  N50      1.0000 0.86583  0.27197  0.26804  Biso   1.000  N
  N51      1.0000 0.80083  0.73947  0.56530  Biso   1.000  N
  N52      1.0000 0.93863  0.19917  0.56530  Biso   1.000  N
  N53      1.0000 0.13417  0.40613  0.23196  Biso   1.000  N
  N54      1.0000 0.27197  0.86583  0.23196  Biso   1.000  N
  N55      1.0000 0.60530  0.07280  0.39863  Biso   1.000  N
  N56      1.0000 0.92720  0.53250  0.39863  Biso   1.000  N
  N57      1.0000 0.46750  0.39470  0.39863  Biso   1.000  N
  N58      1.0000 0.07280  0.60530  0.10137  Biso   1.000  N
  N59      1.0000 0.27197  0.40613  0.73196  Biso   1.000  N
  N60      1.0000 0.59387  0.86583  0.73196  Biso   1.000  N
  N61      1.0000 0.13417  0.72803  0.73196  Biso   1.000  N
  N62      1.0000 0.73947  0.93863  0.43470  Biso   1.000  N
  N63      1.0000 0.93863  0.73947  0.06530  Biso   1.000  N
  N64      1.0000 0.40613  0.27197  0.76804  Biso   1.000  N
  N65      1.0000 0.53250  0.92720  0.10137  Biso   1.000  N
  N66      1.0000 0.39470  0.46750  0.10137  Biso   1.000  N
  N67      1.0000 0.26053  0.19917  0.06530  Biso   1.000  N
  N68      1.0000 0.80083  0.06137  0.06530  Biso   1.000  N
  N69      1.0000 0.86583  0.59387  0.76804  Biso   1.000  N
  N70      1.0000 0.72803  0.13417  0.76804  Biso   1.000  N
  N71      1.0000 0.19917  0.26053  0.43470  Biso   1.000  N
  N72      1.0000 0.06137  0.80083  0.43470  Biso   1.000  N
  N73      1.0000 0.35950  0.84520  0.56624  Biso   1.000  N
  N74      1.0000 0.15480  0.51430  0.56624  Biso   1.000  N
  N75      1.0000 0.48570  0.64050  0.56624  Biso   1.000  N
  N76      1.0000 0.84520  0.35950  0.93376  Biso   1.000  N
  N77      1.0000 0.02617  0.17853  0.89957  Biso   1.000  N
  N78      1.0000 0.82147  0.84763  0.89957  Biso   1.000  N
  N79      1.0000 0.15237  0.97383  0.89957  Biso   1.000  N
  N80      1.0000 0.51187  0.69283  0.26709  Biso   1.000  N
  N81      1.0000 0.69283  0.51187  0.23291  Biso   1.000  N
  N82      1.0000 0.17853  0.02617  0.60043  Biso   1.000  N
  N83      1.0000 0.51430  0.15480  0.93376  Biso   1.000  N
  N84      1.0000 0.64050  0.48570  0.93376  Biso   1.000  N
  N85      1.0000 0.48813  0.18097  0.23291  Biso   1.000  N
  N86      1.0000 0.81903  0.30717  0.23291  Biso   1.000  N
  N87      1.0000 0.84763  0.82147  0.60043  Biso   1.000  N
  N88      1.0000 0.97383  0.15237  0.60043  Biso   1.000  N
  N89      1.0000 0.18097  0.48813  0.26709  Biso   1.000  N
  N90      1.0000 0.30717  0.81903  0.26709  Biso   1.000  N
  N91      1.0000 0.64050  0.15480  0.43376  Biso   1.000  N
  N92      1.0000 0.84520  0.48570  0.43376  Biso   1.000  N
  N93      1.0000 0.51430  0.35950  0.43376  Biso   1.000  N
  N94      1.0000 0.15480  0.64050  0.06624  Biso   1.000  N
  N95      1.0000 0.30717  0.48813  0.76709  Biso   1.000  N
  N96      1.0000 0.51187  0.81903  0.76709  Biso   1.000  N
  N97      1.0000 0.18097  0.69283  0.76709  Biso   1.000  N
  N98      1.0000 0.82147  0.97383  0.39957  Biso   1.000  N
  N99      1.0000 0.97383  0.82147  0.10043  Biso   1.000  N
  N100     1.0000 0.48813  0.30717  0.73291  Biso   1.000  N
  N101     1.0000 0.48570  0.84520  0.06624  Biso   1.000  N
  N102     1.0000 0.35950  0.51430  0.06624  Biso   1.000  N
  N103     1.0000 0.17853  0.15237  0.10043  Biso   1.000  N
  N104     1.0000 0.84763  0.02617  0.10043  Biso   1.000  N
  N105     1.0000 0.81903  0.51187  0.73291  Biso   1.000  N
  N106     1.0000 0.69283  0.18097  0.73291  Biso   1.000  N
  N107     1.0000 0.15237  0.17853  0.39957  Biso   1.000  N
  N108     1.0000 0.02617  0.84763  0.39957  Biso   1.000  N
  O1       1.0000 0.79600  0.33330  0.58330  Biso   1.000  O
  O2       1.0000 0.66670  0.46270  0.58330  Biso   1.000  O
  O3       1.0000 0.53730  0.20400  0.58330  Biso   1.000  O
  O4       1.0000 0.33330  0.79600  0.91670  Biso   1.000  O
  O5       1.0000 0.46267  0.66663  0.91663  Biso   1.000  O
  O6       1.0000 0.20397  0.53733  0.91663  Biso   1.000  O
  O7       1.0000 0.99997  0.12933  0.25003  Biso   1.000  O
  O8       1.0000 0.12933  0.99997  0.24997  Biso   1.000  O
  O9       1.0000 0.87063  0.87067  0.24997  Biso   1.000  O
  O10      1.0000 0.20400  0.66670  0.41670  Biso   1.000  O
  O11      1.0000 0.33330  0.53730  0.41670  Biso   1.000  O
  O12      1.0000 0.46270  0.79600  0.41670  Biso   1.000  O
  O13      1.0000 0.66670  0.20400  0.08330  Biso   1.000  O
  O14      1.0000 0.87067  0.00003  0.75003  Biso   1.000  O
  O15      1.0000 0.99997  0.87063  0.75003  Biso   1.000  O
  O16      1.0000 0.12937  0.12933  0.75003  Biso   1.000  O
  O17      1.0000 0.53733  0.33337  0.08337  Biso   1.000  O
  O18      1.0000 0.79600  0.46270  0.08330  Biso   1.000  O
  O19      1.0000 0.76810  0.96410  0.66701  Biso   1.000  O
  O20      1.0000 0.03590  0.80400  0.66701  Biso   1.000  O
  O21      1.0000 0.19600  0.23190  0.66701  Biso   1.000  O
  O22      1.0000 0.96410  0.76810  0.83299  Biso   1.000  O
  O23      1.0000 0.43477  0.29743  0.00034  Biso   1.000  O
  O24      1.0000 0.70257  0.13733  0.00034  Biso   1.000  O
  O25      1.0000 0.86267  0.56523  0.00034  Biso   1.000  O
  O26      1.0000 0.63077  0.10143  0.16632  Biso   1.000  O
  O27      1.0000 0.10143  0.63077  0.33368  Biso   1.000  O
  O28      1.0000 0.29743  0.43477  0.49966  Biso   1.000  O
  O29      1.0000 0.80400  0.03590  0.83299  Biso   1.000  O
  O30      1.0000 0.23190  0.19600  0.83299  Biso   1.000  O
  O31      1.0000 0.36923  0.47067  0.33368  Biso   1.000  O
  O32      1.0000 0.52933  0.89857  0.33368  Biso   1.000  O
  O33      1.0000 0.13733  0.70257  0.49966  Biso   1.000  O
  O34      1.0000 0.56523  0.86267  0.49966  Biso   1.000  O
  O35      1.0000 0.47067  0.36923  0.16632  Biso   1.000  O
  O36      1.0000 0.89857  0.52933  0.16632  Biso   1.000  O
  O37      1.0000 0.23190  0.03590  0.33299  Biso   1.000  O
  O38      1.0000 0.96410  0.19600  0.33299  Biso   1.000  O
  O39      1.0000 0.80400  0.76810  0.33299  Biso   1.000  O
  O40      1.0000 0.03590  0.23190  0.16701  Biso   1.000  O
  O41      1.0000 0.89857  0.36923  0.66632  Biso   1.000  O
  O42      1.0000 0.63077  0.52933  0.66632  Biso   1.000  O
  O43      1.0000 0.47067  0.10143  0.66632  Biso   1.000  O
  O44      1.0000 0.70257  0.56523  0.50034  Biso   1.000  O
  O45      1.0000 0.56523  0.70257  0.99966  Biso   1.000  O
  O46      1.0000 0.36923  0.89857  0.83368  Biso   1.000  O
  O47      1.0000 0.19600  0.96410  0.16701  Biso   1.000  O
  O48      1.0000 0.76810  0.80400  0.16701  Biso   1.000  O
  O49      1.0000 0.29743  0.86267  0.99966  Biso   1.000  O
  O50      1.0000 0.13733  0.43477  0.99966  Biso   1.000  O
  O51      1.0000 0.52933  0.63077  0.83368  Biso   1.000  O
  O52      1.0000 0.10143  0.47067  0.83368  Biso   1.000  O
  O53      1.0000 0.86267  0.29743  0.50034  Biso   1.000  O
  O54      1.0000 0.43477  0.13733  0.50034  Biso   1.000  O
  O55      1.0000 0.05880  0.24460  0.67088  Biso   1.000  O
  O56      1.0000 0.75540  0.81420  0.67088  Biso   1.000  O
  O57      1.0000 0.18580  0.94120  0.67088  Biso   1.000  O
  O58      1.0000 0.24460  0.05880  0.82912  Biso   1.000  O
  O59      1.0000 0.72547  0.57793  0.00421  Biso   1.000  O
  O60      1.0000 0.42207  0.14753  0.00421  Biso   1.000  O
  O61      1.0000 0.85247  0.27453  0.00421  Biso   1.000  O
  O62      1.0000 0.91127  0.39213  0.16245  Biso   1.000  O
  O63      1.0000 0.39213  0.91127  0.33755  Biso   1.000  O
  O64      1.0000 0.57793  0.72547  0.49579  Biso   1.000  O
  O65      1.0000 0.81420  0.75540  0.82912  Biso   1.000  O
  O66      1.0000 0.94120  0.18580  0.82912  Biso   1.000  O
  O67      1.0000 0.08873  0.48087  0.33755  Biso   1.000  O
  O68      1.0000 0.51913  0.60787  0.33755  Biso   1.000  O
  O69      1.0000 0.14753  0.42207  0.49579  Biso   1.000  O
  O70      1.0000 0.27453  0.85247  0.49579  Biso   1.000  O
  O71      1.0000 0.48087  0.08873  0.16245  Biso   1.000  O
  O72      1.0000 0.60787  0.51913  0.16245  Biso   1.000  O
  O73      1.0000 0.94120  0.75540  0.32912  Biso   1.000  O
  O74      1.0000 0.24460  0.18580  0.32912  Biso   1.000  O
  O75      1.0000 0.81420  0.05880  0.32912  Biso   1.000  O
  O76      1.0000 0.75540  0.94120  0.17088  Biso   1.000  O
  O77      1.0000 0.60787  0.08873  0.66245  Biso   1.000  O
  O78      1.0000 0.91127  0.51913  0.66245  Biso   1.000  O
  O79      1.0000 0.48087  0.39213  0.66245  Biso   1.000  O
  O80      1.0000 0.42207  0.27453  0.50421  Biso   1.000  O
  O81      1.0000 0.27453  0.42207  0.99579  Biso   1.000  O
  O82      1.0000 0.08873  0.60787  0.83755  Biso   1.000  O
  O83      1.0000 0.18580  0.24460  0.17088  Biso   1.000  O
  O84      1.0000 0.05880  0.81420  0.17088  Biso   1.000  O
  O85      1.0000 0.57793  0.85247  0.99579  Biso   1.000  O
  O86      1.0000 0.14753  0.72547  0.99579  Biso   1.000  O
  O87      1.0000 0.51913  0.91127  0.83755  Biso   1.000  O
  O88      1.0000 0.39213  0.48087  0.83755  Biso   1.000  O
  O89      1.0000 0.85247  0.57793  0.50421  Biso   1.000  O
  O90      1.0000 0.72547  0.14753  0.50421  Biso   1.000  O
  O91      1.0000 0.85720  0.96630  0.69409  Biso   1.000  O
  O92      1.0000 0.03370  0.89090  0.69409  Biso   1.000  O
  O93      1.0000 0.10910  0.14280  0.69409  Biso   1.000  O
  O94      1.0000 0.96630  0.85720  0.80591  Biso   1.000  O
  O95      1.0000 0.52387  0.29963  0.02742  Biso   1.000  O
  O96      1.0000 0.70037  0.22423  0.02742  Biso   1.000  O
  O97      1.0000 0.77577  0.47613  0.02742  Biso   1.000  O
  O98      1.0000 0.63297  0.19053  0.13924  Biso   1.000  O
  O99      1.0000 0.19053  0.63297  0.36076  Biso   1.000  O
  O100     1.0000 0.29963  0.52387  0.47258  Biso   1.000  O
  O101     1.0000 0.89090  0.03370  0.80591  Biso   1.000  O
  O102     1.0000 0.14280  0.10910  0.80591  Biso   1.000  O
  O103     1.0000 0.36703  0.55757  0.36076  Biso   1.000  O
  O104     1.0000 0.44243  0.80947  0.36076  Biso   1.000  O
  O105     1.0000 0.22423  0.70037  0.47258  Biso   1.000  O
  O106     1.0000 0.47613  0.77577  0.47258  Biso   1.000  O
  O107     1.0000 0.55757  0.36703  0.13924  Biso   1.000  O
  O108     1.0000 0.80947  0.44243  0.13924  Biso   1.000  O
  O109     1.0000 0.14280  0.03370  0.30591  Biso   1.000  O
  O110     1.0000 0.96630  0.10910  0.30591  Biso   1.000  O
  O111     1.0000 0.89090  0.85720  0.30591  Biso   1.000  O
  O112     1.0000 0.03370  0.14280  0.19409  Biso   1.000  O
  O113     1.0000 0.80947  0.36703  0.63924  Biso   1.000  O
  O114     1.0000 0.63297  0.44243  0.63924  Biso   1.000  O
  O115     1.0000 0.55757  0.19053  0.63924  Biso   1.000  O
  O116     1.0000 0.70037  0.47613  0.52742  Biso   1.000  O
  O117     1.0000 0.47613  0.70037  0.97258  Biso   1.000  O
  O118     1.0000 0.36703  0.80947  0.86076  Biso   1.000  O
  O119     1.0000 0.10910  0.96630  0.19409  Biso   1.000  O
  O120     1.0000 0.85720  0.89090  0.19409  Biso   1.000  O
  O121     1.0000 0.29963  0.77577  0.97258  Biso   1.000  O
  O122     1.0000 0.22423  0.52387  0.97258  Biso   1.000  O
  O123     1.0000 0.44243  0.63297  0.86076  Biso   1.000  O
  O124     1.0000 0.19053  0.55757  0.86076  Biso   1.000  O
  O125     1.0000 0.77577  0.29963  0.52742  Biso   1.000  O
  O126     1.0000 0.52387  0.22423  0.52742  Biso   1.000  O
  O127     1.0000 0.99100  0.18110  0.69917  Biso   1.000  O
  O128     1.0000 0.81890  0.80990  0.69917  Biso   1.000  O
  O129     1.0000 0.19010  0.00900  0.69917  Biso   1.000  O
  O130     1.0000 0.18110  0.99100  0.80083  Biso   1.000  O
  O131     1.0000 0.65767  0.51443  0.03250  Biso   1.000  O
  O132     1.0000 0.48557  0.14323  0.03250  Biso   1.000  O
  O133     1.0000 0.85677  0.34233  0.03250  Biso   1.000  O
  O134     1.0000 0.84777  0.32433  0.13416  Biso   1.000  O
  O135     1.0000 0.32433  0.84777  0.36584  Biso   1.000  O
  O136     1.0000 0.51443  0.65767  0.46750  Biso   1.000  O
  O137     1.0000 0.80990  0.81890  0.80083  Biso   1.000  O
  O138     1.0000 0.00900  0.19010  0.80083  Biso   1.000  O
  O139     1.0000 0.15223  0.47657  0.36584  Biso   1.000  O
  O140     1.0000 0.52343  0.67567  0.36584  Biso   1.000  O
  O141     1.0000 0.14323  0.48557  0.46750  Biso   1.000  O
  O142     1.0000 0.34233  0.85677  0.46750  Biso   1.000  O
  O143     1.0000 0.47657  0.15223  0.13416  Biso   1.000  O
  O144     1.0000 0.67567  0.52343  0.13416  Biso   1.000  O
  O145     1.0000 0.00900  0.81890  0.30083  Biso   1.000  O
  O146     1.0000 0.18110  0.19010  0.30083  Biso   1.000  O
  O147     1.0000 0.80990  0.99100  0.30083  Biso   1.000  O
  O148     1.0000 0.81890  0.00900  0.19917  Biso   1.000  O
  O149     1.0000 0.67567  0.15223  0.63416  Biso   1.000  O
  O150     1.0000 0.84777  0.52343  0.63416  Biso   1.000  O
  O151     1.0000 0.47657  0.32433  0.63416  Biso   1.000  O
  O152     1.0000 0.48557  0.34233  0.53250  Biso   1.000  O
  O153     1.0000 0.34233  0.48557  0.96750  Biso   1.000  O
  O154     1.0000 0.15223  0.67567  0.86584  Biso   1.000  O
  O155     1.0000 0.19010  0.18110  0.19917  Biso   1.000  O
  O156     1.0000 0.99100  0.80990  0.19917  Biso   1.000  O
  O157     1.0000 0.51443  0.85677  0.96750  Biso   1.000  O
  O158     1.0000 0.14323  0.65767  0.96750  Biso   1.000  O
  O159     1.0000 0.52343  0.84777  0.86584  Biso   1.000  O
  O160     1.0000 0.32433  0.47657  0.86584  Biso   1.000  O
  O161     1.0000 0.85677  0.51443  0.53250  Biso   1.000  O
  O162     1.0000 0.65767  0.14323  0.53250  Biso   1.000  O
  O163     1.0000 0.81510  0.15360  0.68397  Biso   1.000  O
  O164     1.0000 0.84640  0.66150  0.68397  Biso   1.000  O
  O165     1.0000 0.33850  0.18490  0.68397  Biso   1.000  O
  O166     1.0000 0.15360  0.81510  0.81603  Biso   1.000  O
  O167     1.0000 0.48177  0.48693  0.01730  Biso   1.000  O
  O168     1.0000 0.51307  0.99483  0.01730  Biso   1.000  O
  O169     1.0000 0.00517  0.51823  0.01730  Biso   1.000  O
  O170     1.0000 0.82027  0.14843  0.14936  Biso   1.000  O
  O171     1.0000 0.14843  0.82027  0.35064  Biso   1.000  O
  O172     1.0000 0.48693  0.48177  0.48270  Biso   1.000  O
  O173     1.0000 0.66150  0.84640  0.81603  Biso   1.000  O
  O174     1.0000 0.18490  0.33850  0.81603  Biso   1.000  O
  O175     1.0000 0.17973  0.32817  0.35064  Biso   1.000  O
  O176     1.0000 0.67183  0.85157  0.35064  Biso   1.000  O
  O177     1.0000 0.99483  0.51307  0.48270  Biso   1.000  O
  O178     1.0000 0.51823  0.00517  0.48270  Biso   1.000  O
  O179     1.0000 0.32817  0.17973  0.14936  Biso   1.000  O
  O180     1.0000 0.85157  0.67183  0.14936  Biso   1.000  O
  O181     1.0000 0.18490  0.84640  0.31603  Biso   1.000  O
  O182     1.0000 0.15360  0.33850  0.31603  Biso   1.000  O
  O183     1.0000 0.66150  0.81510  0.31603  Biso   1.000  O
  O184     1.0000 0.84640  0.18490  0.18397  Biso   1.000  O
  O185     1.0000 0.85157  0.17973  0.64936  Biso   1.000  O
  O186     1.0000 0.82027  0.67183  0.64936  Biso   1.000  O
  O187     1.0000 0.32817  0.14843  0.64936  Biso   1.000  O
  O188     1.0000 0.51307  0.51823  0.51730  Biso   1.000  O
  O189     1.0000 0.51823  0.51307  0.98270  Biso   1.000  O
  O190     1.0000 0.17973  0.85157  0.85064  Biso   1.000  O
  O191     1.0000 0.33850  0.15360  0.18397  Biso   1.000  O
  O192     1.0000 0.81510  0.66150  0.18397  Biso   1.000  O
  O193     1.0000 0.48693  0.00517  0.98270  Biso   1.000  O
  O194     1.0000 0.99483  0.48177  0.98270  Biso   1.000  O
  O195     1.0000 0.67183  0.82027  0.85064  Biso   1.000  O
  O196     1.0000 0.14843  0.32817  0.85064  Biso   1.000  O
  O197     1.0000 0.00517  0.48693  0.51730  Biso   1.000  O
  O198     1.0000 0.48177  0.99483  0.51730  Biso   1.000  O
  O199     1.0000 0.93570  0.09820  0.65260  Biso   1.000  O
  O200     1.0000 0.90180  0.83750  0.65260  Biso   1.000  O
  O201     1.0000 0.16250  0.06430  0.65260  Biso   1.000  O
  O202     1.0000 0.09820  0.93570  0.84740  Biso   1.000  O
  O203     1.0000 0.60237  0.43153  0.98593  Biso   1.000  O
  O204     1.0000 0.56847  0.17083  0.98593  Biso   1.000  O
  O205     1.0000 0.82917  0.39763  0.98593  Biso   1.000  O
  O206     1.0000 0.76487  0.26903  0.18073  Biso   1.000  O
  O207     1.0000 0.26903  0.76487  0.31927  Biso   1.000  O
  O208     1.0000 0.43153  0.60237  0.51407  Biso   1.000  O
  O209     1.0000 0.83750  0.90180  0.84740  Biso   1.000  O
  O210     1.0000 0.06430  0.16250  0.84740  Biso   1.000  O
  O211     1.0000 0.23513  0.50417  0.31927  Biso   1.000  O
  O212     1.0000 0.49583  0.73097  0.31927  Biso   1.000  O
  O213     1.0000 0.17083  0.56847  0.51407  Biso   1.000  O
  O214     1.0000 0.39763  0.82917  0.51407  Biso   1.000  O
  O215     1.0000 0.50417  0.23513  0.18073  Biso   1.000  O
  O216     1.0000 0.73097  0.49583  0.18073  Biso   1.000  O
  O217     1.0000 0.06430  0.90180  0.34740  Biso   1.000  O
  O218     1.0000 0.09820  0.16250  0.34740  Biso   1.000  O
  O219     1.0000 0.83750  0.93570  0.34740  Biso   1.000  O
  O220     1.0000 0.90180  0.06430  0.15260  Biso   1.000  O
  O221     1.0000 0.73097  0.23513  0.68073  Biso   1.000  O
  O222     1.0000 0.76487  0.49583  0.68073  Biso   1.000  O
  O223     1.0000 0.50417  0.26903  0.68073  Biso   1.000  O
  O224     1.0000 0.56847  0.39763  0.48593  Biso   1.000  O
  O225     1.0000 0.39763  0.56847  0.01407  Biso   1.000  O
  O226     1.0000 0.23513  0.73097  0.81927  Biso   1.000  O
  O227     1.0000 0.16250  0.09820  0.15260  Biso   1.000  O
  O228     1.0000 0.93570  0.83750  0.15260  Biso   1.000  O
  O229     1.0000 0.43153  0.82917  0.01407  Biso   1.000  O
  O230     1.0000 0.17083  0.60237  0.01407  Biso   1.000  O
  O231     1.0000 0.49583  0.76487  0.81927  Biso   1.000  O
  O232     1.0000 0.26903  0.50417  0.81927  Biso   1.000  O
  O233     1.0000 0.82917  0.43153  0.48593  Biso   1.000  O
  O234     1.0000 0.60237  0.17083  0.48593  Biso   1.000  O
  O235     1.0000 0.00000  0.00000  0.67151  Biso   1.000  O
  O236     1.0000 0.00000  0.00000  0.82849  Biso   1.000  O
  O237     1.0000 0.66667  0.33333  0.00484  Biso   1.000  O
  O238     1.0000 0.66667  0.33333  0.16182  Biso   1.000  O
  O239     1.0000 0.33333  0.66667  0.33818  Biso   1.000  O
  O240     1.0000 0.33333  0.66667  0.49516  Biso   1.000  O
  O241     1.0000 0.00000  0.00000  0.32849  Biso   1.000  O
  O242     1.0000 0.00000  0.00000  0.17151  Biso   1.000  O
  O243     1.0000 0.66667  0.33333  0.66182  Biso   1.000  O
  O244     1.0000 0.66667  0.33333  0.50484  Biso   1.000  O
  O245     1.0000 0.33333  0.66667  0.99516  Biso   1.000  O
  O246     1.0000 0.33333  0.66667  0.83818  Biso   1.000  O
