data_image0
_cell_length_a       28.393
_cell_length_b       15.3601
_cell_length_c       18.695
_cell_angle_alpha    90
_cell_angle_beta     117.551
_cell_angle_gamma    90

_symmetry_space_group_name_H-M    "P 1"
_symmetry_int_tables_number       1

loop_
  _symmetry_equiv_pos_as_xyz
  'x, y, z'

loop_
  _atom_site_label
  _atom_site_occupancy
  _atom_site_fract_x
  _atom_site_fract_y
  _atom_site_fract_z
  _atom_site_thermal_displace_type
  _atom_site_B_iso_or_equiv
  _atom_site_type_symbol
  K1       1.0000 0.73232  0.58943  0.48297  Biso   1.000  K
  K2       1.0000 0.23232  0.08943  0.48297  Biso   1.000  K
  K3       1.0000 0.26768  0.58943  0.01703  Biso   1.000  K
  K4       1.0000 0.76768  0.08943  0.01703  Biso   1.000  K
  K5       1.0000 0.26768  0.41057  0.51703  Biso   1.000  K
  K6       1.0000 0.76768  0.91057  0.51703  Biso   1.000  K
  K7       1.0000 0.73232  0.41057  0.98297  Biso   1.000  K
  K8       1.0000 0.23232  0.91057  0.98297  Biso   1.000  K
  K9       1.0000 0.50000  0.64781  0.25000  Biso   1.000  K
  K10      1.0000 0.00000  0.14781  0.25000  Biso   1.000  K
  K11      1.0000 0.50000  0.35219  0.75000  Biso   1.000  K
  K12      1.0000 0.00000  0.85219  0.75000  Biso   1.000  K
  Cu1      1.0000 0.50000  0.40906  0.25000  Biso   1.000  Cu
  Cu2      1.0000 0.00000  0.90906  0.25000  Biso   1.000  Cu
  Cu3      1.0000 0.50000  0.59094  0.75000  Biso   1.000  Cu
  Cu4      1.0000 0.00000  0.09094  0.75000  Biso   1.000  Cu
  S1       1.0000 0.48559  0.47625  0.35182  Biso   1.000  S
  S2       1.0000 0.98559  0.97625  0.35182  Biso   1.000  S
  S3       1.0000 0.51441  0.47625  0.14818  Biso   1.000  S
  S4       1.0000 0.01441  0.97625  0.14818  Biso   1.000  S
  S5       1.0000 0.51441  0.52375  0.64818  Biso   1.000  S
  S6       1.0000 0.01441  0.02375  0.64818  Biso   1.000  S
  S7       1.0000 0.48559  0.52375  0.85182  Biso   1.000  S
  S8       1.0000 0.98559  0.02375  0.85182  Biso   1.000  S
  B1       1.0000 0.59560  0.43620  0.44410  Biso   1.000  B
  B2       1.0000 0.09560  0.93620  0.44410  Biso   1.000  B
  B3       1.0000 0.40440  0.43620  0.05590  Biso   1.000  B
  B4       1.0000 0.90440  0.93620  0.05590  Biso   1.000  B
  B5       1.0000 0.40440  0.56380  0.55590  Biso   1.000  B
  B6       1.0000 0.90440  0.06380  0.55590  Biso   1.000  B
  B7       1.0000 0.59560  0.56380  0.94410  Biso   1.000  B
  B8       1.0000 0.09560  0.06380  0.94410  Biso   1.000  B
  B9       1.0000 0.63560  0.77970  0.31310  Biso   1.000  B
  B10      1.0000 0.13560  0.27970  0.31310  Biso   1.000  B
  B11      1.0000 0.36440  0.77970  0.18690  Biso   1.000  B
  B12      1.0000 0.86440  0.27970  0.18690  Biso   1.000  B
  B13      1.0000 0.36440  0.22030  0.68690  Biso   1.000  B
  B14      1.0000 0.86440  0.72030  0.68690  Biso   1.000  B
  B15      1.0000 0.63560  0.22030  0.81310  Biso   1.000  B
  B16      1.0000 0.13560  0.72030  0.81310  Biso   1.000  B
  C1       1.0000 0.53810  0.43200  0.44420  Biso   1.000  C
  C2       1.0000 0.03810  0.93200  0.44420  Biso   1.000  C
  C3       1.0000 0.46190  0.43200  0.05580  Biso   1.000  C
  C4       1.0000 0.96190  0.93200  0.05580  Biso   1.000  C
  C5       1.0000 0.46190  0.56800  0.55580  Biso   1.000  C
  C6       1.0000 0.96190  0.06800  0.55580  Biso   1.000  C
  C7       1.0000 0.53810  0.56800  0.94420  Biso   1.000  C
  C8       1.0000 0.03810  0.06800  0.94420  Biso   1.000  C
  H1       1.0000 0.54000  0.46540  0.49080  Biso   1.000  H
  H2       1.0000 0.04000  0.96540  0.49080  Biso   1.000  H
  H3       1.0000 0.46000  0.46540  0.00920  Biso   1.000  H
  H4       1.0000 0.96000  0.96540  0.00920  Biso   1.000  H
  H5       1.0000 0.46000  0.53460  0.50920  Biso   1.000  H
  H6       1.0000 0.96000  0.03460  0.50920  Biso   1.000  H
  H7       1.0000 0.54000  0.53460  0.99080  Biso   1.000  H
  H8       1.0000 0.04000  0.03460  0.99080  Biso   1.000  H
  H9       1.0000 0.52970  0.37080  0.45040  Biso   1.000  H
  H10      1.0000 0.02970  0.87080  0.45040  Biso   1.000  H
  H11      1.0000 0.47030  0.37080  0.04960  Biso   1.000  H
  H12      1.0000 0.97030  0.87080  0.04960  Biso   1.000  H
  H13      1.0000 0.47030  0.62920  0.54960  Biso   1.000  H
  H14      1.0000 0.97030  0.12920  0.54960  Biso   1.000  H
  H15      1.0000 0.52970  0.62920  0.95040  Biso   1.000  H
  H16      1.0000 0.02970  0.12920  0.95040  Biso   1.000  H
  C9       1.0000 0.42840  0.42420  0.35170  Biso   1.000  C
  C10      1.0000 0.92840  0.92420  0.35170  Biso   1.000  C
  C11      1.0000 0.57160  0.42420  0.14830  Biso   1.000  C
  C12      1.0000 0.07160  0.92420  0.14830  Biso   1.000  C
  C13      1.0000 0.57160  0.57580  0.64830  Biso   1.000  C
  C14      1.0000 0.07160  0.07580  0.64830  Biso   1.000  C
  C15      1.0000 0.42840  0.57580  0.85170  Biso   1.000  C
  C16      1.0000 0.92840  0.07580  0.85170  Biso   1.000  C
  H17      1.0000 0.42270  0.36730  0.32530  Biso   1.000  H
  H18      1.0000 0.92270  0.86730  0.32530  Biso   1.000  H
  H19      1.0000 0.57730  0.36730  0.17470  Biso   1.000  H
  H20      1.0000 0.07730  0.86730  0.17470  Biso   1.000  H
  H21      1.0000 0.57730  0.63270  0.67470  Biso   1.000  H
  H22      1.0000 0.07730  0.13270  0.67470  Biso   1.000  H
  H23      1.0000 0.42270  0.63270  0.82530  Biso   1.000  H
  H24      1.0000 0.92270  0.13270  0.82530  Biso   1.000  H
  H25      1.0000 0.39690  0.46070  0.32230  Biso   1.000  H
  H26      1.0000 0.89690  0.96070  0.32230  Biso   1.000  H
  H27      1.0000 0.60310  0.46070  0.17770  Biso   1.000  H
  H28      1.0000 0.10310  0.96070  0.17770  Biso   1.000  H
  H29      1.0000 0.60310  0.53930  0.67770  Biso   1.000  H
  H30      1.0000 0.10310  0.03930  0.67770  Biso   1.000  H
  H31      1.0000 0.39690  0.53930  0.82230  Biso   1.000  H
  H32      1.0000 0.89690  0.03930  0.82230  Biso   1.000  H
  H33      1.0000 0.43460  0.41640  0.40740  Biso   1.000  H
  H34      1.0000 0.93460  0.91640  0.40740  Biso   1.000  H
  H35      1.0000 0.56540  0.41640  0.09260  Biso   1.000  H
  H36      1.0000 0.06540  0.91640  0.09260  Biso   1.000  H
  H37      1.0000 0.56540  0.58360  0.59260  Biso   1.000  H
  H38      1.0000 0.06540  0.08360  0.59260  Biso   1.000  H
  H39      1.0000 0.43460  0.58360  0.90740  Biso   1.000  H
  H40      1.0000 0.93460  0.08360  0.90740  Biso   1.000  H
  N1       1.0000 0.60030  0.35160  0.39920  Biso   1.000  N
  N2       1.0000 0.10030  0.85160  0.39920  Biso   1.000  N
  N3       1.0000 0.39970  0.35160  0.10080  Biso   1.000  N
  N4       1.0000 0.89970  0.85160  0.10080  Biso   1.000  N
  N5       1.0000 0.39970  0.64840  0.60080  Biso   1.000  N
  N6       1.0000 0.89970  0.14840  0.60080  Biso   1.000  N
  N7       1.0000 0.60030  0.64840  0.89920  Biso   1.000  N
  N8       1.0000 0.10030  0.14840  0.89920  Biso   1.000  N
  N9       1.0000 0.56380  0.33540  0.32080  Biso   1.000  N
  N10      1.0000 0.06380  0.83540  0.32080  Biso   1.000  N
  N11      1.0000 0.43620  0.33540  0.17920  Biso   1.000  N
  N12      1.0000 0.93620  0.83540  0.17920  Biso   1.000  N
  N13      1.0000 0.43620  0.66460  0.67920  Biso   1.000  N
  N14      1.0000 0.93620  0.16460  0.67920  Biso   1.000  N
  N15      1.0000 0.56380  0.66460  0.82080  Biso   1.000  N
  N16      1.0000 0.06380  0.16460  0.82080  Biso   1.000  N
  C17      1.0000 0.57430  0.25390  0.30450  Biso   1.000  C
  C18      1.0000 0.07430  0.75390  0.30450  Biso   1.000  C
  C19      1.0000 0.42570  0.25390  0.19550  Biso   1.000  C
  C20      1.0000 0.92570  0.75390  0.19550  Biso   1.000  C
  C21      1.0000 0.42570  0.74610  0.69550  Biso   1.000  C
  C22      1.0000 0.92570  0.24610  0.69550  Biso   1.000  C
  C23      1.0000 0.57430  0.74610  0.80450  Biso   1.000  C
  C24      1.0000 0.07430  0.24610  0.80450  Biso   1.000  C
  H41      1.0000 0.55490  0.22440  0.25460  Biso   1.000  H
  H42      1.0000 0.05490  0.72440  0.25460  Biso   1.000  H
  H43      1.0000 0.44510  0.22440  0.24540  Biso   1.000  H
  H44      1.0000 0.94510  0.72440  0.24540  Biso   1.000  H
  H45      1.0000 0.44510  0.77560  0.74540  Biso   1.000  H
  H46      1.0000 0.94510  0.27560  0.74540  Biso   1.000  H
  H47      1.0000 0.55490  0.77560  0.75460  Biso   1.000  H
  H48      1.0000 0.05490  0.27560  0.75460  Biso   1.000  H
  C25      1.0000 0.61790  0.21950  0.37170  Biso   1.000  C
  C26      1.0000 0.11790  0.71950  0.37170  Biso   1.000  C
  C27      1.0000 0.38210  0.21950  0.12830  Biso   1.000  C
  C28      1.0000 0.88210  0.71950  0.12830  Biso   1.000  C
  C29      1.0000 0.38210  0.78050  0.62830  Biso   1.000  C
  C30      1.0000 0.88210  0.28050  0.62830  Biso   1.000  C
  C31      1.0000 0.61790  0.78050  0.87170  Biso   1.000  C
  C32      1.0000 0.11790  0.28050  0.87170  Biso   1.000  C
  H49      1.0000 0.63400  0.16420  0.37640  Biso   1.000  H
  H50      1.0000 0.13400  0.66420  0.37640  Biso   1.000  H
  H51      1.0000 0.36600  0.16420  0.12360  Biso   1.000  H
  H52      1.0000 0.86600  0.66420  0.12360  Biso   1.000  H
  H53      1.0000 0.36600  0.83580  0.62360  Biso   1.000  H
  H54      1.0000 0.86600  0.33580  0.62360  Biso   1.000  H
  H55      1.0000 0.63400  0.83580  0.87640  Biso   1.000  H
  H56      1.0000 0.13400  0.33580  0.87640  Biso   1.000  H
  C33      1.0000 0.63230  0.28420  0.43010  Biso   1.000  C
  C34      1.0000 0.13230  0.78420  0.43010  Biso   1.000  C
  C35      1.0000 0.36770  0.28420  0.06990  Biso   1.000  C
  C36      1.0000 0.86770  0.78420  0.06990  Biso   1.000  C
  C37      1.0000 0.36770  0.71580  0.56990  Biso   1.000  C
  C38      1.0000 0.86770  0.21580  0.56990  Biso   1.000  C
  C39      1.0000 0.63230  0.71580  0.93010  Biso   1.000  C
  C40      1.0000 0.13230  0.21580  0.93010  Biso   1.000  C
  H57      1.0000 0.66050  0.28050  0.48350  Biso   1.000  H
  H58      1.0000 0.16050  0.78050  0.48350  Biso   1.000  H
  H59      1.0000 0.33950  0.28050  0.01650  Biso   1.000  H
  H60      1.0000 0.83950  0.78050  0.01650  Biso   1.000  H
  H61      1.0000 0.33950  0.71950  0.51650  Biso   1.000  H
  H62      1.0000 0.83950  0.21950  0.51650  Biso   1.000  H
  H63      1.0000 0.66050  0.71950  0.98350  Biso   1.000  H
  H64      1.0000 0.16050  0.21950  0.98350  Biso   1.000  H
  N17      1.0000 0.64160  0.42780  0.53370  Biso   1.000  N
  N18      1.0000 0.14160  0.92780  0.53370  Biso   1.000  N
  N19      1.0000 0.35840  0.42780  0.96630  Biso   1.000  N
  N20      1.0000 0.85840  0.92780  0.96630  Biso   1.000  N
  N21      1.0000 0.35840  0.57220  0.46630  Biso   1.000  N
  N22      1.0000 0.85840  0.07220  0.46630  Biso   1.000  N
  N23      1.0000 0.64160  0.57220  0.03370  Biso   1.000  N
  N24      1.0000 0.14160  0.07220  0.03370  Biso   1.000  N
  N25      1.0000 0.69350  0.44880  0.55120  Biso   1.000  N
  N26      1.0000 0.19350  0.94880  0.55120  Biso   1.000  N
  N27      1.0000 0.30650  0.44880  0.94880  Biso   1.000  N
  N28      1.0000 0.80650  0.94880  0.94880  Biso   1.000  N
  N29      1.0000 0.30650  0.55120  0.44880  Biso   1.000  N
  N30      1.0000 0.80650  0.05120  0.44880  Biso   1.000  N
  N31      1.0000 0.69350  0.55120  0.05120  Biso   1.000  N
  N32      1.0000 0.19350  0.05120  0.05120  Biso   1.000  N
  C41      1.0000 0.72250  0.42480  0.62720  Biso   1.000  C
  C42      1.0000 0.22250  0.92480  0.62720  Biso   1.000  C
  C43      1.0000 0.27750  0.42480  0.87280  Biso   1.000  C
  C44      1.0000 0.77750  0.92480  0.87280  Biso   1.000  C
  C45      1.0000 0.27750  0.57520  0.37280  Biso   1.000  C
  C46      1.0000 0.77750  0.07520  0.37280  Biso   1.000  C
  C47      1.0000 0.72250  0.57520  0.12720  Biso   1.000  C
  C48      1.0000 0.22250  0.07520  0.12720  Biso   1.000  C
  H65      1.0000 0.75990  0.43240  0.65640  Biso   1.000  H
  H66      1.0000 0.25990  0.93240  0.65640  Biso   1.000  H
  H67      1.0000 0.24010  0.43240  0.84360  Biso   1.000  H
  H68      1.0000 0.74010  0.93240  0.84360  Biso   1.000  H
  H69      1.0000 0.24010  0.56760  0.34360  Biso   1.000  H
  H70      1.0000 0.74010  0.06760  0.34360  Biso   1.000  H
  H71      1.0000 0.75990  0.56760  0.15640  Biso   1.000  H
  H72      1.0000 0.25990  0.06760  0.15640  Biso   1.000  H
  C49      1.0000 0.69170  0.38680  0.65980  Biso   1.000  C
  C50      1.0000 0.19170  0.88680  0.65980  Biso   1.000  C
  C51      1.0000 0.30830  0.38680  0.84020  Biso   1.000  C
  C52      1.0000 0.80830  0.88680  0.84020  Biso   1.000  C
  C53      1.0000 0.30830  0.61320  0.34020  Biso   1.000  C
  C54      1.0000 0.80830  0.11320  0.34020  Biso   1.000  C
  C55      1.0000 0.69170  0.61320  0.15980  Biso   1.000  C
  C56      1.0000 0.19170  0.11320  0.15980  Biso   1.000  C
  H73      1.0000 0.70380  0.36350  0.71240  Biso   1.000  H
  H74      1.0000 0.20380  0.86350  0.71240  Biso   1.000  H
  H75      1.0000 0.29620  0.36350  0.78760  Biso   1.000  H
  H76      1.0000 0.79620  0.86350  0.78760  Biso   1.000  H
  H77      1.0000 0.29620  0.63650  0.28760  Biso   1.000  H
  H78      1.0000 0.79620  0.13650  0.28760  Biso   1.000  H
  H79      1.0000 0.70380  0.63650  0.21240  Biso   1.000  H
  H80      1.0000 0.20380  0.13650  0.21240  Biso   1.000  H
  C57      1.0000 0.64090  0.39050  0.59990  Biso   1.000  C
  C58      1.0000 0.14090  0.89050  0.59990  Biso   1.000  C
  C59      1.0000 0.35910  0.39050  0.90010  Biso   1.000  C
  C60      1.0000 0.85910  0.89050  0.90010  Biso   1.000  C
  C61      1.0000 0.35910  0.60950  0.40010  Biso   1.000  C
  C62      1.0000 0.85910  0.10950  0.40010  Biso   1.000  C
  C63      1.0000 0.64090  0.60950  0.09990  Biso   1.000  C
  C64      1.0000 0.14090  0.10950  0.09990  Biso   1.000  C
  H81      1.0000 0.61020  0.37080  0.60320  Biso   1.000  H
  H82      1.0000 0.11020  0.87080  0.60320  Biso   1.000  H
  H83      1.0000 0.38980  0.37080  0.89680  Biso   1.000  H
  H84      1.0000 0.88980  0.87080  0.89680  Biso   1.000  H
  H85      1.0000 0.38980  0.62920  0.39680  Biso   1.000  H
  H86      1.0000 0.88980  0.12920  0.39680  Biso   1.000  H
  H87      1.0000 0.61020  0.62920  0.10320  Biso   1.000  H
  H88      1.0000 0.11020  0.12920  0.10320  Biso   1.000  H
  N33      1.0000 0.60170  0.78260  0.21770  Biso   1.000  N
  N34      1.0000 0.10170  0.28260  0.21770  Biso   1.000  N
  N35      1.0000 0.39830  0.78260  0.28230  Biso   1.000  N
  N36      1.0000 0.89830  0.28260  0.28230  Biso   1.000  N
  N37      1.0000 0.39830  0.21740  0.78230  Biso   1.000  N
  N38      1.0000 0.89830  0.71740  0.78230  Biso   1.000  N
  N39      1.0000 0.60170  0.21740  0.71770  Biso   1.000  N
  N40      1.0000 0.10170  0.71740  0.71770  Biso   1.000  N
  N41      1.0000 0.54900  0.75700  0.18110  Biso   1.000  N
  N42      1.0000 0.04900  0.25700  0.18110  Biso   1.000  N
  N43      1.0000 0.45100  0.75700  0.31890  Biso   1.000  N
  N44      1.0000 0.95100  0.25700  0.31890  Biso   1.000  N
  N45      1.0000 0.45100  0.24300  0.81890  Biso   1.000  N
  N46      1.0000 0.95100  0.74300  0.81890  Biso   1.000  N
  N47      1.0000 0.54900  0.24300  0.68110  Biso   1.000  N
  N48      1.0000 0.04900  0.74300  0.68110  Biso   1.000  N
  C65      1.0000 0.53000  0.77310  0.10320  Biso   1.000  C
  C66      1.0000 0.03000  0.27310  0.10320  Biso   1.000  C
  C67      1.0000 0.47000  0.77310  0.39680  Biso   1.000  C
  C68      1.0000 0.97000  0.27310  0.39680  Biso   1.000  C
  C69      1.0000 0.47000  0.22690  0.89680  Biso   1.000  C
  C70      1.0000 0.97000  0.72690  0.89680  Biso   1.000  C
  C71      1.0000 0.53000  0.22690  0.60320  Biso   1.000  C
  C72      1.0000 0.03000  0.72690  0.60320  Biso   1.000  C
  H89      1.0000 0.49440  0.76200  0.06390  Biso   1.000  H
  H90      1.0000 0.99440  0.26200  0.06390  Biso   1.000  H
  H91      1.0000 0.50560  0.76200  0.43610  Biso   1.000  H
  H92      1.0000 0.00560  0.26200  0.43610  Biso   1.000  H
  H93      1.0000 0.50560  0.23800  0.93610  Biso   1.000  H
  H94      1.0000 0.00560  0.73800  0.93610  Biso   1.000  H
  H95      1.0000 0.49440  0.23800  0.56390  Biso   1.000  H
  H96      1.0000 0.99440  0.73800  0.56390  Biso   1.000  H
  C73      1.0000 0.56940  0.80880  0.08620  Biso   1.000  C
  C74      1.0000 0.06940  0.30880  0.08620  Biso   1.000  C
  C75      1.0000 0.43060  0.80880  0.41380  Biso   1.000  C
  C76      1.0000 0.93060  0.30880  0.41380  Biso   1.000  C
  C77      1.0000 0.43060  0.19120  0.91380  Biso   1.000  C
  C78      1.0000 0.93060  0.69120  0.91380  Biso   1.000  C
  C79      1.0000 0.56940  0.19120  0.58620  Biso   1.000  C
  C80      1.0000 0.06940  0.69120  0.58620  Biso   1.000  C
  H97      1.0000 0.56610  0.82580  0.03520  Biso   1.000  H
  H98      1.0000 0.06610  0.32580  0.03520  Biso   1.000  H
  H99      1.0000 0.43390  0.82580  0.46480  Biso   1.000  H
  H100     1.0000 0.93390  0.32580  0.46480  Biso   1.000  H
  H101     1.0000 0.43390  0.17420  0.96480  Biso   1.000  H
  H102     1.0000 0.93390  0.67420  0.96480  Biso   1.000  H
  H103     1.0000 0.56610  0.17420  0.53520  Biso   1.000  H
  H104     1.0000 0.06610  0.67420  0.53520  Biso   1.000  H
  C81      1.0000 0.61450  0.81350  0.16120  Biso   1.000  C
  C82      1.0000 0.11450  0.31350  0.16120  Biso   1.000  C
  C83      1.0000 0.38550  0.81350  0.33880  Biso   1.000  C
  C84      1.0000 0.88550  0.31350  0.33880  Biso   1.000  C
  C85      1.0000 0.38550  0.18650  0.83880  Biso   1.000  C
  C86      1.0000 0.88550  0.68650  0.83880  Biso   1.000  C
  C87      1.0000 0.61450  0.18650  0.66120  Biso   1.000  C
  C88      1.0000 0.11450  0.68650  0.66120  Biso   1.000  C
  H105     1.0000 0.64830  0.83490  0.17080  Biso   1.000  H
  H106     1.0000 0.14830  0.33490  0.17080  Biso   1.000  H
  H107     1.0000 0.35170  0.83490  0.32920  Biso   1.000  H
  H108     1.0000 0.85170  0.33490  0.32920  Biso   1.000  H
  H109     1.0000 0.35170  0.16510  0.82920  Biso   1.000  H
  H110     1.0000 0.85170  0.66510  0.82920  Biso   1.000  H
  H111     1.0000 0.64830  0.16510  0.67080  Biso   1.000  H
  H112     1.0000 0.14830  0.66510  0.67080  Biso   1.000  H
  N49      1.0000 0.61970  0.86180  0.34720  Biso   1.000  N
  N50      1.0000 0.11970  0.36180  0.34720  Biso   1.000  N
  N51      1.0000 0.38030  0.86180  0.15280  Biso   1.000  N
  N52      1.0000 0.88030  0.36180  0.15280  Biso   1.000  N
  N53      1.0000 0.38030  0.13820  0.65280  Biso   1.000  N
  N54      1.0000 0.88030  0.63820  0.65280  Biso   1.000  N
  N55      1.0000 0.61970  0.13820  0.84720  Biso   1.000  N
  N56      1.0000 0.11970  0.63820  0.84720  Biso   1.000  N
  N57      1.0000 0.65370  0.89350  0.42180  Biso   1.000  N
  N58      1.0000 0.15370  0.39350  0.42180  Biso   1.000  N
  N59      1.0000 0.34630  0.89350  0.07820  Biso   1.000  N
  N60      1.0000 0.84630  0.39350  0.07820  Biso   1.000  N
  N61      1.0000 0.34630  0.10650  0.57820  Biso   1.000  N
  N62      1.0000 0.84630  0.60650  0.57820  Biso   1.000  N
  N63      1.0000 0.65370  0.10650  0.92180  Biso   1.000  N
  N64      1.0000 0.15370  0.60650  0.92180  Biso   1.000  N
  C89      1.0000 0.62570  0.95310  0.43910  Biso   1.000  C
  C90      1.0000 0.12570  0.45310  0.43910  Biso   1.000  C
  C91      1.0000 0.37430  0.95310  0.06090  Biso   1.000  C
  C92      1.0000 0.87430  0.45310  0.06090  Biso   1.000  C
  C93      1.0000 0.37430  0.04690  0.56090  Biso   1.000  C
  C94      1.0000 0.87430  0.54690  0.56090  Biso   1.000  C
  C95      1.0000 0.62570  0.04690  0.93910  Biso   1.000  C
  C96      1.0000 0.12570  0.54690  0.93910  Biso   1.000  C
  H113     1.0000 0.63910  0.98560  0.48780  Biso   1.000  H
  H114     1.0000 0.13910  0.48560  0.48780  Biso   1.000  H
  H115     1.0000 0.36090  0.98560  0.01220  Biso   1.000  H
  H116     1.0000 0.86090  0.48560  0.01220  Biso   1.000  H
  H117     1.0000 0.36090  0.01440  0.51220  Biso   1.000  H
  H118     1.0000 0.86090  0.51440  0.51220  Biso   1.000  H
  H119     1.0000 0.63910  0.01440  0.98780  Biso   1.000  H
  H120     1.0000 0.13910  0.51440  0.98780  Biso   1.000  H
  C97      1.0000 0.57410  0.96070  0.37560  Biso   1.000  C
  C98      1.0000 0.07410  0.46070  0.37560  Biso   1.000  C
  C99      1.0000 0.42590  0.96070  0.12440  Biso   1.000  C
  C100     1.0000 0.92590  0.46070  0.12440  Biso   1.000  C
  C101     1.0000 0.42590  0.03930  0.62440  Biso   1.000  C
  C102     1.0000 0.92590  0.53930  0.62440  Biso   1.000  C
  C103     1.0000 0.57410  0.03930  0.87560  Biso   1.000  C
  C104     1.0000 0.07410  0.53930  0.87560  Biso   1.000  C
  H121     1.0000 0.54700  0.99950  0.37180  Biso   1.000  H
  H122     1.0000 0.04700  0.49950  0.37180  Biso   1.000  H
  H123     1.0000 0.45300  0.99950  0.12820  Biso   1.000  H
  H124     1.0000 0.95300  0.49950  0.12820  Biso   1.000  H
  H125     1.0000 0.45300  0.00050  0.62820  Biso   1.000  H
  H126     1.0000 0.95300  0.50050  0.62820  Biso   1.000  H
  H127     1.0000 0.54700  0.00050  0.87180  Biso   1.000  H
  H128     1.0000 0.04700  0.50050  0.87180  Biso   1.000  H
  C105     1.0000 0.57120  0.89880  0.31910  Biso   1.000  C
  C106     1.0000 0.07120  0.39880  0.31910  Biso   1.000  C
  C107     1.0000 0.42880  0.89880  0.18090  Biso   1.000  C
  C108     1.0000 0.92880  0.39880  0.18090  Biso   1.000  C
  C109     1.0000 0.42880  0.10120  0.68090  Biso   1.000  C
  C110     1.0000 0.92880  0.60120  0.68090  Biso   1.000  C
  C111     1.0000 0.57120  0.10120  0.81910  Biso   1.000  C
  C112     1.0000 0.07120  0.60120  0.81910  Biso   1.000  C
  H129     1.0000 0.54070  0.88510  0.26990  Biso   1.000  H
  H130     1.0000 0.04070  0.38510  0.26990  Biso   1.000  H
  H131     1.0000 0.45930  0.88510  0.23010  Biso   1.000  H
  H132     1.0000 0.95930  0.38510  0.23010  Biso   1.000  H
  H133     1.0000 0.45930  0.11490  0.73010  Biso   1.000  H
  H134     1.0000 0.95930  0.61490  0.73010  Biso   1.000  H
  H135     1.0000 0.54070  0.11490  0.76990  Biso   1.000  H
  H136     1.0000 0.04070  0.61490  0.76990  Biso   1.000  H
  N65      1.0000 0.69510  0.78800  0.33570  Biso   1.000  N
  N66      1.0000 0.19510  0.28800  0.33570  Biso   1.000  N
  N67      1.0000 0.30490  0.78800  0.16430  Biso   1.000  N
  N68      1.0000 0.80490  0.28800  0.16430  Biso   1.000  N
  N69      1.0000 0.30490  0.21200  0.66430  Biso   1.000  N
  N70      1.0000 0.80490  0.71200  0.66430  Biso   1.000  N
  N71      1.0000 0.69510  0.21200  0.83570  Biso   1.000  N
  N72      1.0000 0.19510  0.71200  0.83570  Biso   1.000  N
  N73      1.0000 0.73130  0.72430  0.37920  Biso   1.000  N
  N74      1.0000 0.23130  0.22430  0.37920  Biso   1.000  N
  N75      1.0000 0.26870  0.72430  0.12080  Biso   1.000  N
  N76      1.0000 0.76870  0.22430  0.12080  Biso   1.000  N
  N77      1.0000 0.26870  0.27570  0.62080  Biso   1.000  N
  N78      1.0000 0.76870  0.77570  0.62080  Biso   1.000  N
  N79      1.0000 0.73130  0.27570  0.87920  Biso   1.000  N
  N80      1.0000 0.23130  0.77570  0.87920  Biso   1.000  N
  C113     1.0000 0.77870  0.75640  0.39570  Biso   1.000  C
  C114     1.0000 0.27870  0.25640  0.39570  Biso   1.000  C
  C115     1.0000 0.22130  0.75640  0.10430  Biso   1.000  C
  C116     1.0000 0.72130  0.25640  0.10430  Biso   1.000  C
  C117     1.0000 0.22130  0.24360  0.60430  Biso   1.000  C
  C118     1.0000 0.72130  0.74360  0.60430  Biso   1.000  C
  C119     1.0000 0.77870  0.24360  0.89570  Biso   1.000  C
  C120     1.0000 0.27870  0.74360  0.89570  Biso   1.000  C
  H137     1.0000 0.81130  0.72630  0.42570  Biso   1.000  H
  H138     1.0000 0.31130  0.22630  0.42570  Biso   1.000  H
  H139     1.0000 0.18870  0.72630  0.07430  Biso   1.000  H
  H140     1.0000 0.68870  0.22630  0.07430  Biso   1.000  H
  H141     1.0000 0.18870  0.27370  0.57430  Biso   1.000  H
  H142     1.0000 0.68870  0.77370  0.57430  Biso   1.000  H
  H143     1.0000 0.81130  0.27370  0.92570  Biso   1.000  H
  H144     1.0000 0.31130  0.77370  0.92570  Biso   1.000  H
  C121     1.0000 0.77490  0.83970  0.36360  Biso   1.000  C
  C122     1.0000 0.27490  0.33970  0.36360  Biso   1.000  C
  C123     1.0000 0.22510  0.83970  0.13640  Biso   1.000  C
  C124     1.0000 0.72510  0.33970  0.13640  Biso   1.000  C
  C125     1.0000 0.22510  0.16030  0.63640  Biso   1.000  C
  C126     1.0000 0.72510  0.66030  0.63640  Biso   1.000  C
  C127     1.0000 0.77490  0.16030  0.86360  Biso   1.000  C
  C128     1.0000 0.27490  0.66030  0.86360  Biso   1.000  C
  H145     1.0000 0.80280  0.87540  0.36550  Biso   1.000  H
  H146     1.0000 0.30280  0.37540  0.36550  Biso   1.000  H
  H147     1.0000 0.19720  0.87540  0.13450  Biso   1.000  H
  H148     1.0000 0.69720  0.37540  0.13450  Biso   1.000  H
  H149     1.0000 0.19720  0.12460  0.63450  Biso   1.000  H
  H150     1.0000 0.69720  0.62460  0.63450  Biso   1.000  H
  H151     1.0000 0.80280  0.12460  0.86550  Biso   1.000  H
  H152     1.0000 0.30280  0.62460  0.86550  Biso   1.000  H
  C129     1.0000 0.72080  0.85830  0.32810  Biso   1.000  C
  C130     1.0000 0.22080  0.35830  0.32810  Biso   1.000  C
  C131     1.0000 0.27920  0.85830  0.17190  Biso   1.000  C
  C132     1.0000 0.77920  0.35830  0.17190  Biso   1.000  C
  C133     1.0000 0.27920  0.14170  0.67190  Biso   1.000  C
  C134     1.0000 0.77920  0.64170  0.67190  Biso   1.000  C
  C135     1.0000 0.72080  0.14170  0.82810  Biso   1.000  C
  C136     1.0000 0.22080  0.64170  0.82810  Biso   1.000  C
  H153     1.0000 0.70480  0.91160  0.30270  Biso   1.000  H
  H154     1.0000 0.20480  0.41160  0.30270  Biso   1.000  H
  H155     1.0000 0.29520  0.91160  0.19730  Biso   1.000  H
  H156     1.0000 0.79520  0.41160  0.19730  Biso   1.000  H
  H157     1.0000 0.29520  0.08840  0.69730  Biso   1.000  H
  H158     1.0000 0.79520  0.58840  0.69730  Biso   1.000  H
  H159     1.0000 0.70480  0.08840  0.80270  Biso   1.000  H
  H160     1.0000 0.20480  0.58840  0.80270  Biso   1.000  H
  C137     1.0000 0.60480  0.52660  0.40560  Biso   1.000  C
  C138     1.0000 0.10480  0.02660  0.40560  Biso   1.000  C
  C139     1.0000 0.39520  0.52660  0.09440  Biso   1.000  C
  C140     1.0000 0.89520  0.02660  0.09440  Biso   1.000  C
  C141     1.0000 0.39520  0.47340  0.59440  Biso   1.000  C
  C142     1.0000 0.89520  0.97340  0.59440  Biso   1.000  C
  C143     1.0000 0.60480  0.47340  0.90560  Biso   1.000  C
  C144     1.0000 0.10480  0.97340  0.90560  Biso   1.000  C
  C145     1.0000 0.60080  0.60750  0.43880  Biso   1.000  C
  C146     1.0000 0.10080  0.10750  0.43880  Biso   1.000  C
  C147     1.0000 0.39920  0.60750  0.06120  Biso   1.000  C
  C148     1.0000 0.89920  0.10750  0.06120  Biso   1.000  C
  C149     1.0000 0.39920  0.39250  0.56120  Biso   1.000  C
  C150     1.0000 0.89920  0.89250  0.56120  Biso   1.000  C
  C151     1.0000 0.60080  0.39250  0.93880  Biso   1.000  C
  C152     1.0000 0.10080  0.89250  0.93880  Biso   1.000  C
  H161     1.0000 0.59170  0.60760  0.48170  Biso   1.000  H
  H162     1.0000 0.09170  0.10760  0.48170  Biso   1.000  H
  H163     1.0000 0.40830  0.60760  0.01830  Biso   1.000  H
  H164     1.0000 0.90830  0.10760  0.01830  Biso   1.000  H
  H165     1.0000 0.40830  0.39240  0.51830  Biso   1.000  H
  H166     1.0000 0.90830  0.89240  0.51830  Biso   1.000  H
  H167     1.0000 0.59170  0.39240  0.98170  Biso   1.000  H
  H168     1.0000 0.09170  0.89240  0.98170  Biso   1.000  H
  C153     1.0000 0.60960  0.68710  0.41080  Biso   1.000  C
  C154     1.0000 0.10960  0.18710  0.41080  Biso   1.000  C
  C155     1.0000 0.39040  0.68710  0.08920  Biso   1.000  C
  C156     1.0000 0.89040  0.18710  0.08920  Biso   1.000  C
  C157     1.0000 0.39040  0.31290  0.58920  Biso   1.000  C
  C158     1.0000 0.89040  0.81290  0.58920  Biso   1.000  C
  C159     1.0000 0.60960  0.31290  0.91080  Biso   1.000  C
  C160     1.0000 0.10960  0.81290  0.91080  Biso   1.000  C
  H169     1.0000 0.60660  0.73990  0.43470  Biso   1.000  H
  H170     1.0000 0.10660  0.23990  0.43470  Biso   1.000  H
  H171     1.0000 0.39340  0.73990  0.06530  Biso   1.000  H
  H172     1.0000 0.89340  0.23990  0.06530  Biso   1.000  H
  H173     1.0000 0.39340  0.26010  0.56530  Biso   1.000  H
  H174     1.0000 0.89340  0.76010  0.56530  Biso   1.000  H
  H175     1.0000 0.60660  0.26010  0.93470  Biso   1.000  H
  H176     1.0000 0.10660  0.76010  0.93470  Biso   1.000  H
  C161     1.0000 0.62320  0.68910  0.34690  Biso   1.000  C
  C162     1.0000 0.12320  0.18910  0.34690  Biso   1.000  C
  C163     1.0000 0.37680  0.68910  0.15310  Biso   1.000  C
  C164     1.0000 0.87680  0.18910  0.15310  Biso   1.000  C
  C165     1.0000 0.37680  0.31090  0.65310  Biso   1.000  C
  C166     1.0000 0.87680  0.81090  0.65310  Biso   1.000  C
  C167     1.0000 0.62320  0.31090  0.84690  Biso   1.000  C
  C168     1.0000 0.12320  0.81090  0.84690  Biso   1.000  C
  C169     1.0000 0.62600  0.60850  0.31270  Biso   1.000  C
  C170     1.0000 0.12600  0.10850  0.31270  Biso   1.000  C
  C171     1.0000 0.37400  0.60850  0.18730  Biso   1.000  C
  C172     1.0000 0.87400  0.10850  0.18730  Biso   1.000  C
  C173     1.0000 0.37400  0.39150  0.68730  Biso   1.000  C
  C174     1.0000 0.87400  0.89150  0.68730  Biso   1.000  C
  C175     1.0000 0.62600  0.39150  0.81270  Biso   1.000  C
  C176     1.0000 0.12600  0.89150  0.81270  Biso   1.000  C
  H177     1.0000 0.63390  0.60790  0.26860  Biso   1.000  H
  H178     1.0000 0.13390  0.10790  0.26860  Biso   1.000  H
  H179     1.0000 0.36610  0.60790  0.23140  Biso   1.000  H
  H180     1.0000 0.86610  0.10790  0.23140  Biso   1.000  H
  H181     1.0000 0.36610  0.39210  0.73140  Biso   1.000  H
  H182     1.0000 0.86610  0.89210  0.73140  Biso   1.000  H
  H183     1.0000 0.63390  0.39210  0.76860  Biso   1.000  H
  H184     1.0000 0.13390  0.89210  0.76860  Biso   1.000  H
  C177     1.0000 0.61760  0.53000  0.34230  Biso   1.000  C
  C178     1.0000 0.11760  0.03000  0.34230  Biso   1.000  C
  C179     1.0000 0.38240  0.53000  0.15770  Biso   1.000  C
  C180     1.0000 0.88240  0.03000  0.15770  Biso   1.000  C
  C181     1.0000 0.38240  0.47000  0.65770  Biso   1.000  C
  C182     1.0000 0.88240  0.97000  0.65770  Biso   1.000  C
  C183     1.0000 0.61760  0.47000  0.84230  Biso   1.000  C
  C184     1.0000 0.11760  0.97000  0.84230  Biso   1.000  C
  H185     1.0000 0.62060  0.47710  0.31840  Biso   1.000  H
  H186     1.0000 0.12060  0.97710  0.31840  Biso   1.000  H
  H187     1.0000 0.37940  0.47710  0.18160  Biso   1.000  H
  H188     1.0000 0.87940  0.97710  0.18160  Biso   1.000  H
  H189     1.0000 0.37940  0.52290  0.68160  Biso   1.000  H
  H190     1.0000 0.87940  0.02290  0.68160  Biso   1.000  H
  H191     1.0000 0.62060  0.52290  0.81840  Biso   1.000  H
  H192     1.0000 0.12060  0.02290  0.81840  Biso   1.000  H
  O1       1.0000 0.75850  0.46050  0.40710  Biso   1.000  O
  O2       1.0000 0.25850  0.96050  0.40710  Biso   1.000  O
  O3       1.0000 0.24150  0.46050  0.09290  Biso   1.000  O
  O4       1.0000 0.74150  0.96050  0.09290  Biso   1.000  O
  O5       1.0000 0.24150  0.53950  0.59290  Biso   1.000  O
  O6       1.0000 0.74150  0.03950  0.59290  Biso   1.000  O
  O7       1.0000 0.75850  0.53950  0.90710  Biso   1.000  O
  O8       1.0000 0.25850  0.03950  0.90710  Biso   1.000  O
  C185     1.0000 0.73280  0.44210  0.32220  Biso   1.000  C
  C186     1.0000 0.23280  0.94210  0.32220  Biso   1.000  C
  C187     1.0000 0.26720  0.44210  0.17780  Biso   1.000  C
  C188     1.0000 0.76720  0.94210  0.17780  Biso   1.000  C
  C189     1.0000 0.26720  0.55790  0.67780  Biso   1.000  C
  C190     1.0000 0.76720  0.05790  0.67780  Biso   1.000  C
  C191     1.0000 0.73280  0.55790  0.82220  Biso   1.000  C
  C192     1.0000 0.23280  0.05790  0.82220  Biso   1.000  C
  H193     1.0000 0.75880  0.44130  0.30080  Biso   1.000  H
  H194     1.0000 0.25880  0.94130  0.30080  Biso   1.000  H
  H195     1.0000 0.24120  0.44130  0.19920  Biso   1.000  H
  H196     1.0000 0.74120  0.94130  0.19920  Biso   1.000  H
  H197     1.0000 0.24120  0.55870  0.69920  Biso   1.000  H
  H198     1.0000 0.74120  0.05870  0.69920  Biso   1.000  H
  H199     1.0000 0.75880  0.55870  0.80080  Biso   1.000  H
  H200     1.0000 0.25880  0.05870  0.80080  Biso   1.000  H
  H201     1.0000 0.70500  0.48600  0.29220  Biso   1.000  H
  H202     1.0000 0.20500  0.98600  0.29220  Biso   1.000  H
  H203     1.0000 0.29500  0.48600  0.20780  Biso   1.000  H
  H204     1.0000 0.79500  0.98600  0.20780  Biso   1.000  H
  H205     1.0000 0.29500  0.51400  0.70780  Biso   1.000  H
  H206     1.0000 0.79500  0.01400  0.70780  Biso   1.000  H
  H207     1.0000 0.70500  0.51400  0.79220  Biso   1.000  H
  H208     1.0000 0.20500  0.01400  0.79220  Biso   1.000  H
  C193     1.0000 0.70800  0.35130  0.31610  Biso   1.000  C
  C194     1.0000 0.20800  0.85130  0.31610  Biso   1.000  C
  C195     1.0000 0.29200  0.35130  0.18390  Biso   1.000  C
  C196     1.0000 0.79200  0.85130  0.18390  Biso   1.000  C
  C197     1.0000 0.29200  0.64870  0.68390  Biso   1.000  C
  C198     1.0000 0.79200  0.14870  0.68390  Biso   1.000  C
  C199     1.0000 0.70800  0.64870  0.81610  Biso   1.000  C
  C200     1.0000 0.20800  0.14870  0.81610  Biso   1.000  C
  H209     1.0000 0.67360  0.35510  0.31750  Biso   1.000  H
  H210     1.0000 0.17360  0.85510  0.31750  Biso   1.000  H
  H211     1.0000 0.32640  0.35510  0.18250  Biso   1.000  H
  H212     1.0000 0.82640  0.85510  0.18250  Biso   1.000  H
  H213     1.0000 0.32640  0.64490  0.68250  Biso   1.000  H
  H214     1.0000 0.82640  0.14490  0.68250  Biso   1.000  H
  H215     1.0000 0.67360  0.64490  0.81750  Biso   1.000  H
  H216     1.0000 0.17360  0.14490  0.81750  Biso   1.000  H
  H217     1.0000 0.70270  0.32070  0.26630  Biso   1.000  H
  H218     1.0000 0.20270  0.82070  0.26630  Biso   1.000  H
  H219     1.0000 0.29730  0.32070  0.23370  Biso   1.000  H
  H220     1.0000 0.79730  0.82070  0.23370  Biso   1.000  H
  H221     1.0000 0.29730  0.67930  0.73370  Biso   1.000  H
  H222     1.0000 0.79730  0.17930  0.73370  Biso   1.000  H
  H223     1.0000 0.70270  0.67930  0.76630  Biso   1.000  H
  H224     1.0000 0.20270  0.17930  0.76630  Biso   1.000  H
  C201     1.0000 0.75020  0.30660  0.39130  Biso   1.000  C
  C202     1.0000 0.25020  0.80660  0.39130  Biso   1.000  C
  C203     1.0000 0.24980  0.30660  0.10870  Biso   1.000  C
  C204     1.0000 0.74980  0.80660  0.10870  Biso   1.000  C
  C205     1.0000 0.24980  0.69340  0.60870  Biso   1.000  C
  C206     1.0000 0.74980  0.19340  0.60870  Biso   1.000  C
  C207     1.0000 0.75020  0.69340  0.89130  Biso   1.000  C
  C208     1.0000 0.25020  0.19340  0.89130  Biso   1.000  C
  H225     1.0000 0.73420  0.26120  0.41070  Biso   1.000  H
  H226     1.0000 0.23420  0.76120  0.41070  Biso   1.000  H
  H227     1.0000 0.26580  0.26120  0.08930  Biso   1.000  H
  H228     1.0000 0.76580  0.76120  0.08930  Biso   1.000  H
  H229     1.0000 0.26580  0.73880  0.58930  Biso   1.000  H
  H230     1.0000 0.76580  0.23880  0.58930  Biso   1.000  H
  H231     1.0000 0.73420  0.73880  0.91070  Biso   1.000  H
  H232     1.0000 0.23420  0.23880  0.91070  Biso   1.000  H
  H233     1.0000 0.77780  0.27960  0.38020  Biso   1.000  H
  H234     1.0000 0.27780  0.77960  0.38020  Biso   1.000  H
  H235     1.0000 0.22220  0.27960  0.11980  Biso   1.000  H
  H236     1.0000 0.72220  0.77960  0.11980  Biso   1.000  H
  H237     1.0000 0.22220  0.72040  0.61980  Biso   1.000  H
  H238     1.0000 0.72220  0.22040  0.61980  Biso   1.000  H
  H239     1.0000 0.77780  0.72040  0.88020  Biso   1.000  H
  H240     1.0000 0.27780  0.22040  0.88020  Biso   1.000  H
  C209     1.0000 0.77330  0.37930  0.45220  Biso   1.000  C
  C210     1.0000 0.27330  0.87930  0.45220  Biso   1.000  C
  C211     1.0000 0.22670  0.37930  0.04780  Biso   1.000  C
  C212     1.0000 0.72670  0.87930  0.04780  Biso   1.000  C
  C213     1.0000 0.22670  0.62070  0.54780  Biso   1.000  C
  C214     1.0000 0.72670  0.12070  0.54780  Biso   1.000  C
  C215     1.0000 0.77330  0.62070  0.95220  Biso   1.000  C
  C216     1.0000 0.27330  0.12070  0.95220  Biso   1.000  C
  H241     1.0000 0.75890  0.37720  0.49130  Biso   1.000  H
  H242     1.0000 0.25890  0.87720  0.49130  Biso   1.000  H
  H243     1.0000 0.24110  0.37720  0.00870  Biso   1.000  H
  H244     1.0000 0.74110  0.87720  0.00870  Biso   1.000  H
  H245     1.0000 0.24110  0.62280  0.50870  Biso   1.000  H
  H246     1.0000 0.74110  0.12280  0.50870  Biso   1.000  H
  H247     1.0000 0.75890  0.62280  0.99130  Biso   1.000  H
  H248     1.0000 0.25890  0.12280  0.99130  Biso   1.000  H
  H249     1.0000 0.81250  0.37400  0.48220  Biso   1.000  H
  H250     1.0000 0.31250  0.87400  0.48220  Biso   1.000  H
  H251     1.0000 0.18750  0.37400  0.01780  Biso   1.000  H
  H252     1.0000 0.68750  0.87400  0.01780  Biso   1.000  H
  H253     1.0000 0.18750  0.62600  0.51780  Biso   1.000  H
  H254     1.0000 0.68750  0.12600  0.51780  Biso   1.000  H
  H255     1.0000 0.81250  0.62600  0.98220  Biso   1.000  H
  H256     1.0000 0.31250  0.12600  0.98220  Biso   1.000  H
  O9       1.0000 0.63770  0.04350  0.21060  Biso   1.000  O
  O10      1.0000 0.13770  0.54350  0.21060  Biso   1.000  O
  O11      1.0000 0.36230  0.04350  0.28940  Biso   1.000  O
  O12      1.0000 0.86230  0.54350  0.28940  Biso   1.000  O
  O13      1.0000 0.36230  0.95650  0.78940  Biso   1.000  O
  O14      1.0000 0.86230  0.45650  0.78940  Biso   1.000  O
  O15      1.0000 0.63770  0.95650  0.71060  Biso   1.000  O
  O16      1.0000 0.13770  0.45650  0.71060  Biso   1.000  O
  C217     1.0000 0.58050  0.04570  0.17600  Biso   1.000  C
  C218     1.0000 0.08050  0.54570  0.17600  Biso   1.000  C
  C219     1.0000 0.41950  0.04570  0.32400  Biso   1.000  C
  C220     1.0000 0.91950  0.54570  0.32400  Biso   1.000  C
  C221     1.0000 0.41950  0.95430  0.82400  Biso   1.000  C
  C222     1.0000 0.91950  0.45430  0.82400  Biso   1.000  C
  C223     1.0000 0.58050  0.95430  0.67600  Biso   1.000  C
  C224     1.0000 0.08050  0.45430  0.67600  Biso   1.000  C
  H257     1.0000 0.57050  0.06430  0.21820  Biso   1.000  H
  H258     1.0000 0.07050  0.56430  0.21820  Biso   1.000  H
  H259     1.0000 0.42950  0.06430  0.28180  Biso   1.000  H
  H260     1.0000 0.92950  0.56430  0.28180  Biso   1.000  H
  H261     1.0000 0.42950  0.93570  0.78180  Biso   1.000  H
  H262     1.0000 0.92950  0.43570  0.78180  Biso   1.000  H
  H263     1.0000 0.57050  0.93570  0.71820  Biso   1.000  H
  H264     1.0000 0.07050  0.43570  0.71820  Biso   1.000  H
  H265     1.0000 0.56620  0.98650  0.15840  Biso   1.000  H
  H266     1.0000 0.06620  0.48650  0.15840  Biso   1.000  H
  H267     1.0000 0.43380  0.98650  0.34160  Biso   1.000  H
  H268     1.0000 0.93380  0.48650  0.34160  Biso   1.000  H
  H269     1.0000 0.43380  0.01350  0.84160  Biso   1.000  H
  H270     1.0000 0.93380  0.51350  0.84160  Biso   1.000  H
  H271     1.0000 0.56620  0.01350  0.65840  Biso   1.000  H
  H272     1.0000 0.06620  0.51350  0.65840  Biso   1.000  H
  C225     1.0000 0.55730  0.10500  0.10850  Biso   1.000  C
  C226     1.0000 0.05730  0.60500  0.10850  Biso   1.000  C
  C227     1.0000 0.44270  0.10500  0.39150  Biso   1.000  C
  C228     1.0000 0.94270  0.60500  0.39150  Biso   1.000  C
  C229     1.0000 0.44270  0.89500  0.89150  Biso   1.000  C
  C230     1.0000 0.94270  0.39500  0.89150  Biso   1.000  C
  C231     1.0000 0.55730  0.89500  0.60850  Biso   1.000  C
  C232     1.0000 0.05730  0.39500  0.60850  Biso   1.000  C
  H273     1.0000 0.53030  0.14270  0.11200  Biso   1.000  H
  H274     1.0000 0.03030  0.64270  0.11200  Biso   1.000  H
  H275     1.0000 0.46970  0.14270  0.38800  Biso   1.000  H
  H276     1.0000 0.96970  0.64270  0.38800  Biso   1.000  H
  H277     1.0000 0.46970  0.85730  0.88800  Biso   1.000  H
  H278     1.0000 0.96970  0.35730  0.88800  Biso   1.000  H
  H279     1.0000 0.53030  0.85730  0.61200  Biso   1.000  H
  H280     1.0000 0.03030  0.35730  0.61200  Biso   1.000  H
  H281     1.0000 0.54080  0.07270  0.05670  Biso   1.000  H
  H282     1.0000 0.04080  0.57270  0.05670  Biso   1.000  H
  H283     1.0000 0.45920  0.07270  0.44330  Biso   1.000  H
  H284     1.0000 0.95920  0.57270  0.44330  Biso   1.000  H
  H285     1.0000 0.45920  0.92730  0.94330  Biso   1.000  H
  H286     1.0000 0.95920  0.42730  0.94330  Biso   1.000  H
  H287     1.0000 0.54080  0.92730  0.55670  Biso   1.000  H
  H288     1.0000 0.04080  0.42730  0.55670  Biso   1.000  H
  C233     1.0000 0.60400  0.15620  0.11680  Biso   1.000  C
  C234     1.0000 0.10400  0.65620  0.11680  Biso   1.000  C
  C235     1.0000 0.39600  0.15620  0.38320  Biso   1.000  C
  C236     1.0000 0.89600  0.65620  0.38320  Biso   1.000  C
  C237     1.0000 0.39600  0.84380  0.88320  Biso   1.000  C
  C238     1.0000 0.89600  0.34380  0.88320  Biso   1.000  C
  C239     1.0000 0.60400  0.84380  0.61680  Biso   1.000  C
  C240     1.0000 0.10400  0.34380  0.61680  Biso   1.000  C
  H289     1.0000 0.60400  0.16190  0.06400  Biso   1.000  H
  H290     1.0000 0.10400  0.66190  0.06400  Biso   1.000  H
  H291     1.0000 0.39600  0.16190  0.43600  Biso   1.000  H
  H292     1.0000 0.89600  0.66190  0.43600  Biso   1.000  H
  H293     1.0000 0.39600  0.83810  0.93600  Biso   1.000  H
  H294     1.0000 0.89600  0.33810  0.93600  Biso   1.000  H
  H295     1.0000 0.60400  0.83810  0.56400  Biso   1.000  H
  H296     1.0000 0.10400  0.33810  0.56400  Biso   1.000  H
  H297     1.0000 0.60350  0.21520  0.13780  Biso   1.000  H
  H298     1.0000 0.10350  0.71520  0.13780  Biso   1.000  H
  H299     1.0000 0.39650  0.21520  0.36220  Biso   1.000  H
  H300     1.0000 0.89650  0.71520  0.36220  Biso   1.000  H
  H301     1.0000 0.39650  0.78480  0.86220  Biso   1.000  H
  H302     1.0000 0.89650  0.28480  0.86220  Biso   1.000  H
  H303     1.0000 0.60350  0.78480  0.63780  Biso   1.000  H
  H304     1.0000 0.10350  0.28480  0.63780  Biso   1.000  H
  C241     1.0000 0.64970  0.10850  0.17260  Biso   1.000  C
  C242     1.0000 0.14970  0.60850  0.17260  Biso   1.000  C
  C243     1.0000 0.35030  0.10850  0.32740  Biso   1.000  C
  C244     1.0000 0.85030  0.60850  0.32740  Biso   1.000  C
  C245     1.0000 0.35030  0.89150  0.82740  Biso   1.000  C
  C246     1.0000 0.85030  0.39150  0.82740  Biso   1.000  C
  C247     1.0000 0.64970  0.89150  0.67260  Biso   1.000  C
  C248     1.0000 0.14970  0.39150  0.67260  Biso   1.000  C
  H305     1.0000 0.66780  0.08330  0.14320  Biso   1.000  H
  H306     1.0000 0.16780  0.58330  0.14320  Biso   1.000  H
  H307     1.0000 0.33220  0.08330  0.35680  Biso   1.000  H
  H308     1.0000 0.83220  0.58330  0.35680  Biso   1.000  H
  H309     1.0000 0.33220  0.91670  0.85680  Biso   1.000  H
  H310     1.0000 0.83220  0.41670  0.85680  Biso   1.000  H
  H311     1.0000 0.66780  0.91670  0.64320  Biso   1.000  H
  H312     1.0000 0.16780  0.41670  0.64320  Biso   1.000  H
  H313     1.0000 0.67470  0.14920  0.21360  Biso   1.000  H
  H314     1.0000 0.17470  0.64920  0.21360  Biso   1.000  H
  H315     1.0000 0.32530  0.14920  0.28640  Biso   1.000  H
  H316     1.0000 0.82530  0.64920  0.28640  Biso   1.000  H
  H317     1.0000 0.32530  0.85080  0.78640  Biso   1.000  H
  H318     1.0000 0.82530  0.35080  0.78640  Biso   1.000  H
  H319     1.0000 0.67470  0.85080  0.71360  Biso   1.000  H
  H320     1.0000 0.17470  0.35080  0.71360  Biso   1.000  H
