data_image0
_cell_length_a       32.132
_cell_length_b       8.361
_cell_length_c       34.836
_cell_angle_alpha    90
_cell_angle_beta     90
_cell_angle_gamma    90

_symmetry_space_group_name_H-M    "P 1"
_symmetry_int_tables_number       1

loop_
  _symmetry_equiv_pos_as_xyz
  'x, y, z'

loop_
  _atom_site_label
  _atom_site_occupancy
  _atom_site_fract_x
  _atom_site_fract_y
  _atom_site_fract_z
  _atom_site_thermal_displace_type
  _atom_site_B_iso_or_equiv
  _atom_site_type_symbol
  Cu1      1.0000 0.29207  0.21827  0.14667  Biso   1.000  Cu
  Cu2      1.0000 0.20793  0.78173  0.64667  Biso   1.000  Cu
  Cu3      1.0000 0.70793  0.71827  0.35333  Biso   1.000  Cu
  Cu4      1.0000 0.79207  0.28173  0.85333  Biso   1.000  Cu
  Cu5      1.0000 0.70793  0.78173  0.85333  Biso   1.000  Cu
  Cu6      1.0000 0.79207  0.21827  0.35333  Biso   1.000  Cu
  Cu7      1.0000 0.29207  0.28173  0.64667  Biso   1.000  Cu
  Cu8      1.0000 0.20793  0.71827  0.14667  Biso   1.000  Cu
  Cu9      1.0000 0.57540  0.29585  0.11467  Biso   1.000  Cu
  Cu10     1.0000 0.92460  0.70415  0.61467  Biso   1.000  Cu
  Cu11     1.0000 0.42460  0.79585  0.38533  Biso   1.000  Cu
  Cu12     1.0000 0.07540  0.20415  0.88533  Biso   1.000  Cu
  Cu13     1.0000 0.42460  0.70415  0.88533  Biso   1.000  Cu
  Cu14     1.0000 0.07540  0.29585  0.38533  Biso   1.000  Cu
  Cu15     1.0000 0.57540  0.20415  0.61467  Biso   1.000  Cu
  Cu16     1.0000 0.92460  0.79585  0.11467  Biso   1.000  Cu
  Cu17     1.0000 0.42588  0.44209  0.10509  Biso   1.000  Cu
  Cu18     1.0000 0.07412  0.55791  0.60509  Biso   1.000  Cu
  Cu19     1.0000 0.57412  0.94209  0.39491  Biso   1.000  Cu
  Cu20     1.0000 0.92588  0.05791  0.89491  Biso   1.000  Cu
  Cu21     1.0000 0.57412  0.55791  0.89491  Biso   1.000  Cu
  Cu22     1.0000 0.92588  0.44209  0.39491  Biso   1.000  Cu
  Cu23     1.0000 0.42588  0.05791  0.60509  Biso   1.000  Cu
  Cu24     1.0000 0.07412  0.94209  0.10509  Biso   1.000  Cu
  Cu25     1.0000 0.43321  0.12621  0.08380  Biso   1.000  Cu
  Cu26     1.0000 0.06679  0.87379  0.58380  Biso   1.000  Cu
  Cu27     1.0000 0.56679  0.62621  0.41620  Biso   1.000  Cu
  Cu28     1.0000 0.93321  0.37379  0.91620  Biso   1.000  Cu
  Cu29     1.0000 0.56679  0.87379  0.91620  Biso   1.000  Cu
  Cu30     1.0000 0.93321  0.12621  0.41620  Biso   1.000  Cu
  Cu31     1.0000 0.43321  0.37379  0.58380  Biso   1.000  Cu
  Cu32     1.0000 0.06679  0.62621  0.08380  Biso   1.000  Cu
  Cu33     1.0000 0.65524  0.79321  0.13454  Biso   1.000  Cu
  Cu34     1.0000 0.84476  0.20679  0.63454  Biso   1.000  Cu
  Cu35     1.0000 0.34476  0.29321  0.36546  Biso   1.000  Cu
  Cu36     1.0000 0.15524  0.70679  0.86546  Biso   1.000  Cu
  Cu37     1.0000 0.34476  0.20679  0.86546  Biso   1.000  Cu
  Cu38     1.0000 0.15524  0.79321  0.36546  Biso   1.000  Cu
  Cu39     1.0000 0.65524  0.70679  0.63454  Biso   1.000  Cu
  Cu40     1.0000 0.84476  0.29321  0.13454  Biso   1.000  Cu
  N1       1.0000 0.39861  0.94550  0.10598  Biso   1.000  N
  N2       1.0000 0.10139  0.05450  0.60598  Biso   1.000  N
  N3       1.0000 0.60139  0.44550  0.39402  Biso   1.000  N
  N4       1.0000 0.89861  0.55450  0.89402  Biso   1.000  N
  N5       1.0000 0.60139  0.05450  0.89402  Biso   1.000  N
  N6       1.0000 0.89861  0.94550  0.39402  Biso   1.000  N
  N7       1.0000 0.39861  0.55450  0.60598  Biso   1.000  N
  N8       1.0000 0.10139  0.44550  0.10598  Biso   1.000  N
  C1       1.0000 0.62665  0.98760  0.13124  Biso   1.000  C
  C2       1.0000 0.87335  0.01240  0.63124  Biso   1.000  C
  C3       1.0000 0.37335  0.48760  0.36876  Biso   1.000  C
  C4       1.0000 0.12665  0.51240  0.86876  Biso   1.000  C
  C5       1.0000 0.37335  0.01240  0.86876  Biso   1.000  C
  C6       1.0000 0.12665  0.98760  0.36876  Biso   1.000  C
  C7       1.0000 0.62665  0.51240  0.63124  Biso   1.000  C
  C8       1.0000 0.87335  0.48760  0.13124  Biso   1.000  C
  N9       1.0000 0.34812  0.27890  0.13178  Biso   1.000  N
  N10      1.0000 0.15188  0.72110  0.63178  Biso   1.000  N
  N11      1.0000 0.65188  0.77890  0.36822  Biso   1.000  N
  N12      1.0000 0.84812  0.22110  0.86822  Biso   1.000  N
  N13      1.0000 0.65188  0.72110  0.86822  Biso   1.000  N
  N14      1.0000 0.84812  0.27890  0.36822  Biso   1.000  N
  N15      1.0000 0.34812  0.22110  0.63178  Biso   1.000  N
  N16      1.0000 0.15188  0.77890  0.13178  Biso   1.000  N
  C9       1.0000 0.36963  0.88730  0.08183  Biso   1.000  C
  C10      1.0000 0.13037  0.11270  0.58183  Biso   1.000  C
  C11      1.0000 0.63037  0.38730  0.41817  Biso   1.000  C
  C12      1.0000 0.86963  0.61270  0.91817  Biso   1.000  C
  C13      1.0000 0.63037  0.11270  0.91817  Biso   1.000  C
  C14      1.0000 0.86963  0.88730  0.41817  Biso   1.000  C
  C15      1.0000 0.36963  0.61270  0.58183  Biso   1.000  C
  C16      1.0000 0.13037  0.38730  0.08183  Biso   1.000  C
  C17      1.0000 0.26205  0.02710  0.15134  Biso   1.000  C
  C18      1.0000 0.23795  0.97290  0.65134  Biso   1.000  C
  C19      1.0000 0.73795  0.52710  0.34866  Biso   1.000  C
  C20      1.0000 0.76205  0.47290  0.84866  Biso   1.000  C
  C21      1.0000 0.73795  0.97290  0.84866  Biso   1.000  C
  C22      1.0000 0.76205  0.02710  0.34866  Biso   1.000  C
  C23      1.0000 0.26205  0.47290  0.65134  Biso   1.000  C
  C24      1.0000 0.23795  0.52710  0.15134  Biso   1.000  C
  C25      1.0000 0.48698  0.69280  0.10595  Biso   1.000  C
  C26      1.0000 0.01302  0.30720  0.60595  Biso   1.000  C
  C27      1.0000 0.51302  0.19280  0.39405  Biso   1.000  C
  C28      1.0000 0.98698  0.80720  0.89405  Biso   1.000  C
  C29      1.0000 0.51302  0.30720  0.89405  Biso   1.000  C
  C30      1.0000 0.98698  0.69280  0.39405  Biso   1.000  C
  C31      1.0000 0.48698  0.80720  0.60595  Biso   1.000  C
  C32      1.0000 0.01302  0.19280  0.10595  Biso   1.000  C
  N17      1.0000 0.60739  0.10160  0.12532  Biso   1.000  N
  N18      1.0000 0.89261  0.89840  0.62532  Biso   1.000  N
  N19      1.0000 0.39261  0.60160  0.37468  Biso   1.000  N
  N20      1.0000 0.10739  0.39840  0.87468  Biso   1.000  N
  N21      1.0000 0.39261  0.89840  0.87468  Biso   1.000  N
  N22      1.0000 0.10739  0.10160  0.37468  Biso   1.000  N
  N23      1.0000 0.60739  0.39840  0.62532  Biso   1.000  N
  N24      1.0000 0.89261  0.60160  0.12532  Biso   1.000  N
  N25      1.0000 0.24077  0.91720  0.15297  Biso   1.000  N
  N26      1.0000 0.25923  0.08280  0.65297  Biso   1.000  N
  N27      1.0000 0.75923  0.41720  0.34703  Biso   1.000  N
  N28      1.0000 0.74077  0.58280  0.84703  Biso   1.000  N
  N29      1.0000 0.75923  0.08280  0.84703  Biso   1.000  N
  N30      1.0000 0.74077  0.91720  0.34703  Biso   1.000  N
  N31      1.0000 0.24077  0.58280  0.65297  Biso   1.000  N
  N32      1.0000 0.25923  0.41720  0.15297  Biso   1.000  N
  N33      1.0000 0.69099  0.71010  0.18068  Biso   1.000  N
  N34      1.0000 0.80901  0.28990  0.68068  Biso   1.000  N
  N35      1.0000 0.30901  0.21010  0.31932  Biso   1.000  N
  N36      1.0000 0.19099  0.78990  0.81932  Biso   1.000  N
  N37      1.0000 0.30901  0.28990  0.81932  Biso   1.000  N
  N38      1.0000 0.19099  0.71010  0.31932  Biso   1.000  N
  N39      1.0000 0.69099  0.78990  0.68068  Biso   1.000  N
  N40      1.0000 0.80901  0.21010  0.18068  Biso   1.000  N
  N41      1.0000 0.40027  0.06420  0.03587  Biso   1.000  N
  N42      1.0000 0.09973  0.93580  0.53587  Biso   1.000  N
  N43      1.0000 0.59973  0.56420  0.46413  Biso   1.000  N
  N44      1.0000 0.90027  0.43580  0.96413  Biso   1.000  N
  N45      1.0000 0.59973  0.93580  0.96413  Biso   1.000  N
  N46      1.0000 0.90027  0.06420  0.46413  Biso   1.000  N
  N47      1.0000 0.40027  0.43580  0.53587  Biso   1.000  N
  N48      1.0000 0.09973  0.56420  0.03587  Biso   1.000  N
  N49      1.0000 0.51846  0.24790  0.10208  Biso   1.000  N
  N50      1.0000 0.98154  0.75210  0.60208  Biso   1.000  N
  N51      1.0000 0.48154  0.74790  0.39792  Biso   1.000  N
  N52      1.0000 0.01846  0.25210  0.89792  Biso   1.000  N
  N53      1.0000 0.48154  0.75210  0.89792  Biso   1.000  N
  N54      1.0000 0.01846  0.24790  0.39792  Biso   1.000  N
  N55      1.0000 0.51846  0.25210  0.60208  Biso   1.000  N
  N56      1.0000 0.98154  0.74790  0.10208  Biso   1.000  N
  N57      1.0000 0.46821  0.59350  0.13071  Biso   1.000  N
  N58      1.0000 0.03179  0.40650  0.63071  Biso   1.000  N
  N59      1.0000 0.53179  0.09350  0.36929  Biso   1.000  N
  N60      1.0000 0.96821  0.90650  0.86929  Biso   1.000  N
  N61      1.0000 0.53179  0.40650  0.86929  Biso   1.000  N
  N62      1.0000 0.96821  0.59350  0.36929  Biso   1.000  N
  N63      1.0000 0.46821  0.90650  0.63071  Biso   1.000  N
  N64      1.0000 0.03179  0.09350  0.13071  Biso   1.000  N
  C33      1.0000 0.39785  0.89700  0.14208  Biso   1.000  C
  C34      1.0000 0.10215  0.10300  0.64208  Biso   1.000  C
  C35      1.0000 0.60215  0.39700  0.35792  Biso   1.000  C
  C36      1.0000 0.89785  0.60300  0.85792  Biso   1.000  C
  C37      1.0000 0.60215  0.10300  0.85792  Biso   1.000  C
  C38      1.0000 0.89785  0.89700  0.35792  Biso   1.000  C
  C39      1.0000 0.39785  0.60300  0.64208  Biso   1.000  C
  C40      1.0000 0.10215  0.39700  0.14208  Biso   1.000  C
  H1       1.0000 0.41840  0.93600  0.15830  Biso   1.000  H
  H2       1.0000 0.08160  0.06400  0.65830  Biso   1.000  H
  H3       1.0000 0.58160  0.43600  0.34170  Biso   1.000  H
  H4       1.0000 0.91840  0.56400  0.84170  Biso   1.000  H
  H5       1.0000 0.58160  0.06400  0.84170  Biso   1.000  H
  H6       1.0000 0.91840  0.93600  0.34170  Biso   1.000  H
  H7       1.0000 0.41840  0.56400  0.65830  Biso   1.000  H
  H8       1.0000 0.08160  0.43600  0.15830  Biso   1.000  H
  C41      1.0000 0.48546  0.21080  0.09488  Biso   1.000  C
  C42      1.0000 0.01454  0.78920  0.59488  Biso   1.000  C
  C43      1.0000 0.51454  0.71080  0.40512  Biso   1.000  C
  C44      1.0000 0.98546  0.28920  0.90512  Biso   1.000  C
  C45      1.0000 0.51454  0.78920  0.90512  Biso   1.000  C
  C46      1.0000 0.98546  0.21080  0.40512  Biso   1.000  C
  C47      1.0000 0.48546  0.28920  0.59488  Biso   1.000  C
  C48      1.0000 0.01454  0.71080  0.09488  Biso   1.000  C
  C49      1.0000 0.33932  0.78630  0.09461  Biso   1.000  C
  C50      1.0000 0.16068  0.21370  0.59461  Biso   1.000  C
  C51      1.0000 0.66068  0.28630  0.40539  Biso   1.000  C
  C52      1.0000 0.83932  0.71370  0.90539  Biso   1.000  C
  C53      1.0000 0.66068  0.21370  0.90539  Biso   1.000  C
  C54      1.0000 0.83932  0.78630  0.40539  Biso   1.000  C
  C55      1.0000 0.33932  0.71370  0.59461  Biso   1.000  C
  C56      1.0000 0.16068  0.28630  0.09461  Biso   1.000  C
  H9       1.0000 0.31900  0.75010  0.07770  Biso   1.000  H
  H10      1.0000 0.18100  0.24990  0.57770  Biso   1.000  H
  H11      1.0000 0.68100  0.25010  0.42230  Biso   1.000  H
  H12      1.0000 0.81900  0.74990  0.92230  Biso   1.000  H
  H13      1.0000 0.68100  0.24990  0.92230  Biso   1.000  H
  H14      1.0000 0.81900  0.75010  0.42230  Biso   1.000  H
  H15      1.0000 0.31900  0.74990  0.57770  Biso   1.000  H
  H16      1.0000 0.18100  0.25010  0.07770  Biso   1.000  H
  N65      1.0000 0.71598  0.80660  0.11268  Biso   1.000  N
  N66      1.0000 0.78402  0.19340  0.61268  Biso   1.000  N
  N67      1.0000 0.28402  0.30660  0.38732  Biso   1.000  N
  N68      1.0000 0.21598  0.69340  0.88732  Biso   1.000  N
  N69      1.0000 0.28402  0.19340  0.88732  Biso   1.000  N
  N70      1.0000 0.21598  0.80660  0.38732  Biso   1.000  N
  N71      1.0000 0.71598  0.69340  0.61268  Biso   1.000  N
  N72      1.0000 0.78402  0.30660  0.11268  Biso   1.000  N
  C57      1.0000 0.60120  0.49460  0.11589  Biso   1.000  C
  C58      1.0000 0.89880  0.50540  0.61589  Biso   1.000  C
  C59      1.0000 0.39880  0.99460  0.38411  Biso   1.000  C
  C60      1.0000 0.10120  0.00540  0.88411  Biso   1.000  C
  C61      1.0000 0.39880  0.50540  0.88411  Biso   1.000  C
  C62      1.0000 0.10120  0.49460  0.38411  Biso   1.000  C
  C63      1.0000 0.60120  0.00540  0.61589  Biso   1.000  C
  C64      1.0000 0.89880  0.99460  0.11589  Biso   1.000  C
  C65      1.0000 0.50910  0.70060  0.18255  Biso   1.000  C
  C66      1.0000 0.99090  0.29940  0.68255  Biso   1.000  C
  C67      1.0000 0.49090  0.20060  0.31745  Biso   1.000  C
  C68      1.0000 0.00910  0.79940  0.81745  Biso   1.000  C
  C69      1.0000 0.49090  0.29940  0.81745  Biso   1.000  C
  C70      1.0000 0.00910  0.70060  0.31745  Biso   1.000  C
  C71      1.0000 0.50910  0.79940  0.68255  Biso   1.000  C
  C72      1.0000 0.99090  0.20060  0.18255  Biso   1.000  C
  C73      1.0000 0.47889  0.60030  0.16736  Biso   1.000  C
  C74      1.0000 0.02111  0.39970  0.66736  Biso   1.000  C
  C75      1.0000 0.52111  0.10030  0.33264  Biso   1.000  C
  C76      1.0000 0.97889  0.89970  0.83264  Biso   1.000  C
  C77      1.0000 0.52111  0.39970  0.83264  Biso   1.000  C
  C78      1.0000 0.97889  0.60030  0.33264  Biso   1.000  C
  C79      1.0000 0.47889  0.89970  0.66736  Biso   1.000  C
  C80      1.0000 0.02111  0.10030  0.16736  Biso   1.000  C
  H17      1.0000 0.46510  0.53250  0.18430  Biso   1.000  H
  H18      1.0000 0.03490  0.46750  0.68430  Biso   1.000  H
  H19      1.0000 0.53490  0.03250  0.31570  Biso   1.000  H
  H20      1.0000 0.96510  0.96750  0.81570  Biso   1.000  H
  H21      1.0000 0.53490  0.46750  0.81570  Biso   1.000  H
  H22      1.0000 0.96510  0.53250  0.31570  Biso   1.000  H
  H23      1.0000 0.46510  0.96750  0.68430  Biso   1.000  H
  H24      1.0000 0.03490  0.03250  0.18430  Biso   1.000  H
  C81      1.0000 0.37882  0.33150  0.12120  Biso   1.000  C
  C82      1.0000 0.12118  0.66850  0.62120  Biso   1.000  C
  C83      1.0000 0.62118  0.83150  0.37880  Biso   1.000  C
  C84      1.0000 0.87882  0.16850  0.87880  Biso   1.000  C
  C85      1.0000 0.62118  0.66850  0.87880  Biso   1.000  C
  C86      1.0000 0.87882  0.33150  0.37880  Biso   1.000  C
  C87      1.0000 0.37882  0.16850  0.62120  Biso   1.000  C
  C88      1.0000 0.12118  0.83150  0.12120  Biso   1.000  C
  C89      1.0000 0.37369  0.94390  0.04180  Biso   1.000  C
  C90      1.0000 0.12631  0.05610  0.54180  Biso   1.000  C
  C91      1.0000 0.62631  0.44390  0.45820  Biso   1.000  C
  C92      1.0000 0.87369  0.55610  0.95820  Biso   1.000  C
  C93      1.0000 0.62631  0.05610  0.95820  Biso   1.000  C
  C94      1.0000 0.87369  0.94390  0.45820  Biso   1.000  C
  C95      1.0000 0.37369  0.55610  0.54180  Biso   1.000  C
  C96      1.0000 0.12631  0.44390  0.04180  Biso   1.000  C
  C97      1.0000 0.79813  0.85800  0.09363  Biso   1.000  C
  C98      1.0000 0.70187  0.14200  0.59363  Biso   1.000  C
  C99      1.0000 0.20187  0.35800  0.40637  Biso   1.000  C
  C100     1.0000 0.29813  0.64200  0.90637  Biso   1.000  C
  C101     1.0000 0.20187  0.14200  0.90637  Biso   1.000  C
  C102     1.0000 0.29813  0.85800  0.40637  Biso   1.000  C
  C103     1.0000 0.79813  0.64200  0.59363  Biso   1.000  C
  C104     1.0000 0.70187  0.35800  0.09363  Biso   1.000  C
  H25      1.0000 0.82600  0.87380  0.08760  Biso   1.000  H
  H26      1.0000 0.67400  0.12620  0.58760  Biso   1.000  H
  H27      1.0000 0.17400  0.37380  0.41240  Biso   1.000  H
  H28      1.0000 0.32600  0.62620  0.91240  Biso   1.000  H
  H29      1.0000 0.17400  0.12620  0.91240  Biso   1.000  H
  H30      1.0000 0.32600  0.87380  0.41240  Biso   1.000  H
  H31      1.0000 0.82600  0.62620  0.58760  Biso   1.000  H
  H32      1.0000 0.67400  0.37380  0.08760  Biso   1.000  H
  N73      1.0000 0.62156  0.60640  0.11873  Biso   1.000  N
  N74      1.0000 0.87844  0.39360  0.61873  Biso   1.000  N
  N75      1.0000 0.37844  0.10640  0.38127  Biso   1.000  N
  N76      1.0000 0.12156  0.89360  0.88127  Biso   1.000  N
  N77      1.0000 0.37844  0.39360  0.88127  Biso   1.000  N
  N78      1.0000 0.12156  0.60640  0.38127  Biso   1.000  N
  N79      1.0000 0.62156  0.89360  0.61873  Biso   1.000  N
  N80      1.0000 0.87844  0.10640  0.11873  Biso   1.000  N
  C105     1.0000 0.74613  0.77560  0.13818  Biso   1.000  C
  C106     1.0000 0.75387  0.22440  0.63818  Biso   1.000  C
  C107     1.0000 0.25387  0.27560  0.36182  Biso   1.000  C
  C108     1.0000 0.24613  0.72440  0.86182  Biso   1.000  C
  C109     1.0000 0.25387  0.22440  0.86182  Biso   1.000  C
  C110     1.0000 0.24613  0.77560  0.36182  Biso   1.000  C
  C111     1.0000 0.74613  0.72440  0.63818  Biso   1.000  C
  C112     1.0000 0.75387  0.27560  0.13818  Biso   1.000  C
  C113     1.0000 0.52808  0.80190  0.15633  Biso   1.000  C
  C114     1.0000 0.97192  0.19810  0.65633  Biso   1.000  C
  C115     1.0000 0.47192  0.30190  0.34367  Biso   1.000  C
  C116     1.0000 0.02808  0.69810  0.84367  Biso   1.000  C
  C117     1.0000 0.47192  0.19810  0.84367  Biso   1.000  C
  C118     1.0000 0.02808  0.80190  0.34367  Biso   1.000  C
  C119     1.0000 0.52808  0.69810  0.65633  Biso   1.000  C
  C120     1.0000 0.97192  0.30190  0.15633  Biso   1.000  C
  H33      1.0000 0.54840  0.87300  0.16470  Biso   1.000  H
  H34      1.0000 0.95160  0.12700  0.66470  Biso   1.000  H
  H35      1.0000 0.45160  0.37300  0.33530  Biso   1.000  H
  H36      1.0000 0.04840  0.62700  0.83530  Biso   1.000  H
  H37      1.0000 0.45160  0.12700  0.83530  Biso   1.000  H
  H38      1.0000 0.04840  0.87300  0.33530  Biso   1.000  H
  H39      1.0000 0.54840  0.62700  0.66470  Biso   1.000  H
  H40      1.0000 0.95160  0.37300  0.16470  Biso   1.000  H
  C121     1.0000 0.81251  0.03880  0.01947  Biso   1.000  C
  C122     1.0000 0.68749  0.96120  0.51947  Biso   1.000  C
  C123     1.0000 0.18749  0.53880  0.48053  Biso   1.000  C
  C124     1.0000 0.31251  0.46120  0.98053  Biso   1.000  C
  C125     1.0000 0.18749  0.96120  0.98053  Biso   1.000  C
  C126     1.0000 0.31251  0.03880  0.48053  Biso   1.000  C
  C127     1.0000 0.81251  0.46120  0.51947  Biso   1.000  C
  C128     1.0000 0.68749  0.53880  0.01947  Biso   1.000  C
  H41      1.0000 0.83100  0.06350  0.03910  Biso   1.000  H
  H42      1.0000 0.66900  0.93650  0.53910  Biso   1.000  H
  H43      1.0000 0.16900  0.56350  0.46090  Biso   1.000  H
  H44      1.0000 0.33100  0.43650  0.96090  Biso   1.000  H
  H45      1.0000 0.16900  0.93650  0.96090  Biso   1.000  H
  H46      1.0000 0.33100  0.06350  0.46090  Biso   1.000  H
  H47      1.0000 0.83100  0.43650  0.53910  Biso   1.000  H
  H48      1.0000 0.66900  0.56350  0.03910  Biso   1.000  H
  C129     1.0000 0.78763  0.80380  0.12873  Biso   1.000  C
  C130     1.0000 0.71237  0.19620  0.62873  Biso   1.000  C
  C131     1.0000 0.21237  0.30380  0.37127  Biso   1.000  C
  C132     1.0000 0.28763  0.69620  0.87127  Biso   1.000  C
  C133     1.0000 0.21237  0.19620  0.87127  Biso   1.000  C
  C134     1.0000 0.28763  0.80380  0.37127  Biso   1.000  C
  C135     1.0000 0.78763  0.69620  0.62873  Biso   1.000  C
  C136     1.0000 0.71237  0.30380  0.12873  Biso   1.000  C
  H49      1.0000 0.80830  0.78500  0.14690  Biso   1.000  H
  H50      1.0000 0.69170  0.21500  0.64690  Biso   1.000  H
  H51      1.0000 0.19170  0.28500  0.35310  Biso   1.000  H
  H52      1.0000 0.30830  0.71500  0.85310  Biso   1.000  H
  H53      1.0000 0.19170  0.21500  0.85310  Biso   1.000  H
  H54      1.0000 0.30830  0.78500  0.35310  Biso   1.000  H
  H55      1.0000 0.80830  0.71500  0.64690  Biso   1.000  H
  H56      1.0000 0.69170  0.28500  0.14690  Biso   1.000  H
  C137     1.0000 0.76785  0.89080  0.06620  Biso   1.000  C
  C138     1.0000 0.73215  0.10920  0.56620  Biso   1.000  C
  C139     1.0000 0.23215  0.39080  0.43380  Biso   1.000  C
  C140     1.0000 0.26785  0.60920  0.93380  Biso   1.000  C
  C141     1.0000 0.23215  0.10920  0.93380  Biso   1.000  C
  C142     1.0000 0.26785  0.89080  0.43380  Biso   1.000  C
  C143     1.0000 0.76785  0.60920  0.56620  Biso   1.000  C
  C144     1.0000 0.73215  0.39080  0.06620  Biso   1.000  C
  C145     1.0000 0.35257  0.87450  0.01122  Biso   1.000  C
  C146     1.0000 0.14743  0.12550  0.51122  Biso   1.000  C
  C147     1.0000 0.64743  0.37450  0.48878  Biso   1.000  C
  C148     1.0000 0.85257  0.62550  0.98878  Biso   1.000  C
  C149     1.0000 0.64743  0.12550  0.98878  Biso   1.000  C
  C150     1.0000 0.85257  0.87450  0.48878  Biso   1.000  C
  C151     1.0000 0.35257  0.62550  0.51122  Biso   1.000  C
  C152     1.0000 0.14743  0.37450  0.01122  Biso   1.000  C
  H57      1.0000 0.33390  0.79120  0.01540  Biso   1.000  H
  H58      1.0000 0.16610  0.20880  0.51540  Biso   1.000  H
  H59      1.0000 0.66610  0.29120  0.48460  Biso   1.000  H
  H60      1.0000 0.83390  0.70880  0.98460  Biso   1.000  H
  H61      1.0000 0.66610  0.20880  0.98460  Biso   1.000  H
  H62      1.0000 0.83390  0.79120  0.48460  Biso   1.000  H
  H63      1.0000 0.33390  0.70880  0.51540  Biso   1.000  H
  H64      1.0000 0.16610  0.29120  0.01540  Biso   1.000  H
  C153     1.0000 0.36864  0.79210  0.15779  Biso   1.000  C
  C154     1.0000 0.13136  0.20790  0.65779  Biso   1.000  C
  C155     1.0000 0.63136  0.29210  0.34221  Biso   1.000  C
  C156     1.0000 0.86864  0.70790  0.84221  Biso   1.000  C
  C157     1.0000 0.63136  0.20790  0.84221  Biso   1.000  C
  C158     1.0000 0.86864  0.79210  0.34221  Biso   1.000  C
  C159     1.0000 0.36864  0.70790  0.65779  Biso   1.000  C
  C160     1.0000 0.13136  0.29210  0.15779  Biso   1.000  C
  C161     1.0000 0.51951  0.70170  0.22369  Biso   1.000  C
  C162     1.0000 0.98049  0.29830  0.72369  Biso   1.000  C
  C163     1.0000 0.48049  0.20170  0.27631  Biso   1.000  C
  C164     1.0000 0.01951  0.79830  0.77631  Biso   1.000  C
  C165     1.0000 0.48049  0.29830  0.77631  Biso   1.000  C
  C166     1.0000 0.01951  0.70170  0.27631  Biso   1.000  C
  C167     1.0000 0.51951  0.79830  0.72369  Biso   1.000  C
  C168     1.0000 0.98049  0.20170  0.22369  Biso   1.000  C
  C169     1.0000 0.47349  0.68140  0.06576  Biso   1.000  C
  C170     1.0000 0.02651  0.31860  0.56576  Biso   1.000  C
  C171     1.0000 0.52651  0.18140  0.43424  Biso   1.000  C
  C172     1.0000 0.97349  0.81860  0.93424  Biso   1.000  C
  C173     1.0000 0.52651  0.31860  0.93424  Biso   1.000  C
  C174     1.0000 0.97349  0.68140  0.43424  Biso   1.000  C
  C175     1.0000 0.47349  0.81860  0.56576  Biso   1.000  C
  C176     1.0000 0.02651  0.18140  0.06576  Biso   1.000  C
  C177     1.0000 0.75103  0.91570  0.99717  Biso   1.000  C
  C178     1.0000 0.74897  0.08430  0.49717  Biso   1.000  C
  C179     1.0000 0.24897  0.41570  0.50283  Biso   1.000  C
  C180     1.0000 0.25103  0.58430  0.00283  Biso   1.000  C
  C181     1.0000 0.24897  0.08430  0.00283  Biso   1.000  C
  C182     1.0000 0.25103  0.91570  0.50283  Biso   1.000  C
  C183     1.0000 0.75103  0.58430  0.49717  Biso   1.000  C
  C184     1.0000 0.74897  0.41570  0.99717  Biso   1.000  C
  H65      1.0000 0.72720  0.85540  0.00180  Biso   1.000  H
  H66      1.0000 0.77280  0.14460  0.50180  Biso   1.000  H
  H67      1.0000 0.27280  0.35540  0.49820  Biso   1.000  H
  H68      1.0000 0.22720  0.64460  0.99820  Biso   1.000  H
  H69      1.0000 0.27280  0.14460  0.99820  Biso   1.000  H
  H70      1.0000 0.22720  0.85540  0.49820  Biso   1.000  H
  H71      1.0000 0.72720  0.64460  0.50180  Biso   1.000  H
  H72      1.0000 0.77280  0.35540  0.00180  Biso   1.000  H
  C185     1.0000 0.72712  0.86210  0.07856  Biso   1.000  C
  C186     1.0000 0.77288  0.13790  0.57856  Biso   1.000  C
  C187     1.0000 0.27288  0.36210  0.42144  Biso   1.000  C
  C188     1.0000 0.22712  0.63790  0.92144  Biso   1.000  C
  C189     1.0000 0.27288  0.13790  0.92144  Biso   1.000  C
  C190     1.0000 0.22712  0.86210  0.42144  Biso   1.000  C
  C191     1.0000 0.72712  0.63790  0.57856  Biso   1.000  C
  C192     1.0000 0.77288  0.36210  0.07856  Biso   1.000  C
  H73      1.0000 0.70590  0.88410  0.06120  Biso   1.000  H
  H74      1.0000 0.79410  0.11590  0.56120  Biso   1.000  H
  H75      1.0000 0.29410  0.38410  0.43880  Biso   1.000  H
  H76      1.0000 0.20590  0.61590  0.93880  Biso   1.000  H
  H77      1.0000 0.29410  0.11590  0.93880  Biso   1.000  H
  H78      1.0000 0.20590  0.88410  0.43880  Biso   1.000  H
  H79      1.0000 0.70590  0.61590  0.56120  Biso   1.000  H
  H80      1.0000 0.79410  0.38410  0.06120  Biso   1.000  H
  C193     1.0000 0.73229  0.71330  0.17556  Biso   1.000  C
  C194     1.0000 0.76771  0.28670  0.67556  Biso   1.000  C
  C195     1.0000 0.26771  0.21330  0.32444  Biso   1.000  C
  C196     1.0000 0.23229  0.78670  0.82444  Biso   1.000  C
  C197     1.0000 0.26771  0.28670  0.82444  Biso   1.000  C
  C198     1.0000 0.23229  0.71330  0.32444  Biso   1.000  C
  C199     1.0000 0.73229  0.78670  0.67556  Biso   1.000  C
  C200     1.0000 0.76771  0.21330  0.17556  Biso   1.000  C
  C201     1.0000 0.33865  0.73740  0.13250  Biso   1.000  C
  C202     1.0000 0.16135  0.26260  0.63250  Biso   1.000  C
  C203     1.0000 0.66135  0.23740  0.36750  Biso   1.000  C
  C204     1.0000 0.83865  0.76260  0.86750  Biso   1.000  C
  C205     1.0000 0.66135  0.26260  0.86750  Biso   1.000  C
  C206     1.0000 0.83865  0.73740  0.36750  Biso   1.000  C
  C207     1.0000 0.33865  0.76260  0.63250  Biso   1.000  C
  C208     1.0000 0.16135  0.23740  0.13250  Biso   1.000  C
  H81      1.0000 0.31810  0.66770  0.14100  Biso   1.000  H
  H82      1.0000 0.18190  0.33230  0.64100  Biso   1.000  H
  H83      1.0000 0.68190  0.16770  0.35900  Biso   1.000  H
  H84      1.0000 0.81810  0.83230  0.85900  Biso   1.000  H
  H85      1.0000 0.68190  0.33230  0.85900  Biso   1.000  H
  H86      1.0000 0.81810  0.66770  0.35900  Biso   1.000  H
  H87      1.0000 0.31810  0.83230  0.64100  Biso   1.000  H
  H88      1.0000 0.18190  0.16770  0.14100  Biso   1.000  H
  C209     1.0000 0.82026  0.09170  0.98270  Biso   1.000  C
  C210     1.0000 0.67974  0.90830  0.48270  Biso   1.000  C
  C211     1.0000 0.17974  0.59170  0.51730  Biso   1.000  C
  C212     1.0000 0.32026  0.40830  0.01730  Biso   1.000  C
  C213     1.0000 0.17974  0.90830  0.01730  Biso   1.000  C
  C214     1.0000 0.32026  0.09170  0.51730  Biso   1.000  C
  C215     1.0000 0.82026  0.40830  0.48270  Biso   1.000  C
  C216     1.0000 0.67974  0.59170  0.98270  Biso   1.000  C
  H89      1.0000 0.84390  0.15230  0.97790  Biso   1.000  H
  H90      1.0000 0.65610  0.84770  0.47790  Biso   1.000  H
  H91      1.0000 0.15610  0.65230  0.52210  Biso   1.000  H
  H92      1.0000 0.34390  0.34770  0.02210  Biso   1.000  H
  H93      1.0000 0.15610  0.84770  0.02210  Biso   1.000  H
  H94      1.0000 0.34390  0.15230  0.52210  Biso   1.000  H
  H95      1.0000 0.84390  0.34770  0.47790  Biso   1.000  H
  H96      1.0000 0.65610  0.65230  0.97790  Biso   1.000  H
  N81      1.0000 0.44479  0.56950  0.05824  Biso   1.000  N
  N82      1.0000 0.05521  0.43050  0.55824  Biso   1.000  N
  N83      1.0000 0.55521  0.06950  0.44176  Biso   1.000  N
  N84      1.0000 0.94479  0.93050  0.94176  Biso   1.000  N
  N85      1.0000 0.55521  0.43050  0.94176  Biso   1.000  N
  N86      1.0000 0.94479  0.56950  0.44176  Biso   1.000  N
  N87      1.0000 0.44479  0.93050  0.55824  Biso   1.000  N
  N88      1.0000 0.05521  0.06950  0.05824  Biso   1.000  N
  C217     1.0000 0.77700  0.94810  0.02745  Biso   1.000  C
  C218     1.0000 0.72300  0.05190  0.52745  Biso   1.000  C
  C219     1.0000 0.22300  0.44810  0.47255  Biso   1.000  C
  C220     1.0000 0.27700  0.55190  0.97255  Biso   1.000  C
  C221     1.0000 0.22300  0.05190  0.97255  Biso   1.000  C
  C222     1.0000 0.27700  0.94810  0.47255  Biso   1.000  C
  C223     1.0000 0.77700  0.55190  0.52745  Biso   1.000  C
  C224     1.0000 0.72300  0.44810  0.02745  Biso   1.000  C
  C225     1.0000 0.56850  0.74900  0.27470  Biso   1.000  C
  C226     1.0000 0.93150  0.25100  0.77470  Biso   1.000  C
  C227     1.0000 0.43150  0.24900  0.22530  Biso   1.000  C
  C228     1.0000 0.06850  0.75100  0.72530  Biso   1.000  C
  C229     1.0000 0.43150  0.25100  0.72530  Biso   1.000  C
  C230     1.0000 0.06850  0.74900  0.22530  Biso   1.000  C
  C231     1.0000 0.56850  0.75100  0.77470  Biso   1.000  C
  C232     1.0000 0.93150  0.24900  0.27470  Biso   1.000  C
  H97      1.0000 0.59500  0.77910  0.28270  Biso   1.000  H
  H98      1.0000 0.90500  0.22090  0.78270  Biso   1.000  H
  H99      1.0000 0.40500  0.27910  0.21730  Biso   1.000  H
  H100     1.0000 0.09500  0.72090  0.71730  Biso   1.000  H
  H101     1.0000 0.40500  0.22090  0.71730  Biso   1.000  H
  H102     1.0000 0.09500  0.77910  0.21730  Biso   1.000  H
  H103     1.0000 0.59500  0.72090  0.78270  Biso   1.000  H
  H104     1.0000 0.90500  0.27910  0.28270  Biso   1.000  H
  C233     1.0000 0.51730  0.79870  0.11825  Biso   1.000  C
  C234     1.0000 0.98270  0.20130  0.61825  Biso   1.000  C
  C235     1.0000 0.48270  0.29870  0.38175  Biso   1.000  C
  C236     1.0000 0.01730  0.70130  0.88175  Biso   1.000  C
  C237     1.0000 0.48270  0.20130  0.88175  Biso   1.000  C
  C238     1.0000 0.01730  0.79870  0.38175  Biso   1.000  C
  C239     1.0000 0.51730  0.70130  0.61825  Biso   1.000  C
  C240     1.0000 0.98270  0.29870  0.11825  Biso   1.000  C
  H105     1.0000 0.53020  0.86710  0.10090  Biso   1.000  H
  H106     1.0000 0.96980  0.13290  0.60090  Biso   1.000  H
  H107     1.0000 0.46980  0.36710  0.39910  Biso   1.000  H
  H108     1.0000 0.03020  0.63290  0.89910  Biso   1.000  H
  H109     1.0000 0.46980  0.13290  0.89910  Biso   1.000  H
  H110     1.0000 0.03020  0.86710  0.39910  Biso   1.000  H
  H111     1.0000 0.53020  0.63290  0.60090  Biso   1.000  H
  H112     1.0000 0.96980  0.36710  0.10090  Biso   1.000  H
  C241     1.0000 0.55874  0.74620  0.23649  Biso   1.000  C
  C242     1.0000 0.94126  0.25380  0.73649  Biso   1.000  C
  C243     1.0000 0.44126  0.24620  0.26351  Biso   1.000  C
  C244     1.0000 0.05874  0.75380  0.76351  Biso   1.000  C
  C245     1.0000 0.44126  0.25380  0.76351  Biso   1.000  C
  C246     1.0000 0.05874  0.74620  0.26351  Biso   1.000  C
  C247     1.0000 0.55874  0.75380  0.73649  Biso   1.000  C
  C248     1.0000 0.94126  0.24620  0.23649  Biso   1.000  C
  H113     1.0000 0.57890  0.77490  0.21860  Biso   1.000  H
  H114     1.0000 0.92110  0.22510  0.71860  Biso   1.000  H
  H115     1.0000 0.42110  0.27490  0.28140  Biso   1.000  H
  H116     1.0000 0.07890  0.72510  0.78140  Biso   1.000  H
  H117     1.0000 0.42110  0.22510  0.78140  Biso   1.000  H
  H118     1.0000 0.07890  0.77490  0.28140  Biso   1.000  H
  H119     1.0000 0.57890  0.72510  0.71860  Biso   1.000  H
  H120     1.0000 0.92110  0.27490  0.21860  Biso   1.000  H
  C249     1.0000 0.43204  0.55250  0.02189  Biso   1.000  C
  C250     1.0000 0.06796  0.44750  0.52189  Biso   1.000  C
  C251     1.0000 0.56796  0.05250  0.47811  Biso   1.000  C
  C252     1.0000 0.93204  0.94750  0.97811  Biso   1.000  C
  C253     1.0000 0.56796  0.44750  0.97811  Biso   1.000  C
  C254     1.0000 0.93204  0.55250  0.47811  Biso   1.000  C
  C255     1.0000 0.43204  0.94750  0.52189  Biso   1.000  C
  C256     1.0000 0.06796  0.05250  0.02189  Biso   1.000  C
  H121     1.0000 0.41180  0.47600  0.01680  Biso   1.000  H
  H122     1.0000 0.08820  0.52400  0.51680  Biso   1.000  H
  H123     1.0000 0.58820  0.97600  0.48320  Biso   1.000  H
  H124     1.0000 0.91180  0.02400  0.98320  Biso   1.000  H
  H125     1.0000 0.58820  0.52400  0.98320  Biso   1.000  H
  H126     1.0000 0.91180  0.47600  0.48320  Biso   1.000  H
  H127     1.0000 0.41180  0.02400  0.51680  Biso   1.000  H
  H128     1.0000 0.08820  0.97600  0.01680  Biso   1.000  H
  C257     1.0000 0.48883  0.77690  0.03678  Biso   1.000  C
  C258     1.0000 0.01117  0.22310  0.53678  Biso   1.000  C
  C259     1.0000 0.51117  0.27690  0.46322  Biso   1.000  C
  C260     1.0000 0.98883  0.72310  0.96322  Biso   1.000  C
  C261     1.0000 0.51117  0.22310  0.96322  Biso   1.000  C
  C262     1.0000 0.98883  0.77690  0.46322  Biso   1.000  C
  C263     1.0000 0.48883  0.72310  0.53678  Biso   1.000  C
  C264     1.0000 0.01117  0.27690  0.03678  Biso   1.000  C
  H129     1.0000 0.50800  0.85660  0.04250  Biso   1.000  H
  H130     1.0000 0.99200  0.14340  0.54250  Biso   1.000  H
  H131     1.0000 0.49200  0.35660  0.45750  Biso   1.000  H
  H132     1.0000 0.00800  0.64340  0.95750  Biso   1.000  H
  H133     1.0000 0.49200  0.14340  0.95750  Biso   1.000  H
  H134     1.0000 0.00800  0.85660  0.45750  Biso   1.000  H
  H135     1.0000 0.50800  0.64340  0.54250  Biso   1.000  H
  H136     1.0000 0.99200  0.35660  0.04250  Biso   1.000  H
  C265     1.0000 0.40649  0.11560  0.00006  Biso   1.000  C
  C266     1.0000 0.09351  0.88440  0.50006  Biso   1.000  C
  C267     1.0000 0.59351  0.61560  0.49994  Biso   1.000  C
  C268     1.0000 0.90649  0.38440  0.99994  Biso   1.000  C
  C269     1.0000 0.59351  0.88440  0.99994  Biso   1.000  C
  C270     1.0000 0.90649  0.11560  0.49994  Biso   1.000  C
  C271     1.0000 0.40649  0.38440  0.50006  Biso   1.000  C
  C272     1.0000 0.09351  0.61560  0.00006  Biso   1.000  C
  H137     1.0000 0.42550  0.19790  0.99620  Biso   1.000  H
  H138     1.0000 0.07450  0.80210  0.49620  Biso   1.000  H
  H139     1.0000 0.57450  0.69790  0.50380  Biso   1.000  H
  H140     1.0000 0.92550  0.30210  0.00380  Biso   1.000  H
  H141     1.0000 0.57450  0.80210  0.00380  Biso   1.000  H
  H142     1.0000 0.92550  0.19790  0.50380  Biso   1.000  H
  H143     1.0000 0.42550  0.30210  0.49620  Biso   1.000  H
  H144     1.0000 0.07450  0.69790  0.99620  Biso   1.000  H
  C273     1.0000 0.36960  0.74500  0.19858  Biso   1.000  C
  C274     1.0000 0.13040  0.25500  0.69858  Biso   1.000  C
  C275     1.0000 0.63040  0.24500  0.30142  Biso   1.000  C
  C276     1.0000 0.86960  0.75500  0.80142  Biso   1.000  C
  C277     1.0000 0.63040  0.25500  0.80142  Biso   1.000  C
  C278     1.0000 0.86960  0.74500  0.30142  Biso   1.000  C
  C279     1.0000 0.36960  0.75500  0.69858  Biso   1.000  C
  C280     1.0000 0.13040  0.24500  0.19858  Biso   1.000  C
  C281     1.0000 0.38641  0.05410  0.96843  Biso   1.000  C
  C282     1.0000 0.11359  0.94590  0.46843  Biso   1.000  C
  C283     1.0000 0.61359  0.55410  0.53157  Biso   1.000  C
  C284     1.0000 0.88641  0.44590  0.03157  Biso   1.000  C
  C285     1.0000 0.61359  0.94590  0.03157  Biso   1.000  C
  C286     1.0000 0.88641  0.05410  0.53157  Biso   1.000  C
  C287     1.0000 0.38641  0.44590  0.46843  Biso   1.000  C
  C288     1.0000 0.11359  0.55410  0.96843  Biso   1.000  C
  H145     1.0000 0.39090  0.09440  0.94390  Biso   1.000  H
  H146     1.0000 0.10910  0.90560  0.44390  Biso   1.000  H
  H147     1.0000 0.60910  0.59440  0.55610  Biso   1.000  H
  H148     1.0000 0.89090  0.40560  0.05610  Biso   1.000  H
  H149     1.0000 0.60910  0.90560  0.05610  Biso   1.000  H
  H150     1.0000 0.89090  0.09440  0.55610  Biso   1.000  H
  H151     1.0000 0.39090  0.40560  0.44390  Biso   1.000  H
  H152     1.0000 0.10910  0.59440  0.94390  Biso   1.000  H
  C289     1.0000 0.47620  0.75570  0.99972  Biso   1.000  C
  C290     1.0000 0.02380  0.24430  0.49972  Biso   1.000  C
  C291     1.0000 0.52380  0.25570  0.50028  Biso   1.000  C
  C292     1.0000 0.97620  0.74430  0.00028  Biso   1.000  C
  C293     1.0000 0.52380  0.24430  0.00028  Biso   1.000  C
  C294     1.0000 0.97620  0.75570  0.50028  Biso   1.000  C
  C295     1.0000 0.47620  0.74430  0.49972  Biso   1.000  C
  C296     1.0000 0.02380  0.25570  0.99972  Biso   1.000  C
  H153     1.0000 0.48730  0.81840  0.98020  Biso   1.000  H
  H154     1.0000 0.01270  0.18160  0.48020  Biso   1.000  H
  H155     1.0000 0.51270  0.31840  0.51980  Biso   1.000  H
  H156     1.0000 0.98730  0.68160  0.01980  Biso   1.000  H
  H157     1.0000 0.51270  0.18160  0.01980  Biso   1.000  H
  H158     1.0000 0.98730  0.81840  0.51980  Biso   1.000  H
  H159     1.0000 0.48730  0.68160  0.48020  Biso   1.000  H
  H160     1.0000 0.01270  0.31840  0.98020  Biso   1.000  H
  C297     1.0000 0.70150  0.59430  0.24280  Biso   1.000  C
  C298     1.0000 0.79850  0.40570  0.74280  Biso   1.000  C
  C299     1.0000 0.29850  0.09430  0.25720  Biso   1.000  C
  C300     1.0000 0.20150  0.90570  0.75720  Biso   1.000  C
  C301     1.0000 0.29850  0.40570  0.75720  Biso   1.000  C
  C302     1.0000 0.20150  0.59430  0.25720  Biso   1.000  C
  C303     1.0000 0.70150  0.90570  0.74280  Biso   1.000  C
  C304     1.0000 0.79850  0.09430  0.24280  Biso   1.000  C
  H161     1.0000 0.69000  0.55660  0.26560  Biso   1.000  H
  H162     1.0000 0.81000  0.44340  0.76560  Biso   1.000  H
  H163     1.0000 0.31000  0.05660  0.23440  Biso   1.000  H
  H164     1.0000 0.19000  0.94340  0.73440  Biso   1.000  H
  H165     1.0000 0.31000  0.44340  0.73440  Biso   1.000  H
  H166     1.0000 0.19000  0.55660  0.23440  Biso   1.000  H
  H167     1.0000 0.69000  0.94340  0.76560  Biso   1.000  H
  H168     1.0000 0.81000  0.05660  0.26560  Biso   1.000  H
  C305     1.0000 0.35350  0.60010  0.21060  Biso   1.000  C
  C306     1.0000 0.14650  0.39990  0.71060  Biso   1.000  C
  C307     1.0000 0.64650  0.10010  0.28940  Biso   1.000  C
  C308     1.0000 0.85350  0.89990  0.78940  Biso   1.000  C
  C309     1.0000 0.64650  0.39990  0.78940  Biso   1.000  C
  C310     1.0000 0.85350  0.60010  0.28940  Biso   1.000  C
  C311     1.0000 0.35350  0.89990  0.71060  Biso   1.000  C
  C312     1.0000 0.14650  0.10010  0.21060  Biso   1.000  C
  H169     1.0000 0.34170  0.53060  0.19280  Biso   1.000  H
  H170     1.0000 0.15830  0.46940  0.69280  Biso   1.000  H
  H171     1.0000 0.65830  0.03060  0.30720  Biso   1.000  H
  H172     1.0000 0.84170  0.96940  0.80720  Biso   1.000  H
  H173     1.0000 0.65830  0.46940  0.80720  Biso   1.000  H
  H174     1.0000 0.84170  0.53060  0.30720  Biso   1.000  H
  H175     1.0000 0.34170  0.96940  0.69280  Biso   1.000  H
  H176     1.0000 0.15830  0.03060  0.19280  Biso   1.000  H
  C313     1.0000 0.53900  0.70730  0.30098  Biso   1.000  C
  C314     1.0000 0.96100  0.29270  0.80098  Biso   1.000  C
  C315     1.0000 0.46100  0.20730  0.19902  Biso   1.000  C
  C316     1.0000 0.03900  0.79270  0.69902  Biso   1.000  C
  C317     1.0000 0.46100  0.29270  0.69902  Biso   1.000  C
  C318     1.0000 0.03900  0.70730  0.19902  Biso   1.000  C
  C319     1.0000 0.53900  0.79270  0.80098  Biso   1.000  C
  C320     1.0000 0.96100  0.20730  0.30098  Biso   1.000  C
  H177     1.0000 0.54560  0.70820  0.32700  Biso   1.000  H
  H178     1.0000 0.95440  0.29180  0.82700  Biso   1.000  H
  H179     1.0000 0.45440  0.20820  0.17300  Biso   1.000  H
  H180     1.0000 0.04560  0.79180  0.67300  Biso   1.000  H
  H181     1.0000 0.45440  0.29180  0.67300  Biso   1.000  H
  H182     1.0000 0.04560  0.70820  0.17300  Biso   1.000  H
  H183     1.0000 0.54560  0.79180  0.82700  Biso   1.000  H
  H184     1.0000 0.95440  0.20820  0.32700  Biso   1.000  H
  C321     1.0000 0.79360  0.05640  0.95340  Biso   1.000  C
  C322     1.0000 0.70640  0.94360  0.45340  Biso   1.000  C
  C323     1.0000 0.20640  0.55640  0.54660  Biso   1.000  C
  C324     1.0000 0.29360  0.44360  0.04660  Biso   1.000  C
  C325     1.0000 0.20640  0.94360  0.04660  Biso   1.000  C
  C326     1.0000 0.29360  0.05640  0.54660  Biso   1.000  C
  C327     1.0000 0.79360  0.44360  0.45340  Biso   1.000  C
  C328     1.0000 0.70640  0.55640  0.95340  Biso   1.000  C
  H185     1.0000 0.79930  0.09220  0.92860  Biso   1.000  H
  H186     1.0000 0.70070  0.90780  0.42860  Biso   1.000  H
  H187     1.0000 0.20070  0.59220  0.57140  Biso   1.000  H
  H188     1.0000 0.29930  0.40780  0.07140  Biso   1.000  H
  H189     1.0000 0.20070  0.90780  0.07140  Biso   1.000  H
  H190     1.0000 0.29930  0.09220  0.57140  Biso   1.000  H
  H191     1.0000 0.79930  0.40780  0.42860  Biso   1.000  H
  H192     1.0000 0.70070  0.59220  0.92860  Biso   1.000  H
  C329     1.0000 0.75837  0.96770  0.96047  Biso   1.000  C
  C330     1.0000 0.74163  0.03230  0.46047  Biso   1.000  C
  C331     1.0000 0.24163  0.46770  0.53953  Biso   1.000  C
  C332     1.0000 0.25837  0.53230  0.03953  Biso   1.000  C
  C333     1.0000 0.24163  0.03230  0.03953  Biso   1.000  C
  C334     1.0000 0.25837  0.96770  0.53953  Biso   1.000  C
  C335     1.0000 0.75837  0.53230  0.46047  Biso   1.000  C
  C336     1.0000 0.74163  0.46770  0.96047  Biso   1.000  C
  H193     1.0000 0.73990  0.94340  0.94080  Biso   1.000  H
  H194     1.0000 0.76010  0.05660  0.44080  Biso   1.000  H
  H195     1.0000 0.26010  0.44340  0.55920  Biso   1.000  H
  H196     1.0000 0.23990  0.55660  0.05920  Biso   1.000  H
  H197     1.0000 0.26010  0.05660  0.05920  Biso   1.000  H
  H198     1.0000 0.23990  0.94340  0.55920  Biso   1.000  H
  H199     1.0000 0.73990  0.55660  0.44080  Biso   1.000  H
  H200     1.0000 0.76010  0.44340  0.94080  Biso   1.000  H
  C337     1.0000 0.49049  0.66070  0.25143  Biso   1.000  C
  C338     1.0000 0.00951  0.33930  0.75143  Biso   1.000  C
  C339     1.0000 0.50951  0.16070  0.24857  Biso   1.000  C
  C340     1.0000 0.99049  0.83930  0.74857  Biso   1.000  C
  C341     1.0000 0.50951  0.33930  0.74857  Biso   1.000  C
  C342     1.0000 0.99049  0.66070  0.24857  Biso   1.000  C
  C343     1.0000 0.49049  0.83930  0.75143  Biso   1.000  C
  C344     1.0000 0.00951  0.16070  0.25143  Biso   1.000  C
  H201     1.0000 0.46390  0.63000  0.24390  Biso   1.000  H
  H202     1.0000 0.03610  0.37000  0.74390  Biso   1.000  H
  H203     1.0000 0.53610  0.13000  0.25610  Biso   1.000  H
  H204     1.0000 0.96390  0.87000  0.75610  Biso   1.000  H
  H205     1.0000 0.53610  0.37000  0.75610  Biso   1.000  H
  H206     1.0000 0.96390  0.63000  0.25610  Biso   1.000  H
  H207     1.0000 0.46390  0.87000  0.74390  Biso   1.000  H
  H208     1.0000 0.03610  0.13000  0.24390  Biso   1.000  H
  C345     1.0000 0.35500  0.55870  0.24880  Biso   1.000  C
  C346     1.0000 0.14500  0.44130  0.74880  Biso   1.000  C
  C347     1.0000 0.64500  0.05870  0.25120  Biso   1.000  C
  C348     1.0000 0.85500  0.94130  0.75120  Biso   1.000  C
  C349     1.0000 0.64500  0.44130  0.75120  Biso   1.000  C
  C350     1.0000 0.85500  0.55870  0.25120  Biso   1.000  C
  C351     1.0000 0.35500  0.94130  0.74880  Biso   1.000  C
  C352     1.0000 0.14500  0.05870  0.24880  Biso   1.000  C
  H209     1.0000 0.34380  0.46170  0.25670  Biso   1.000  H
  H210     1.0000 0.15620  0.53830  0.75670  Biso   1.000  H
  H211     1.0000 0.65620  0.96170  0.24330  Biso   1.000  H
  H212     1.0000 0.84380  0.03830  0.74330  Biso   1.000  H
  H213     1.0000 0.65620  0.53830  0.74330  Biso   1.000  H
  H214     1.0000 0.84380  0.46170  0.24330  Biso   1.000  H
  H215     1.0000 0.34380  0.03830  0.75670  Biso   1.000  H
  H216     1.0000 0.15620  0.96170  0.25670  Biso   1.000  H
  C353     1.0000 0.44699  0.64120  0.99160  Biso   1.000  C
  C354     1.0000 0.05301  0.35880  0.49160  Biso   1.000  C
  C355     1.0000 0.55301  0.14120  0.50840  Biso   1.000  C
  C356     1.0000 0.94699  0.85880  0.00840  Biso   1.000  C
  C357     1.0000 0.55301  0.35880  0.00840  Biso   1.000  C
  C358     1.0000 0.94699  0.64120  0.50840  Biso   1.000  C
  C359     1.0000 0.44699  0.85880  0.49160  Biso   1.000  C
  C360     1.0000 0.05301  0.14120  0.99160  Biso   1.000  C
  H217     1.0000 0.43770  0.62410  0.96670  Biso   1.000  H
  H218     1.0000 0.06230  0.37590  0.46670  Biso   1.000  H
  H219     1.0000 0.56230  0.12410  0.53330  Biso   1.000  H
  H220     1.0000 0.93770  0.87590  0.03330  Biso   1.000  H
  H221     1.0000 0.56230  0.37590  0.03330  Biso   1.000  H
  H222     1.0000 0.93770  0.62410  0.53330  Biso   1.000  H
  H223     1.0000 0.43770  0.87590  0.46670  Biso   1.000  H
  H224     1.0000 0.06230  0.12410  0.96670  Biso   1.000  H
  C361     1.0000 0.37250  0.65690  0.27490  Biso   1.000  C
  C362     1.0000 0.12750  0.34310  0.77490  Biso   1.000  C
  C363     1.0000 0.62750  0.15690  0.22510  Biso   1.000  C
  C364     1.0000 0.87250  0.84310  0.72510  Biso   1.000  C
  C365     1.0000 0.62750  0.34310  0.72510  Biso   1.000  C
  C366     1.0000 0.87250  0.65690  0.22510  Biso   1.000  C
  C367     1.0000 0.37250  0.84310  0.77490  Biso   1.000  C
  C368     1.0000 0.12750  0.15690  0.27490  Biso   1.000  C
  H225     1.0000 0.37390  0.62640  0.30060  Biso   1.000  H
  H226     1.0000 0.12610  0.37360  0.80060  Biso   1.000  H
  H227     1.0000 0.62610  0.12640  0.19940  Biso   1.000  H
  H228     1.0000 0.87390  0.87360  0.69940  Biso   1.000  H
  H229     1.0000 0.62610  0.37360  0.69940  Biso   1.000  H
  H230     1.0000 0.87390  0.62640  0.19940  Biso   1.000  H
  H231     1.0000 0.37390  0.87360  0.80060  Biso   1.000  H
  H232     1.0000 0.12610  0.12640  0.30060  Biso   1.000  H
  C369     1.0000 0.67688  0.64900  0.21340  Biso   1.000  C
  C370     1.0000 0.82312  0.35100  0.71340  Biso   1.000  C
  C371     1.0000 0.32312  0.14900  0.28660  Biso   1.000  C
  C372     1.0000 0.17688  0.85100  0.78660  Biso   1.000  C
  C373     1.0000 0.32312  0.35100  0.78660  Biso   1.000  C
  C374     1.0000 0.17688  0.64900  0.28660  Biso   1.000  C
  C375     1.0000 0.67688  0.85100  0.71340  Biso   1.000  C
  C376     1.0000 0.82312  0.14900  0.21340  Biso   1.000  C
  H233     1.0000 0.64820  0.64280  0.21660  Biso   1.000  H
  H234     1.0000 0.85180  0.35720  0.71660  Biso   1.000  H
  H235     1.0000 0.35180  0.14280  0.28340  Biso   1.000  H
  H236     1.0000 0.14820  0.85720  0.78340  Biso   1.000  H
  H237     1.0000 0.35180  0.35720  0.78340  Biso   1.000  H
  H238     1.0000 0.14820  0.64280  0.28340  Biso   1.000  H
  H239     1.0000 0.64820  0.85720  0.71660  Biso   1.000  H
  H240     1.0000 0.85180  0.14280  0.21660  Biso   1.000  H
  C377     1.0000 0.38697  0.84440  0.22580  Biso   1.000  C
  C378     1.0000 0.11303  0.15560  0.72580  Biso   1.000  C
  C379     1.0000 0.61303  0.34440  0.27420  Biso   1.000  C
  C380     1.0000 0.88697  0.65560  0.77420  Biso   1.000  C
  C381     1.0000 0.61303  0.15560  0.77420  Biso   1.000  C
  C382     1.0000 0.88697  0.84440  0.27420  Biso   1.000  C
  C383     1.0000 0.38697  0.65560  0.72580  Biso   1.000  C
  C384     1.0000 0.11303  0.34440  0.22580  Biso   1.000  C
  H241     1.0000 0.39800  0.94240  0.21840  Biso   1.000  H
  H242     1.0000 0.10200  0.05760  0.71840  Biso   1.000  H
  H243     1.0000 0.60200  0.44240  0.28160  Biso   1.000  H
  H244     1.0000 0.89800  0.55760  0.78160  Biso   1.000  H
  H245     1.0000 0.60200  0.05760  0.78160  Biso   1.000  H
  H246     1.0000 0.89800  0.94240  0.28160  Biso   1.000  H
  H247     1.0000 0.39800  0.55760  0.71840  Biso   1.000  H
  H248     1.0000 0.10200  0.44240  0.21840  Biso   1.000  H
  C385     1.0000 0.74330  0.59740  0.23720  Biso   1.000  C
  C386     1.0000 0.75670  0.40260  0.73720  Biso   1.000  C
  C387     1.0000 0.25670  0.09740  0.26280  Biso   1.000  C
  C388     1.0000 0.24330  0.90260  0.76280  Biso   1.000  C
  C389     1.0000 0.25670  0.40260  0.76280  Biso   1.000  C
  C390     1.0000 0.24330  0.59740  0.26280  Biso   1.000  C
  C391     1.0000 0.74330  0.90260  0.73720  Biso   1.000  C
  C392     1.0000 0.75670  0.09740  0.23720  Biso   1.000  C
  H249     1.0000 0.76130  0.55990  0.25620  Biso   1.000  H
  H250     1.0000 0.73870  0.44010  0.75620  Biso   1.000  H
  H251     1.0000 0.23870  0.05990  0.24380  Biso   1.000  H
  H252     1.0000 0.26130  0.94010  0.74380  Biso   1.000  H
  H253     1.0000 0.23870  0.44010  0.74380  Biso   1.000  H
  H254     1.0000 0.26130  0.55990  0.24380  Biso   1.000  H
  H255     1.0000 0.76130  0.94010  0.75620  Biso   1.000  H
  H256     1.0000 0.73870  0.05990  0.25620  Biso   1.000  H
  C393     1.0000 0.50010  0.66450  0.28980  Biso   1.000  C
  C394     1.0000 0.99990  0.33550  0.78980  Biso   1.000  C
  C395     1.0000 0.49990  0.16450  0.21020  Biso   1.000  C
  C396     1.0000 0.00010  0.83550  0.71020  Biso   1.000  C
  C397     1.0000 0.49990  0.33550  0.71020  Biso   1.000  C
  C398     1.0000 0.00010  0.66450  0.21020  Biso   1.000  C
  C399     1.0000 0.50010  0.83550  0.78980  Biso   1.000  C
  C400     1.0000 0.99990  0.16450  0.28980  Biso   1.000  C
  H257     1.0000 0.48010  0.63780  0.30810  Biso   1.000  H
  H258     1.0000 0.01990  0.36220  0.80810  Biso   1.000  H
  H259     1.0000 0.51990  0.13780  0.19190  Biso   1.000  H
  H260     1.0000 0.98010  0.86220  0.69190  Biso   1.000  H
  H261     1.0000 0.51990  0.36220  0.69190  Biso   1.000  H
  H262     1.0000 0.98010  0.63780  0.19190  Biso   1.000  H
  H263     1.0000 0.48010  0.86220  0.80810  Biso   1.000  H
  H264     1.0000 0.01990  0.13780  0.30810  Biso   1.000  H
  C401     1.0000 0.75863  0.65590  0.20370  Biso   1.000  C
  C402     1.0000 0.74137  0.34410  0.70370  Biso   1.000  C
  C403     1.0000 0.24137  0.15590  0.29630  Biso   1.000  C
  C404     1.0000 0.25863  0.84410  0.79630  Biso   1.000  C
  C405     1.0000 0.24137  0.34410  0.79630  Biso   1.000  C
  C406     1.0000 0.25863  0.65590  0.29630  Biso   1.000  C
  C407     1.0000 0.75863  0.84410  0.70370  Biso   1.000  C
  C408     1.0000 0.74137  0.15590  0.20370  Biso   1.000  C
  H265     1.0000 0.78720  0.65740  0.19960  Biso   1.000  H
  H266     1.0000 0.71280  0.34260  0.69960  Biso   1.000  H
  H267     1.0000 0.21280  0.15740  0.30040  Biso   1.000  H
  H268     1.0000 0.28720  0.84260  0.80040  Biso   1.000  H
  H269     1.0000 0.21280  0.34260  0.80040  Biso   1.000  H
  H270     1.0000 0.28720  0.65740  0.30040  Biso   1.000  H
  H271     1.0000 0.78720  0.84260  0.69960  Biso   1.000  H
  H272     1.0000 0.71280  0.15740  0.19960  Biso   1.000  H
  C409     1.0000 0.35950  0.93000  0.97512  Biso   1.000  C
  C410     1.0000 0.14050  0.07000  0.47512  Biso   1.000  C
  C411     1.0000 0.64050  0.43000  0.52488  Biso   1.000  C
  C412     1.0000 0.85950  0.57000  0.02488  Biso   1.000  C
  C413     1.0000 0.64050  0.07000  0.02488  Biso   1.000  C
  C414     1.0000 0.85950  0.93000  0.52488  Biso   1.000  C
  C415     1.0000 0.35950  0.57000  0.47512  Biso   1.000  C
  C416     1.0000 0.14050  0.43000  0.97512  Biso   1.000  C
  H273     1.0000 0.34570  0.88290  0.95450  Biso   1.000  H
  H274     1.0000 0.15430  0.11710  0.45450  Biso   1.000  H
  H275     1.0000 0.65430  0.38290  0.54550  Biso   1.000  H
  H276     1.0000 0.84570  0.61710  0.04550  Biso   1.000  H
  H277     1.0000 0.65430  0.11710  0.04550  Biso   1.000  H
  H278     1.0000 0.84570  0.88290  0.54550  Biso   1.000  H
  H279     1.0000 0.34570  0.61710  0.45450  Biso   1.000  H
  H280     1.0000 0.15430  0.38290  0.95450  Biso   1.000  H
  C417     1.0000 0.38800  0.79950  0.26380  Biso   1.000  C
  C418     1.0000 0.11200  0.20050  0.76380  Biso   1.000  C
  C419     1.0000 0.61200  0.29950  0.23620  Biso   1.000  C
  C420     1.0000 0.88800  0.70050  0.73620  Biso   1.000  C
  C421     1.0000 0.61200  0.20050  0.73620  Biso   1.000  C
  C422     1.0000 0.88800  0.79950  0.23620  Biso   1.000  C
  C423     1.0000 0.38800  0.70050  0.76380  Biso   1.000  C
  C424     1.0000 0.11200  0.29950  0.26380  Biso   1.000  C
  H281     1.0000 0.39960  0.86800  0.28190  Biso   1.000  H
  H282     1.0000 0.10040  0.13200  0.78190  Biso   1.000  H
  H283     1.0000 0.60040  0.36800  0.21810  Biso   1.000  H
  H284     1.0000 0.89960  0.63200  0.71810  Biso   1.000  H
  H285     1.0000 0.60040  0.13200  0.71810  Biso   1.000  H
  H286     1.0000 0.89960  0.86800  0.21810  Biso   1.000  H
  H287     1.0000 0.39960  0.63200  0.78190  Biso   1.000  H
  H288     1.0000 0.10040  0.36800  0.28190  Biso   1.000  H
