data_image0
_cell_length_a       22.456
_cell_length_b       24.961
_cell_length_c       12.63
_cell_angle_alpha    90
_cell_angle_beta     90
_cell_angle_gamma    90

_symmetry_space_group_name_H-M    "P 1"
_symmetry_int_tables_number       1

loop_
  _symmetry_equiv_pos_as_xyz
  'x, y, z'

loop_
  _atom_site_label
  _atom_site_occupancy
  _atom_site_fract_x
  _atom_site_fract_y
  _atom_site_fract_z
  _atom_site_thermal_displace_type
  _atom_site_B_iso_or_equiv
  _atom_site_type_symbol
  Er1      1.0000 0.75000  0.75000  0.95616  Biso   1.000  Er
  Er2      1.0000 0.25000  0.25000  0.95616  Biso   1.000  Er
  Er3      1.0000 0.50000  0.00000  0.20616  Biso   1.000  Er
  Er4      1.0000 0.00000  0.50000  0.20616  Biso   1.000  Er
  Er5      1.0000 0.75000  0.25000  0.45616  Biso   1.000  Er
  Er6      1.0000 0.25000  0.75000  0.45616  Biso   1.000  Er
  Er7      1.0000 0.50000  0.50000  0.70616  Biso   1.000  Er
  Er8      1.0000 0.00000  0.00000  0.70616  Biso   1.000  Er
  Cu1      1.0000 0.50000  0.50000  0.21150  Biso   1.000  Cu
  Cu2      1.0000 0.75000  0.75000  0.46150  Biso   1.000  Cu
  Cu3      1.0000 0.50000  0.00000  0.71150  Biso   1.000  Cu
  Cu4      1.0000 0.75000  0.25000  0.96150  Biso   1.000  Cu
  Cu5      1.0000 0.00000  0.50000  0.71150  Biso   1.000  Cu
  Cu6      1.0000 0.25000  0.75000  0.96150  Biso   1.000  Cu
  Cu7      1.0000 0.00000  0.00000  0.21150  Biso   1.000  Cu
  Cu8      1.0000 0.25000  0.25000  0.46150  Biso   1.000  Cu
  O1       1.0000 0.30730  0.71230  0.31900  Biso   1.000  O
  O2       1.0000 0.69270  0.28770  0.31900  Biso   1.000  O
  O3       1.0000 0.94270  0.96230  0.56900  Biso   1.000  O
  O4       1.0000 0.55730  0.53770  0.56900  Biso   1.000  O
  O5       1.0000 0.30730  0.21230  0.81900  Biso   1.000  O
  O6       1.0000 0.69270  0.78770  0.81900  Biso   1.000  O
  O7       1.0000 0.94270  0.46230  0.06900  Biso   1.000  O
  O8       1.0000 0.55730  0.03770  0.06900  Biso   1.000  O
  O9       1.0000 0.80730  0.71230  0.81900  Biso   1.000  O
  O10      1.0000 0.19270  0.28770  0.81900  Biso   1.000  O
  O11      1.0000 0.44270  0.96230  0.06900  Biso   1.000  O
  O12      1.0000 0.05730  0.53770  0.06900  Biso   1.000  O
  O13      1.0000 0.80730  0.21230  0.31900  Biso   1.000  O
  O14      1.0000 0.19270  0.78770  0.31900  Biso   1.000  O
  O15      1.0000 0.44270  0.46230  0.56900  Biso   1.000  O
  O16      1.0000 0.05730  0.03770  0.56900  Biso   1.000  O
  N1       1.0000 0.56640  0.54350  0.13670  Biso   1.000  N
  N2       1.0000 0.43360  0.45650  0.13670  Biso   1.000  N
  N3       1.0000 0.68360  0.79350  0.38670  Biso   1.000  N
  N4       1.0000 0.81640  0.70650  0.38670  Biso   1.000  N
  N5       1.0000 0.56640  0.04350  0.63670  Biso   1.000  N
  N6       1.0000 0.43360  0.95650  0.63670  Biso   1.000  N
  N7       1.0000 0.68360  0.29350  0.88670  Biso   1.000  N
  N8       1.0000 0.81640  0.20650  0.88670  Biso   1.000  N
  N9       1.0000 0.06640  0.54350  0.63670  Biso   1.000  N
  N10      1.0000 0.93360  0.45650  0.63670  Biso   1.000  N
  N11      1.0000 0.18360  0.79350  0.88670  Biso   1.000  N
  N12      1.0000 0.31640  0.70650  0.88670  Biso   1.000  N
  N13      1.0000 0.06640  0.04350  0.13670  Biso   1.000  N
  N14      1.0000 0.93360  0.95650  0.13670  Biso   1.000  N
  N15      1.0000 0.18360  0.29350  0.38670  Biso   1.000  N
  N16      1.0000 0.31640  0.20650  0.38670  Biso   1.000  N
  C1       1.0000 0.40720  0.58080  0.21750  Biso   1.000  C
  C2       1.0000 0.59280  0.41920  0.21750  Biso   1.000  C
  C3       1.0000 0.84280  0.83080  0.46750  Biso   1.000  C
  C4       1.0000 0.65720  0.66920  0.46750  Biso   1.000  C
  C5       1.0000 0.40720  0.08080  0.71750  Biso   1.000  C
  C6       1.0000 0.59280  0.91920  0.71750  Biso   1.000  C
  C7       1.0000 0.84280  0.33080  0.96750  Biso   1.000  C
  C8       1.0000 0.65720  0.16920  0.96750  Biso   1.000  C
  C9       1.0000 0.90720  0.58080  0.71750  Biso   1.000  C
  C10      1.0000 0.09280  0.41920  0.71750  Biso   1.000  C
  C11      1.0000 0.34280  0.83080  0.96750  Biso   1.000  C
  C12      1.0000 0.15720  0.66920  0.96750  Biso   1.000  C
  C13      1.0000 0.90720  0.08080  0.21750  Biso   1.000  C
  C14      1.0000 0.09280  0.91920  0.21750  Biso   1.000  C
  C15      1.0000 0.34280  0.33080  0.46750  Biso   1.000  C
  C16      1.0000 0.15720  0.16920  0.46750  Biso   1.000  C
  H1       1.0000 0.40128  0.56677  0.15013  Biso   1.000  H
  H2       1.0000 0.59872  0.43323  0.15013  Biso   1.000  H
  H3       1.0000 0.84872  0.81677  0.40013  Biso   1.000  H
  H4       1.0000 0.65128  0.68323  0.40013  Biso   1.000  H
  H5       1.0000 0.40128  0.06677  0.65013  Biso   1.000  H
  H6       1.0000 0.59872  0.93323  0.65013  Biso   1.000  H
  H7       1.0000 0.84872  0.31677  0.90013  Biso   1.000  H
  H8       1.0000 0.65128  0.18323  0.90013  Biso   1.000  H
  H9       1.0000 0.90128  0.56677  0.65013  Biso   1.000  H
  H10      1.0000 0.09872  0.43323  0.65013  Biso   1.000  H
  H11      1.0000 0.34872  0.81677  0.90013  Biso   1.000  H
  H12      1.0000 0.15128  0.68323  0.90013  Biso   1.000  H
  H13      1.0000 0.90128  0.06677  0.15013  Biso   1.000  H
  H14      1.0000 0.09872  0.93323  0.15013  Biso   1.000  H
  H15      1.0000 0.34872  0.31677  0.40013  Biso   1.000  H
  H16      1.0000 0.15128  0.18323  0.40013  Biso   1.000  H
  O17      1.0000 0.71060  0.69570  0.09280  Biso   1.000  O
  O18      1.0000 0.28940  0.30430  0.09280  Biso   1.000  O
  O19      1.0000 0.53940  0.94570  0.34280  Biso   1.000  O
  O20      1.0000 0.96060  0.55430  0.34280  Biso   1.000  O
  O21      1.0000 0.71060  0.19570  0.59280  Biso   1.000  O
  O22      1.0000 0.28940  0.80430  0.59280  Biso   1.000  O
  O23      1.0000 0.53940  0.44570  0.84280  Biso   1.000  O
  O24      1.0000 0.96060  0.05430  0.84280  Biso   1.000  O
  O25      1.0000 0.21060  0.69570  0.59280  Biso   1.000  O
  O26      1.0000 0.78940  0.30430  0.59280  Biso   1.000  O
  O27      1.0000 0.03940  0.94570  0.84280  Biso   1.000  O
  O28      1.0000 0.46060  0.55430  0.84280  Biso   1.000  O
  O29      1.0000 0.21060  0.19570  0.09280  Biso   1.000  O
  O30      1.0000 0.78940  0.80430  0.09280  Biso   1.000  O
  O31      1.0000 0.03940  0.44570  0.34280  Biso   1.000  O
  O32      1.0000 0.46060  0.05430  0.34280  Biso   1.000  O
  C17      1.0000 0.60310  0.56840  0.20090  Biso   1.000  C
  C18      1.0000 0.39690  0.43160  0.20090  Biso   1.000  C
  C19      1.0000 0.64690  0.81840  0.45090  Biso   1.000  C
  C20      1.0000 0.85310  0.68160  0.45090  Biso   1.000  C
  C21      1.0000 0.60310  0.06840  0.70090  Biso   1.000  C
  C22      1.0000 0.39690  0.93160  0.70090  Biso   1.000  C
  C23      1.0000 0.64690  0.31840  0.95090  Biso   1.000  C
  C24      1.0000 0.85310  0.18160  0.95090  Biso   1.000  C
  C25      1.0000 0.10310  0.56840  0.70090  Biso   1.000  C
  C26      1.0000 0.89690  0.43160  0.70090  Biso   1.000  C
  C27      1.0000 0.14690  0.81840  0.95090  Biso   1.000  C
  C28      1.0000 0.35310  0.68160  0.95090  Biso   1.000  C
  C29      1.0000 0.10310  0.06840  0.20090  Biso   1.000  C
  C30      1.0000 0.89690  0.93160  0.20090  Biso   1.000  C
  C31      1.0000 0.14690  0.31840  0.45090  Biso   1.000  C
  C32      1.0000 0.35310  0.18160  0.45090  Biso   1.000  C
  H17      1.0000 0.60220  0.55903  0.27211  Biso   1.000  H
  H18      1.0000 0.39780  0.44097  0.27211  Biso   1.000  H
  H19      1.0000 0.64780  0.80903  0.52211  Biso   1.000  H
  H20      1.0000 0.85220  0.69097  0.52211  Biso   1.000  H
  H21      1.0000 0.60220  0.05903  0.77211  Biso   1.000  H
  H22      1.0000 0.39780  0.94097  0.77211  Biso   1.000  H
  H23      1.0000 0.64780  0.30903  0.02211  Biso   1.000  H
  H24      1.0000 0.85220  0.19097  0.02211  Biso   1.000  H
  H25      1.0000 0.10220  0.55903  0.77211  Biso   1.000  H
  H26      1.0000 0.89780  0.44097  0.77211  Biso   1.000  H
  H27      1.0000 0.14780  0.80903  0.02211  Biso   1.000  H
  H28      1.0000 0.35220  0.69097  0.02211  Biso   1.000  H
  H29      1.0000 0.10220  0.05903  0.27211  Biso   1.000  H
  H30      1.0000 0.89780  0.94097  0.27211  Biso   1.000  H
  H31      1.0000 0.14780  0.30903  0.52211  Biso   1.000  H
  H32      1.0000 0.35220  0.19097  0.52211  Biso   1.000  H
  O33      1.0000 0.69380  0.67110  0.92770  Biso   1.000  O
  O34      1.0000 0.30620  0.32890  0.92770  Biso   1.000  O
  O35      1.0000 0.55620  0.92110  0.17770  Biso   1.000  O
  O36      1.0000 0.94380  0.57890  0.17770  Biso   1.000  O
  O37      1.0000 0.69380  0.17110  0.42770  Biso   1.000  O
  O38      1.0000 0.30620  0.82890  0.42770  Biso   1.000  O
  O39      1.0000 0.55620  0.42110  0.67770  Biso   1.000  O
  O40      1.0000 0.94380  0.07890  0.67770  Biso   1.000  O
  O41      1.0000 0.19380  0.67110  0.42770  Biso   1.000  O
  O42      1.0000 0.80620  0.32890  0.42770  Biso   1.000  O
  O43      1.0000 0.05620  0.92110  0.67770  Biso   1.000  O
  O44      1.0000 0.44380  0.57890  0.67770  Biso   1.000  O
  O45      1.0000 0.19380  0.17110  0.92770  Biso   1.000  O
  O46      1.0000 0.80620  0.82890  0.92770  Biso   1.000  O
  O47      1.0000 0.05620  0.42110  0.17770  Biso   1.000  O
  O48      1.0000 0.44380  0.07890  0.17770  Biso   1.000  O
  O49      1.0000 0.33680  0.69910  0.48350  Biso   1.000  O
  O50      1.0000 0.66320  0.30090  0.48350  Biso   1.000  O
  O51      1.0000 0.91320  0.94910  0.73350  Biso   1.000  O
  O52      1.0000 0.58680  0.55090  0.73350  Biso   1.000  O
  O53      1.0000 0.33680  0.19910  0.98350  Biso   1.000  O
  O54      1.0000 0.66320  0.80090  0.98350  Biso   1.000  O
  O55      1.0000 0.91320  0.44910  0.23350  Biso   1.000  O
  O56      1.0000 0.58680  0.05090  0.23350  Biso   1.000  O
  O57      1.0000 0.83680  0.69910  0.98350  Biso   1.000  O
  O58      1.0000 0.16320  0.30090  0.98350  Biso   1.000  O
  O59      1.0000 0.41320  0.94910  0.23350  Biso   1.000  O
  O60      1.0000 0.08680  0.55090  0.23350  Biso   1.000  O
  O61      1.0000 0.83680  0.19910  0.48350  Biso   1.000  O
  O62      1.0000 0.16320  0.80090  0.48350  Biso   1.000  O
  O63      1.0000 0.41320  0.44910  0.73350  Biso   1.000  O
  O64      1.0000 0.08680  0.05090  0.73350  Biso   1.000  O
  C33      1.0000 0.64370  0.60830  0.16970  Biso   1.000  C
  C34      1.0000 0.35630  0.39170  0.16970  Biso   1.000  C
  C35      1.0000 0.60630  0.85830  0.41970  Biso   1.000  C
  C36      1.0000 0.89370  0.64170  0.41970  Biso   1.000  C
  C37      1.0000 0.64370  0.10830  0.66970  Biso   1.000  C
  C38      1.0000 0.35630  0.89170  0.66970  Biso   1.000  C
  C39      1.0000 0.60630  0.35830  0.91970  Biso   1.000  C
  C40      1.0000 0.89370  0.14170  0.91970  Biso   1.000  C
  C41      1.0000 0.14370  0.60830  0.66970  Biso   1.000  C
  C42      1.0000 0.85630  0.39170  0.66970  Biso   1.000  C
  C43      1.0000 0.10630  0.85830  0.91970  Biso   1.000  C
  C44      1.0000 0.39370  0.64170  0.91970  Biso   1.000  C
  C45      1.0000 0.14370  0.10830  0.16970  Biso   1.000  C
  C46      1.0000 0.85630  0.89170  0.16970  Biso   1.000  C
  C47      1.0000 0.10630  0.35830  0.41970  Biso   1.000  C
  C48      1.0000 0.39370  0.14170  0.41970  Biso   1.000  C
  H33      1.0000 0.66691  0.62622  0.21921  Biso   1.000  H
  H34      1.0000 0.33309  0.37378  0.21921  Biso   1.000  H
  H35      1.0000 0.58309  0.87622  0.46921  Biso   1.000  H
  H36      1.0000 0.91691  0.62378  0.46921  Biso   1.000  H
  H37      1.0000 0.66691  0.12622  0.71921  Biso   1.000  H
  H38      1.0000 0.33309  0.87378  0.71921  Biso   1.000  H
  H39      1.0000 0.58309  0.37622  0.96921  Biso   1.000  H
  H40      1.0000 0.91691  0.12378  0.96921  Biso   1.000  H
  H41      1.0000 0.16691  0.62622  0.71921  Biso   1.000  H
  H42      1.0000 0.83309  0.37378  0.71921  Biso   1.000  H
  H43      1.0000 0.08309  0.87622  0.96921  Biso   1.000  H
  H44      1.0000 0.41691  0.62378  0.96921  Biso   1.000  H
  H45      1.0000 0.16691  0.12622  0.21921  Biso   1.000  H
  H46      1.0000 0.83309  0.87378  0.21921  Biso   1.000  H
  H47      1.0000 0.08309  0.37622  0.46921  Biso   1.000  H
  H48      1.0000 0.41691  0.12378  0.46921  Biso   1.000  H
  C49      1.0000 0.37390  0.62230  0.24940  Biso   1.000  C
  C50      1.0000 0.62610  0.37770  0.24940  Biso   1.000  C
  C51      1.0000 0.87610  0.87230  0.49940  Biso   1.000  C
  C52      1.0000 0.62390  0.62770  0.49940  Biso   1.000  C
  C53      1.0000 0.37390  0.12230  0.74940  Biso   1.000  C
  C54      1.0000 0.62610  0.87770  0.74940  Biso   1.000  C
  C55      1.0000 0.87610  0.37230  0.99940  Biso   1.000  C
  C56      1.0000 0.62390  0.12770  0.99940  Biso   1.000  C
  C57      1.0000 0.87390  0.62230  0.74940  Biso   1.000  C
  C58      1.0000 0.12610  0.37770  0.74940  Biso   1.000  C
  C59      1.0000 0.37610  0.87230  0.99940  Biso   1.000  C
  C60      1.0000 0.12390  0.62770  0.99940  Biso   1.000  C
  C61      1.0000 0.87390  0.12230  0.24940  Biso   1.000  C
  C62      1.0000 0.12610  0.87770  0.24940  Biso   1.000  C
  C63      1.0000 0.37610  0.37230  0.49940  Biso   1.000  C
  C64      1.0000 0.12390  0.12770  0.49940  Biso   1.000  C
  H49      1.0000 0.34555  0.63651  0.20359  Biso   1.000  H
  H50      1.0000 0.65445  0.36349  0.20359  Biso   1.000  H
  H51      1.0000 0.90445  0.88651  0.45359  Biso   1.000  H
  H52      1.0000 0.59555  0.61349  0.45359  Biso   1.000  H
  H53      1.0000 0.34555  0.13651  0.70359  Biso   1.000  H
  H54      1.0000 0.65445  0.86349  0.70359  Biso   1.000  H
  H55      1.0000 0.90445  0.38651  0.95359  Biso   1.000  H
  H56      1.0000 0.59555  0.11349  0.95359  Biso   1.000  H
  H57      1.0000 0.84555  0.63651  0.70359  Biso   1.000  H
  H58      1.0000 0.15445  0.36349  0.70359  Biso   1.000  H
  H59      1.0000 0.40445  0.88651  0.95359  Biso   1.000  H
  H60      1.0000 0.09555  0.61349  0.95359  Biso   1.000  H
  H61      1.0000 0.84555  0.13651  0.20359  Biso   1.000  H
  H62      1.0000 0.15445  0.86349  0.20359  Biso   1.000  H
  H63      1.0000 0.40445  0.38651  0.45359  Biso   1.000  H
  H64      1.0000 0.09555  0.11349  0.45359  Biso   1.000  H
  C65      1.0000 0.68740  0.66400  0.02620  Biso   1.000  C
  C66      1.0000 0.31260  0.33600  0.02620  Biso   1.000  C
  C67      1.0000 0.56260  0.91400  0.27620  Biso   1.000  C
  C68      1.0000 0.93740  0.58600  0.27620  Biso   1.000  C
  C69      1.0000 0.68740  0.16400  0.52620  Biso   1.000  C
  C70      1.0000 0.31260  0.83600  0.52620  Biso   1.000  C
  C71      1.0000 0.56260  0.41400  0.77620  Biso   1.000  C
  C72      1.0000 0.93740  0.08600  0.77620  Biso   1.000  C
  C73      1.0000 0.18740  0.66400  0.52620  Biso   1.000  C
  C74      1.0000 0.81260  0.33600  0.52620  Biso   1.000  C
  C75      1.0000 0.06260  0.91400  0.77620  Biso   1.000  C
  C76      1.0000 0.43740  0.58600  0.77620  Biso   1.000  C
  C77      1.0000 0.18740  0.16400  0.02620  Biso   1.000  C
  C78      1.0000 0.81260  0.83600  0.02620  Biso   1.000  C
  C79      1.0000 0.06260  0.41400  0.27620  Biso   1.000  C
  C80      1.0000 0.43740  0.08600  0.27620  Biso   1.000  C
  C81      1.0000 0.33940  0.68790  0.38650  Biso   1.000  C
  C82      1.0000 0.66060  0.31210  0.38650  Biso   1.000  C
  C83      1.0000 0.91060  0.93790  0.63650  Biso   1.000  C
  C84      1.0000 0.58940  0.56210  0.63650  Biso   1.000  C
  C85      1.0000 0.33940  0.18790  0.88650  Biso   1.000  C
  C86      1.0000 0.66060  0.81210  0.88650  Biso   1.000  C
  C87      1.0000 0.91060  0.43790  0.13650  Biso   1.000  C
  C88      1.0000 0.58940  0.06210  0.13650  Biso   1.000  C
  C89      1.0000 0.83940  0.68790  0.88650  Biso   1.000  C
  C90      1.0000 0.16060  0.31210  0.88650  Biso   1.000  C
  C91      1.0000 0.41060  0.93790  0.13650  Biso   1.000  C
  C92      1.0000 0.08940  0.56210  0.13650  Biso   1.000  C
  C93      1.0000 0.83940  0.18790  0.38650  Biso   1.000  C
  C94      1.0000 0.16060  0.81210  0.38650  Biso   1.000  C
  C95      1.0000 0.41060  0.43790  0.63650  Biso   1.000  C
  C96      1.0000 0.08940  0.06210  0.63650  Biso   1.000  C
  C97      1.0000 0.64780  0.61980  0.06380  Biso   1.000  C
  C98      1.0000 0.35220  0.38020  0.06380  Biso   1.000  C
  C99      1.0000 0.60220  0.86980  0.31380  Biso   1.000  C
  C100     1.0000 0.89780  0.63020  0.31380  Biso   1.000  C
  C101     1.0000 0.64780  0.11980  0.56380  Biso   1.000  C
  C102     1.0000 0.35220  0.88020  0.56380  Biso   1.000  C
  C103     1.0000 0.60220  0.36980  0.81380  Biso   1.000  C
  C104     1.0000 0.89780  0.13020  0.81380  Biso   1.000  C
  C105     1.0000 0.14780  0.61980  0.56380  Biso   1.000  C
  C106     1.0000 0.85220  0.38020  0.56380  Biso   1.000  C
  C107     1.0000 0.10220  0.86980  0.81380  Biso   1.000  C
  C108     1.0000 0.39780  0.63020  0.81380  Biso   1.000  C
  C109     1.0000 0.14780  0.11980  0.06380  Biso   1.000  C
  C110     1.0000 0.85220  0.88020  0.06380  Biso   1.000  C
  C111     1.0000 0.10220  0.36980  0.31380  Biso   1.000  C
  C112     1.0000 0.39780  0.13020  0.31380  Biso   1.000  C
  C113     1.0000 0.57070  0.55440  0.03320  Biso   1.000  C
  C114     1.0000 0.42930  0.44560  0.03320  Biso   1.000  C
  C115     1.0000 0.67930  0.80440  0.28320  Biso   1.000  C
  C116     1.0000 0.82070  0.69560  0.28320  Biso   1.000  C
  C117     1.0000 0.57070  0.05440  0.53320  Biso   1.000  C
  C118     1.0000 0.42930  0.94560  0.53320  Biso   1.000  C
  C119     1.0000 0.67930  0.30440  0.78320  Biso   1.000  C
  C120     1.0000 0.82070  0.19560  0.78320  Biso   1.000  C
  C121     1.0000 0.07070  0.55440  0.53320  Biso   1.000  C
  C122     1.0000 0.92930  0.44560  0.53320  Biso   1.000  C
  C123     1.0000 0.17930  0.80440  0.78320  Biso   1.000  C
  C124     1.0000 0.32070  0.69560  0.78320  Biso   1.000  C
  C125     1.0000 0.07070  0.05440  0.03320  Biso   1.000  C
  C126     1.0000 0.92930  0.94560  0.03320  Biso   1.000  C
  C127     1.0000 0.17930  0.30440  0.28320  Biso   1.000  C
  C128     1.0000 0.32070  0.19560  0.28320  Biso   1.000  C
  H65      1.0000 0.54592  0.53664  0.98581  Biso   1.000  H
  H66      1.0000 0.45408  0.46336  0.98581  Biso   1.000  H
  H67      1.0000 0.70408  0.78664  0.23581  Biso   1.000  H
  H68      1.0000 0.79592  0.71336  0.23581  Biso   1.000  H
  H69      1.0000 0.54592  0.03664  0.48581  Biso   1.000  H
  H70      1.0000 0.45408  0.96336  0.48581  Biso   1.000  H
  H71      1.0000 0.70408  0.28664  0.73581  Biso   1.000  H
  H72      1.0000 0.79592  0.21336  0.73581  Biso   1.000  H
  H73      1.0000 0.04592  0.53664  0.48581  Biso   1.000  H
  H74      1.0000 0.95408  0.46336  0.48581  Biso   1.000  H
  H75      1.0000 0.20408  0.78664  0.73581  Biso   1.000  H
  H76      1.0000 0.29592  0.71336  0.73581  Biso   1.000  H
  H77      1.0000 0.04592  0.03664  0.98581  Biso   1.000  H
  H78      1.0000 0.95408  0.96336  0.98581  Biso   1.000  H
  H79      1.0000 0.20408  0.28664  0.23581  Biso   1.000  H
  H80      1.0000 0.29592  0.21336  0.23581  Biso   1.000  H
  C129     1.0000 0.61190  0.59220  0.99440  Biso   1.000  C
  C130     1.0000 0.38810  0.40780  0.99440  Biso   1.000  C
  C131     1.0000 0.63810  0.84220  0.24440  Biso   1.000  C
  C132     1.0000 0.86190  0.65780  0.24440  Biso   1.000  C
  C133     1.0000 0.61190  0.09220  0.49440  Biso   1.000  C
  C134     1.0000 0.38810  0.90780  0.49440  Biso   1.000  C
  C135     1.0000 0.63810  0.34220  0.74440  Biso   1.000  C
  C136     1.0000 0.86190  0.15780  0.74440  Biso   1.000  C
  C137     1.0000 0.11190  0.59220  0.49440  Biso   1.000  C
  C138     1.0000 0.88810  0.40780  0.49440  Biso   1.000  C
  C139     1.0000 0.13810  0.84220  0.74440  Biso   1.000  C
  C140     1.0000 0.36190  0.65780  0.74440  Biso   1.000  C
  C141     1.0000 0.11190  0.09220  0.99440  Biso   1.000  C
  C142     1.0000 0.88810  0.90780  0.99440  Biso   1.000  C
  C143     1.0000 0.13810  0.34220  0.24440  Biso   1.000  C
  C144     1.0000 0.36190  0.15780  0.24440  Biso   1.000  C
  H81      1.0000 0.61476  0.59847  0.92202  Biso   1.000  H
  H82      1.0000 0.38524  0.40153  0.92202  Biso   1.000  H
  H83      1.0000 0.63524  0.84847  0.17202  Biso   1.000  H
  H84      1.0000 0.86476  0.65153  0.17202  Biso   1.000  H
  H85      1.0000 0.61476  0.09847  0.42202  Biso   1.000  H
  H86      1.0000 0.38524  0.90153  0.42202  Biso   1.000  H
  H87      1.0000 0.63524  0.34847  0.67202  Biso   1.000  H
  H88      1.0000 0.86476  0.15153  0.67202  Biso   1.000  H
  H89      1.0000 0.11476  0.59847  0.42202  Biso   1.000  H
  H90      1.0000 0.88524  0.40153  0.42202  Biso   1.000  H
  H91      1.0000 0.13524  0.84847  0.67202  Biso   1.000  H
  H92      1.0000 0.36476  0.65153  0.67202  Biso   1.000  H
  H93      1.0000 0.11476  0.09847  0.92202  Biso   1.000  H
  H94      1.0000 0.88524  0.90153  0.92202  Biso   1.000  H
  H95      1.0000 0.13524  0.34847  0.17202  Biso   1.000  H
  H96      1.0000 0.36476  0.15153  0.17202  Biso   1.000  H
  C145     1.0000 0.38080  0.64450  0.34920  Biso   1.000  C
  C146     1.0000 0.61920  0.35550  0.34920  Biso   1.000  C
  C147     1.0000 0.86920  0.89450  0.59920  Biso   1.000  C
  C148     1.0000 0.63080  0.60550  0.59920  Biso   1.000  C
  C149     1.0000 0.38080  0.14450  0.84920  Biso   1.000  C
  C150     1.0000 0.61920  0.85550  0.84920  Biso   1.000  C
  C151     1.0000 0.86920  0.39450  0.09920  Biso   1.000  C
  C152     1.0000 0.63080  0.10550  0.09920  Biso   1.000  C
  C153     1.0000 0.88080  0.64450  0.84920  Biso   1.000  C
  C154     1.0000 0.11920  0.35550  0.84920  Biso   1.000  C
  C155     1.0000 0.36920  0.89450  0.09920  Biso   1.000  C
  C156     1.0000 0.13080  0.60550  0.09920  Biso   1.000  C
  C157     1.0000 0.88080  0.14450  0.34920  Biso   1.000  C
  C158     1.0000 0.11920  0.85550  0.34920  Biso   1.000  C
  C159     1.0000 0.36920  0.39450  0.59920  Biso   1.000  C
  C160     1.0000 0.13080  0.10550  0.59920  Biso   1.000  C
  C161     1.0000 0.42310  0.62200  0.41480  Biso   1.000  C
  C162     1.0000 0.57690  0.37800  0.41480  Biso   1.000  C
  C163     1.0000 0.82690  0.87200  0.66480  Biso   1.000  C
  C164     1.0000 0.67310  0.62800  0.66480  Biso   1.000  C
  C165     1.0000 0.42310  0.12200  0.91480  Biso   1.000  C
  C166     1.0000 0.57690  0.87800  0.91480  Biso   1.000  C
  C167     1.0000 0.82690  0.37200  0.16480  Biso   1.000  C
  C168     1.0000 0.67310  0.12800  0.16480  Biso   1.000  C
  C169     1.0000 0.92310  0.62200  0.91480  Biso   1.000  C
  C170     1.0000 0.07690  0.37800  0.91480  Biso   1.000  C
  C171     1.0000 0.32690  0.87200  0.16480  Biso   1.000  C
  C172     1.0000 0.17310  0.62800  0.16480  Biso   1.000  C
  C173     1.0000 0.92310  0.12200  0.41480  Biso   1.000  C
  C174     1.0000 0.07690  0.87800  0.41480  Biso   1.000  C
  C175     1.0000 0.32690  0.37200  0.66480  Biso   1.000  C
  C176     1.0000 0.17310  0.12800  0.66480  Biso   1.000  C
  H97      1.0000 0.42895  0.63556  0.48265  Biso   1.000  H
  H98      1.0000 0.57105  0.36444  0.48265  Biso   1.000  H
  H99      1.0000 0.82105  0.88556  0.73265  Biso   1.000  H
  H100     1.0000 0.67895  0.61444  0.73265  Biso   1.000  H
  H101     1.0000 0.42895  0.13556  0.98265  Biso   1.000  H
  H102     1.0000 0.57105  0.86444  0.98265  Biso   1.000  H
  H103     1.0000 0.82105  0.38556  0.23265  Biso   1.000  H
  H104     1.0000 0.67895  0.11444  0.23265  Biso   1.000  H
  H105     1.0000 0.92895  0.63556  0.98265  Biso   1.000  H
  H106     1.0000 0.07105  0.36444  0.98265  Biso   1.000  H
  H107     1.0000 0.32105  0.88556  0.23265  Biso   1.000  H
  H108     1.0000 0.17895  0.61444  0.23265  Biso   1.000  H
  H109     1.0000 0.92895  0.13556  0.48265  Biso   1.000  H
  H110     1.0000 0.07105  0.86444  0.48265  Biso   1.000  H
  H111     1.0000 0.32105  0.38556  0.73265  Biso   1.000  H
  H112     1.0000 0.17895  0.11444  0.73265  Biso   1.000  H
  N17      1.0000 0.44990  0.55850  0.28170  Biso   1.000  N
  N18      1.0000 0.55010  0.44150  0.28170  Biso   1.000  N
  N19      1.0000 0.80010  0.80850  0.53170  Biso   1.000  N
  N20      1.0000 0.69990  0.69150  0.53170  Biso   1.000  N
  N21      1.0000 0.44990  0.05850  0.78170  Biso   1.000  N
  N22      1.0000 0.55010  0.94150  0.78170  Biso   1.000  N
  N23      1.0000 0.80010  0.30850  0.03170  Biso   1.000  N
  N24      1.0000 0.69990  0.19150  0.03170  Biso   1.000  N
  N25      1.0000 0.94990  0.55850  0.78170  Biso   1.000  N
  N26      1.0000 0.05010  0.44150  0.78170  Biso   1.000  N
  N27      1.0000 0.30010  0.80850  0.03170  Biso   1.000  N
  N28      1.0000 0.19990  0.69150  0.03170  Biso   1.000  N
  N29      1.0000 0.94990  0.05850  0.28170  Biso   1.000  N
  N30      1.0000 0.05010  0.94150  0.28170  Biso   1.000  N
  N31      1.0000 0.30010  0.30850  0.53170  Biso   1.000  N
  N32      1.0000 0.19990  0.19150  0.53170  Biso   1.000  N
  C177     1.0000 0.45660  0.57930  0.37920  Biso   1.000  C
  C178     1.0000 0.54340  0.42070  0.37920  Biso   1.000  C
  C179     1.0000 0.79340  0.82930  0.62920  Biso   1.000  C
  C180     1.0000 0.70660  0.67070  0.62920  Biso   1.000  C
  C181     1.0000 0.45660  0.07930  0.87920  Biso   1.000  C
  C182     1.0000 0.54340  0.92070  0.87920  Biso   1.000  C
  C183     1.0000 0.79340  0.32930  0.12920  Biso   1.000  C
  C184     1.0000 0.70660  0.17070  0.12920  Biso   1.000  C
  C185     1.0000 0.95660  0.57930  0.87920  Biso   1.000  C
  C186     1.0000 0.04340  0.42070  0.87920  Biso   1.000  C
  C187     1.0000 0.29340  0.82930  0.12920  Biso   1.000  C
  C188     1.0000 0.20660  0.67070  0.12920  Biso   1.000  C
  C189     1.0000 0.95660  0.07930  0.37920  Biso   1.000  C
  C190     1.0000 0.04340  0.92070  0.37920  Biso   1.000  C
  C191     1.0000 0.29340  0.32930  0.62920  Biso   1.000  C
  C192     1.0000 0.20660  0.17070  0.62920  Biso   1.000  C
  H113     1.0000 0.48483  0.56442  0.42434  Biso   1.000  H
  H114     1.0000 0.51517  0.43558  0.42434  Biso   1.000  H
  H115     1.0000 0.76517  0.81442  0.67434  Biso   1.000  H
  H116     1.0000 0.73483  0.68558  0.67434  Biso   1.000  H
  H117     1.0000 0.48483  0.06442  0.92434  Biso   1.000  H
  H118     1.0000 0.51517  0.93558  0.92434  Biso   1.000  H
  H119     1.0000 0.76517  0.31442  0.17434  Biso   1.000  H
  H120     1.0000 0.73483  0.18558  0.17434  Biso   1.000  H
  H121     1.0000 0.98483  0.56442  0.92434  Biso   1.000  H
  H122     1.0000 0.01517  0.43558  0.92434  Biso   1.000  H
  H123     1.0000 0.26517  0.81442  0.17434  Biso   1.000  H
  H124     1.0000 0.23483  0.68558  0.17434  Biso   1.000  H
  H125     1.0000 0.98483  0.06442  0.42434  Biso   1.000  H
  H126     1.0000 0.01517  0.93558  0.42434  Biso   1.000  H
  H127     1.0000 0.26517  0.31442  0.67434  Biso   1.000  H
  H128     1.0000 0.23483  0.18558  0.67434  Biso   1.000  H
  N33      1.0000 0.49600  0.74910  0.20700  Biso   1.000  N
  N34      1.0000 0.50400  0.25090  0.20700  Biso   1.000  N
  N35      1.0000 0.75400  0.99910  0.45700  Biso   1.000  N
  N36      1.0000 0.74600  0.50090  0.45700  Biso   1.000  N
  N37      1.0000 0.49600  0.24910  0.70700  Biso   1.000  N
  N38      1.0000 0.50400  0.75090  0.70700  Biso   1.000  N
  N39      1.0000 0.75400  0.49910  0.95700  Biso   1.000  N
  N40      1.0000 0.74600  0.00090  0.95700  Biso   1.000  N
  N41      1.0000 0.99600  0.74910  0.70700  Biso   1.000  N
  N42      1.0000 0.00400  0.25090  0.70700  Biso   1.000  N
  N43      1.0000 0.25400  0.99910  0.95700  Biso   1.000  N
  N44      1.0000 0.24600  0.50090  0.95700  Biso   1.000  N
  N45      1.0000 0.99600  0.24910  0.20700  Biso   1.000  N
  N46      1.0000 0.00400  0.75090  0.20700  Biso   1.000  N
  N47      1.0000 0.25400  0.49910  0.45700  Biso   1.000  N
  N48      1.0000 0.24600  0.00090  0.45700  Biso   1.000  N
  O65      1.0000 0.53090  0.72680  0.37850  Biso   1.000  O
  O66      1.0000 0.46910  0.27320  0.37850  Biso   1.000  O
  O67      1.0000 0.71910  0.97680  0.62850  Biso   1.000  O
  O68      1.0000 0.78090  0.52320  0.62850  Biso   1.000  O
  O69      1.0000 0.53090  0.22680  0.87850  Biso   1.000  O
  O70      1.0000 0.46910  0.77320  0.87850  Biso   1.000  O
  O71      1.0000 0.71910  0.47680  0.12850  Biso   1.000  O
  O72      1.0000 0.78090  0.02320  0.12850  Biso   1.000  O
  O73      1.0000 0.03090  0.72680  0.87850  Biso   1.000  O
  O74      1.0000 0.96910  0.27320  0.87850  Biso   1.000  O
  O75      1.0000 0.21910  0.97680  0.12850  Biso   1.000  O
  O76      1.0000 0.28090  0.52320  0.12850  Biso   1.000  O
  O77      1.0000 0.03090  0.22680  0.37850  Biso   1.000  O
  O78      1.0000 0.96910  0.77320  0.37850  Biso   1.000  O
  O79      1.0000 0.21910  0.47680  0.62850  Biso   1.000  O
  O80      1.0000 0.28090  0.02320  0.62850  Biso   1.000  O
  C193     1.0000 0.49460  0.75440  0.32100  Biso   1.000  C
  C194     1.0000 0.50540  0.24560  0.32100  Biso   1.000  C
  C195     1.0000 0.75540  0.00440  0.57100  Biso   1.000  C
  C196     1.0000 0.74460  0.49560  0.57100  Biso   1.000  C
  C197     1.0000 0.49460  0.25440  0.82100  Biso   1.000  C
  C198     1.0000 0.50540  0.74560  0.82100  Biso   1.000  C
  C199     1.0000 0.75540  0.50440  0.07100  Biso   1.000  C
  C200     1.0000 0.74460  0.99560  0.07100  Biso   1.000  C
  C201     1.0000 0.99460  0.75440  0.82100  Biso   1.000  C
  C202     1.0000 0.00540  0.24560  0.82100  Biso   1.000  C
  C203     1.0000 0.25540  0.00440  0.07100  Biso   1.000  C
  C204     1.0000 0.24460  0.49560  0.07100  Biso   1.000  C
  C205     1.0000 0.99460  0.25440  0.32100  Biso   1.000  C
  C206     1.0000 0.00540  0.74560  0.32100  Biso   1.000  C
  C207     1.0000 0.25540  0.50440  0.57100  Biso   1.000  C
  C208     1.0000 0.24460  0.99560  0.57100  Biso   1.000  C
  C209     1.0000 0.53570  0.70770  0.18300  Biso   1.000  C
  C210     1.0000 0.46430  0.29230  0.18300  Biso   1.000  C
  C211     1.0000 0.71430  0.95770  0.43300  Biso   1.000  C
  C212     1.0000 0.78570  0.54230  0.43300  Biso   1.000  C
  C213     1.0000 0.53570  0.20770  0.68300  Biso   1.000  C
  C214     1.0000 0.46430  0.79230  0.68300  Biso   1.000  C
  C215     1.0000 0.71430  0.45770  0.93300  Biso   1.000  C
  C216     1.0000 0.78570  0.04230  0.93300  Biso   1.000  C
  C217     1.0000 0.03570  0.70770  0.68300  Biso   1.000  C
  C218     1.0000 0.96430  0.29230  0.68300  Biso   1.000  C
  C219     1.0000 0.21430  0.95770  0.93300  Biso   1.000  C
  C220     1.0000 0.28570  0.54230  0.93300  Biso   1.000  C
  C221     1.0000 0.03570  0.20770  0.18300  Biso   1.000  C
  C222     1.0000 0.96430  0.79230  0.18300  Biso   1.000  C
  C223     1.0000 0.21430  0.45770  0.43300  Biso   1.000  C
  C224     1.0000 0.28570  0.04230  0.43300  Biso   1.000  C
  H129     1.0000 0.53694  0.68272  0.24073  Biso   1.000  H
  H130     1.0000 0.46306  0.31728  0.24073  Biso   1.000  H
  H131     1.0000 0.71306  0.93272  0.49073  Biso   1.000  H
  H132     1.0000 0.78694  0.56728  0.49073  Biso   1.000  H
  H133     1.0000 0.53694  0.18272  0.74073  Biso   1.000  H
  H134     1.0000 0.46306  0.81728  0.74073  Biso   1.000  H
  H135     1.0000 0.71306  0.43272  0.99073  Biso   1.000  H
  H136     1.0000 0.78694  0.06728  0.99073  Biso   1.000  H
  H137     1.0000 0.03694  0.68272  0.74073  Biso   1.000  H
  H138     1.0000 0.96306  0.31728  0.74073  Biso   1.000  H
  H139     1.0000 0.21306  0.93272  0.99073  Biso   1.000  H
  H140     1.0000 0.28694  0.56728  0.99073  Biso   1.000  H
  H141     1.0000 0.03694  0.18272  0.24073  Biso   1.000  H
  H142     1.0000 0.96306  0.81728  0.24073  Biso   1.000  H
  H143     1.0000 0.21306  0.43272  0.49073  Biso   1.000  H
  H144     1.0000 0.28694  0.06728  0.49073  Biso   1.000  H
  H145     1.0000 0.57481  0.72213  0.17141  Biso   1.000  H
  H146     1.0000 0.42519  0.27787  0.17141  Biso   1.000  H
  H147     1.0000 0.67519  0.97213  0.42141  Biso   1.000  H
  H148     1.0000 0.82481  0.52787  0.42141  Biso   1.000  H
  H149     1.0000 0.57481  0.22213  0.67141  Biso   1.000  H
  H150     1.0000 0.42519  0.77787  0.67141  Biso   1.000  H
  H151     1.0000 0.67519  0.47213  0.92141  Biso   1.000  H
  H152     1.0000 0.82481  0.02787  0.92141  Biso   1.000  H
  H153     1.0000 0.07481  0.72213  0.67141  Biso   1.000  H
  H154     1.0000 0.92519  0.27787  0.67141  Biso   1.000  H
  H155     1.0000 0.17519  0.97213  0.92141  Biso   1.000  H
  H156     1.0000 0.32481  0.52787  0.92141  Biso   1.000  H
  H157     1.0000 0.07481  0.22213  0.17141  Biso   1.000  H
  H158     1.0000 0.92519  0.77787  0.17141  Biso   1.000  H
  H159     1.0000 0.17519  0.47213  0.42141  Biso   1.000  H
  H160     1.0000 0.32481  0.02787  0.42141  Biso   1.000  H
  H161     1.0000 0.52258  0.68957  0.12001  Biso   1.000  H
  H162     1.0000 0.47742  0.31043  0.12001  Biso   1.000  H
  H163     1.0000 0.72742  0.93957  0.37001  Biso   1.000  H
  H164     1.0000 0.77258  0.56043  0.37001  Biso   1.000  H
  H165     1.0000 0.52258  0.18957  0.62001  Biso   1.000  H
  H166     1.0000 0.47742  0.81043  0.62001  Biso   1.000  H
  H167     1.0000 0.72742  0.43957  0.87001  Biso   1.000  H
  H168     1.0000 0.77258  0.06043  0.87001  Biso   1.000  H
  H169     1.0000 0.02258  0.68957  0.62001  Biso   1.000  H
  H170     1.0000 0.97742  0.31043  0.62001  Biso   1.000  H
  H171     1.0000 0.22742  0.93957  0.87001  Biso   1.000  H
  H172     1.0000 0.27258  0.56043  0.87001  Biso   1.000  H
  H173     1.0000 0.02258  0.18957  0.12001  Biso   1.000  H
  H174     1.0000 0.97742  0.81043  0.12001  Biso   1.000  H
  H175     1.0000 0.22742  0.43957  0.37001  Biso   1.000  H
  H176     1.0000 0.27258  0.06043  0.37001  Biso   1.000  H
  C225     1.0000 0.46400  0.78130  0.15400  Biso   1.000  C
  C226     1.0000 0.53600  0.21870  0.15400  Biso   1.000  C
  C227     1.0000 0.78600  0.03130  0.40400  Biso   1.000  C
  C228     1.0000 0.71400  0.46870  0.40400  Biso   1.000  C
  C229     1.0000 0.46400  0.28130  0.65400  Biso   1.000  C
  C230     1.0000 0.53600  0.71870  0.65400  Biso   1.000  C
  C231     1.0000 0.78600  0.53130  0.90400  Biso   1.000  C
  C232     1.0000 0.71400  0.96870  0.90400  Biso   1.000  C
  C233     1.0000 0.96400  0.78130  0.65400  Biso   1.000  C
  C234     1.0000 0.03600  0.21870  0.65400  Biso   1.000  C
  C235     1.0000 0.28600  0.03130  0.90400  Biso   1.000  C
  C236     1.0000 0.21400  0.46870  0.90400  Biso   1.000  C
  C237     1.0000 0.96400  0.28130  0.15400  Biso   1.000  C
  C238     1.0000 0.03600  0.71870  0.15400  Biso   1.000  C
  C239     1.0000 0.28600  0.53130  0.40400  Biso   1.000  C
  C240     1.0000 0.21400  0.96870  0.40400  Biso   1.000  C
  H177     1.0000 0.46830  0.81682  0.18230  Biso   1.000  H
  H178     1.0000 0.53170  0.18318  0.18230  Biso   1.000  H
  H179     1.0000 0.78170  0.06682  0.43230  Biso   1.000  H
  H180     1.0000 0.71830  0.43318  0.43230  Biso   1.000  H
  H181     1.0000 0.46830  0.31682  0.68230  Biso   1.000  H
  H182     1.0000 0.53170  0.68318  0.68230  Biso   1.000  H
  H183     1.0000 0.78170  0.56682  0.93230  Biso   1.000  H
  H184     1.0000 0.71830  0.93318  0.93230  Biso   1.000  H
  H185     1.0000 0.96830  0.81682  0.68230  Biso   1.000  H
  H186     1.0000 0.03170  0.18318  0.68230  Biso   1.000  H
  H187     1.0000 0.28170  0.06682  0.93230  Biso   1.000  H
  H188     1.0000 0.21830  0.43318  0.93230  Biso   1.000  H
  H189     1.0000 0.96830  0.31682  0.18230  Biso   1.000  H
  H190     1.0000 0.03170  0.68318  0.18230  Biso   1.000  H
  H191     1.0000 0.28170  0.56682  0.43230  Biso   1.000  H
  H192     1.0000 0.21830  0.93318  0.43230  Biso   1.000  H
  H193     1.0000 0.42311  0.77040  0.15917  Biso   1.000  H
  H194     1.0000 0.57689  0.22960  0.15917  Biso   1.000  H
  H195     1.0000 0.82689  0.02040  0.40917  Biso   1.000  H
  H196     1.0000 0.67311  0.47960  0.40917  Biso   1.000  H
  H197     1.0000 0.42311  0.27040  0.65917  Biso   1.000  H
  H198     1.0000 0.57689  0.72960  0.65917  Biso   1.000  H
  H199     1.0000 0.82689  0.52040  0.90917  Biso   1.000  H
  H200     1.0000 0.67311  0.97960  0.90917  Biso   1.000  H
  H201     1.0000 0.92311  0.77040  0.65917  Biso   1.000  H
  H202     1.0000 0.07689  0.22960  0.65917  Biso   1.000  H
  H203     1.0000 0.32689  0.02040  0.90917  Biso   1.000  H
  H204     1.0000 0.17311  0.47960  0.90917  Biso   1.000  H
  H205     1.0000 0.92311  0.27040  0.15917  Biso   1.000  H
  H206     1.0000 0.07689  0.72960  0.15917  Biso   1.000  H
  H207     1.0000 0.32689  0.52040  0.40917  Biso   1.000  H
  H208     1.0000 0.17311  0.97960  0.40917  Biso   1.000  H
  H209     1.0000 0.47621  0.78098  0.08136  Biso   1.000  H
  H210     1.0000 0.52379  0.21902  0.08136  Biso   1.000  H
  H211     1.0000 0.77379  0.03098  0.33136  Biso   1.000  H
  H212     1.0000 0.72621  0.46902  0.33136  Biso   1.000  H
  H213     1.0000 0.47621  0.28098  0.58136  Biso   1.000  H
  H214     1.0000 0.52379  0.71902  0.58136  Biso   1.000  H
  H215     1.0000 0.77379  0.53098  0.83136  Biso   1.000  H
  H216     1.0000 0.72621  0.96902  0.83136  Biso   1.000  H
  H217     1.0000 0.97621  0.78098  0.58136  Biso   1.000  H
  H218     1.0000 0.02379  0.21902  0.58136  Biso   1.000  H
  H219     1.0000 0.27379  0.03098  0.83136  Biso   1.000  H
  H220     1.0000 0.22621  0.46902  0.83136  Biso   1.000  H
  H221     1.0000 0.97621  0.28098  0.08136  Biso   1.000  H
  H222     1.0000 0.02379  0.71902  0.08136  Biso   1.000  H
  H223     1.0000 0.27379  0.53098  0.33136  Biso   1.000  H
  H224     1.0000 0.22621  0.96902  0.33136  Biso   1.000  H
  C241     1.0000 0.45300  0.79800  0.36000  Biso   1.000  C
  C242     1.0000 0.54700  0.20200  0.36000  Biso   1.000  C
  C243     1.0000 0.79700  0.04800  0.61000  Biso   1.000  C
  C244     1.0000 0.70300  0.45200  0.61000  Biso   1.000  C
  C245     1.0000 0.45300  0.29800  0.86000  Biso   1.000  C
  C246     1.0000 0.54700  0.70200  0.86000  Biso   1.000  C
  C247     1.0000 0.79700  0.54800  0.11000  Biso   1.000  C
  C248     1.0000 0.70300  0.95200  0.11000  Biso   1.000  C
  C249     1.0000 0.95300  0.79800  0.86000  Biso   1.000  C
  C250     1.0000 0.04700  0.20200  0.86000  Biso   1.000  C
  C251     1.0000 0.29700  0.04800  0.11000  Biso   1.000  C
  C252     1.0000 0.20300  0.45200  0.11000  Biso   1.000  C
  C253     1.0000 0.95300  0.29800  0.36000  Biso   1.000  C
  C254     1.0000 0.04700  0.70200  0.36000  Biso   1.000  C
  C255     1.0000 0.29700  0.54800  0.61000  Biso   1.000  C
  C256     1.0000 0.20300  0.95200  0.61000  Biso   1.000  C
  H225     1.0000 0.41728  0.79777  0.31837  Biso   1.000  H
  H226     1.0000 0.58272  0.20223  0.31837  Biso   1.000  H
  H227     1.0000 0.83272  0.04777  0.56837  Biso   1.000  H
  H228     1.0000 0.66728  0.45223  0.56837  Biso   1.000  H
  H229     1.0000 0.41728  0.29777  0.81837  Biso   1.000  H
  H230     1.0000 0.58272  0.70223  0.81837  Biso   1.000  H
  H231     1.0000 0.83272  0.54777  0.06837  Biso   1.000  H
  H232     1.0000 0.66728  0.95223  0.06837  Biso   1.000  H
  H233     1.0000 0.91728  0.79777  0.81837  Biso   1.000  H
  H234     1.0000 0.08272  0.20223  0.81837  Biso   1.000  H
  H235     1.0000 0.33272  0.04777  0.06837  Biso   1.000  H
  H236     1.0000 0.16728  0.45223  0.06837  Biso   1.000  H
  H237     1.0000 0.91728  0.29777  0.31837  Biso   1.000  H
  H238     1.0000 0.08272  0.70223  0.31837  Biso   1.000  H
  H239     1.0000 0.33272  0.54777  0.56837  Biso   1.000  H
  H240     1.0000 0.16728  0.95223  0.56837  Biso   1.000  H
  H241     1.0000 0.47225  0.83221  0.35332  Biso   1.000  H
  H242     1.0000 0.52775  0.16779  0.35332  Biso   1.000  H
  H243     1.0000 0.77775  0.08221  0.60332  Biso   1.000  H
  H244     1.0000 0.72225  0.41779  0.60332  Biso   1.000  H
  H245     1.0000 0.47225  0.33221  0.85332  Biso   1.000  H
  H246     1.0000 0.52775  0.66779  0.85332  Biso   1.000  H
  H247     1.0000 0.77775  0.58221  0.10332  Biso   1.000  H
  H248     1.0000 0.72225  0.91779  0.10332  Biso   1.000  H
  H249     1.0000 0.97225  0.83221  0.85332  Biso   1.000  H
  H250     1.0000 0.02775  0.16779  0.85332  Biso   1.000  H
  H251     1.0000 0.27775  0.08221  0.10332  Biso   1.000  H
  H252     1.0000 0.22225  0.41779  0.10332  Biso   1.000  H
  H253     1.0000 0.97225  0.33221  0.35332  Biso   1.000  H
  H254     1.0000 0.02775  0.66779  0.35332  Biso   1.000  H
  H255     1.0000 0.27775  0.58221  0.60332  Biso   1.000  H
  H256     1.0000 0.22225  0.91779  0.60332  Biso   1.000  H
  H257     1.0000 0.44326  0.79170  0.43295  Biso   1.000  H
  H258     1.0000 0.55674  0.20830  0.43295  Biso   1.000  H
  H259     1.0000 0.80674  0.04170  0.68295  Biso   1.000  H
  H260     1.0000 0.69326  0.45830  0.68295  Biso   1.000  H
  H261     1.0000 0.44326  0.29170  0.93295  Biso   1.000  H
  H262     1.0000 0.55674  0.70830  0.93295  Biso   1.000  H
  H263     1.0000 0.80674  0.54170  0.18295  Biso   1.000  H
  H264     1.0000 0.69326  0.95830  0.18295  Biso   1.000  H
  H265     1.0000 0.94326  0.79170  0.93295  Biso   1.000  H
  H266     1.0000 0.05674  0.20830  0.93295  Biso   1.000  H
  H267     1.0000 0.30674  0.04170  0.18295  Biso   1.000  H
  H268     1.0000 0.19326  0.45830  0.18295  Biso   1.000  H
  H269     1.0000 0.94326  0.29170  0.43295  Biso   1.000  H
  H270     1.0000 0.05674  0.70830  0.43295  Biso   1.000  H
  H271     1.0000 0.30674  0.54170  0.68295  Biso   1.000  H
  H272     1.0000 0.19326  0.95830  0.68295  Biso   1.000  H
