data_image0
_cell_length_a       18.8262
_cell_length_b       20.4911
_cell_length_c       23.5768
_cell_angle_alpha    90
_cell_angle_beta     100.834
_cell_angle_gamma    90

_symmetry_space_group_name_H-M    "P 1"
_symmetry_int_tables_number       1

loop_
  _symmetry_equiv_pos_as_xyz
  'x, y, z'

loop_
  _atom_site_label
  _atom_site_occupancy
  _atom_site_fract_x
  _atom_site_fract_y
  _atom_site_fract_z
  _atom_site_thermal_displace_type
  _atom_site_B_iso_or_equiv
  _atom_site_type_symbol
  Cu1      1.0000 0.84905  0.73028  0.84373  Biso   1.000  Cu
  Cu2      1.0000 0.15095  0.23028  0.65627  Biso   1.000  Cu
  Cu3      1.0000 0.15095  0.26972  0.15627  Biso   1.000  Cu
  Cu4      1.0000 0.84905  0.76972  0.34373  Biso   1.000  Cu
  I1       1.0000 0.82513  0.82290  0.91444  Biso   1.000  I
  I2       1.0000 0.17487  0.32290  0.58556  Biso   1.000  I
  I3       1.0000 0.17487  0.17710  0.08556  Biso   1.000  I
  I4       1.0000 0.82513  0.67710  0.41444  Biso   1.000  I
  S1       1.0000 0.78213  0.71966  0.75150  Biso   1.000  S
  S2       1.0000 0.21787  0.21966  0.74850  Biso   1.000  S
  S3       1.0000 0.21787  0.28034  0.24850  Biso   1.000  S
  S4       1.0000 0.78213  0.78034  0.25150  Biso   1.000  S
  I5       1.0000 0.82288  0.61578  0.90329  Biso   1.000  I
  I6       1.0000 0.17712  0.11578  0.59671  Biso   1.000  I
  I7       1.0000 0.17712  0.38422  0.09671  Biso   1.000  I
  I8       1.0000 0.82288  0.88422  0.40329  Biso   1.000  I
  S5       1.0000 0.72427  0.53165  0.74678  Biso   1.000  S
  S6       1.0000 0.27573  0.03165  0.75322  Biso   1.000  S
  S7       1.0000 0.27573  0.46835  0.25322  Biso   1.000  S
  S8       1.0000 0.72427  0.96835  0.24678  Biso   1.000  S
  Cu5      1.0000 0.65569  0.52507  0.65376  Biso   1.000  Cu
  Cu6      1.0000 0.34431  0.02507  0.84624  Biso   1.000  Cu
  Cu7      1.0000 0.34431  0.47493  0.34624  Biso   1.000  Cu
  Cu8      1.0000 0.65569  0.97493  0.15376  Biso   1.000  Cu
  I9       1.0000 0.66258  0.63422  0.59416  Biso   1.000  I
  I10      1.0000 0.33742  0.13422  0.90584  Biso   1.000  I
  I11      1.0000 0.33742  0.36578  0.40584  Biso   1.000  I
  I12      1.0000 0.66258  0.86578  0.09416  Biso   1.000  I
  S9       1.0000 0.61481  0.65253  0.79918  Biso   1.000  S
  S10      1.0000 0.38519  0.15253  0.70082  Biso   1.000  S
  S11      1.0000 0.38519  0.34747  0.20082  Biso   1.000  S
  S12      1.0000 0.61481  0.84747  0.29918  Biso   1.000  S
  Cu9      1.0000 0.51210  0.59475  0.75380  Biso   1.000  Cu
  Cu10     1.0000 0.48790  0.09475  0.74620  Biso   1.000  Cu
  Cu11     1.0000 0.48790  0.40525  0.24620  Biso   1.000  Cu
  Cu12     1.0000 0.51210  0.90525  0.25380  Biso   1.000  Cu
  I13      1.0000 0.67562  0.42619  0.58665  Biso   1.000  I
  I14      1.0000 0.32438  0.92619  0.91335  Biso   1.000  I
  I15      1.0000 0.32438  0.57381  0.41335  Biso   1.000  I
  I16      1.0000 0.67562  0.07381  0.08665  Biso   1.000  I
  S13      1.0000 0.54690  0.52227  0.68964  Biso   1.000  S
  S14      1.0000 0.45310  0.02227  0.81036  Biso   1.000  S
  S15      1.0000 0.45310  0.47773  0.31036  Biso   1.000  S
  S16      1.0000 0.54690  0.97773  0.18964  Biso   1.000  S
  Cu13     1.0000 0.35149  0.51993  0.84662  Biso   1.000  Cu
  Cu14     1.0000 0.64851  0.01993  0.65338  Biso   1.000  Cu
  Cu15     1.0000 0.64851  0.48007  0.15338  Biso   1.000  Cu
  Cu16     1.0000 0.35149  0.98007  0.34662  Biso   1.000  Cu
  I17      1.0000 0.32869  0.42953  0.91981  Biso   1.000  I
  I18      1.0000 0.67131  0.92953  0.58019  Biso   1.000  I
  I19      1.0000 0.67131  0.57047  0.08019  Biso   1.000  I
  I20      1.0000 0.32869  0.07047  0.41981  Biso   1.000  I
  S17      1.0000 0.41351  0.65759  0.71756  Biso   1.000  S
  S18      1.0000 0.58649  0.15759  0.78244  Biso   1.000  S
  S19      1.0000 0.58649  0.34241  0.28244  Biso   1.000  S
  S20      1.0000 0.41351  0.84241  0.21756  Biso   1.000  S
  I21      1.0000 0.32267  0.63755  0.90008  Biso   1.000  I
  I22      1.0000 0.67733  0.13755  0.59992  Biso   1.000  I
  I23      1.0000 0.67733  0.36245  0.09992  Biso   1.000  I
  I24      1.0000 0.32267  0.86245  0.40008  Biso   1.000  I
  S21      1.0000 0.46574  0.53081  0.82369  Biso   1.000  S
  S22      1.0000 0.53426  0.03081  0.67631  Biso   1.000  S
  S23      1.0000 0.53426  0.46919  0.17631  Biso   1.000  S
  S24      1.0000 0.46574  0.96919  0.32369  Biso   1.000  S
  Cu17     1.0000 0.15329  0.72426  0.65088  Biso   1.000  Cu
  Cu18     1.0000 0.84671  0.22426  0.84912  Biso   1.000  Cu
  Cu19     1.0000 0.84671  0.27574  0.34912  Biso   1.000  Cu
  Cu20     1.0000 0.15329  0.77574  0.15088  Biso   1.000  Cu
  I25      1.0000 0.17179  0.82146  0.58138  Biso   1.000  I
  I26      1.0000 0.82821  0.32146  0.91862  Biso   1.000  I
  I27      1.0000 0.82821  0.17854  0.41862  Biso   1.000  I
  I28      1.0000 0.17179  0.67854  0.08138  Biso   1.000  I
  S25      1.0000 0.28401  0.52877  0.75441  Biso   1.000  S
  S26      1.0000 0.71599  0.02877  0.74559  Biso   1.000  S
  S27      1.0000 0.71599  0.47123  0.24559  Biso   1.000  S
  S28      1.0000 0.28401  0.97123  0.25441  Biso   1.000  S
  Cu21     1.0000 0.01092  0.65491  0.75120  Biso   1.000  Cu
  Cu22     1.0000 0.98908  0.15491  0.74880  Biso   1.000  Cu
  Cu23     1.0000 0.98908  0.34509  0.24880  Biso   1.000  Cu
  Cu24     1.0000 0.01092  0.84509  0.25120  Biso   1.000  Cu
  I29      1.0000 0.16302  0.61194  0.59722  Biso   1.000  I
  I30      1.0000 0.83698  0.11194  0.90278  Biso   1.000  I
  I31      1.0000 0.83698  0.38806  0.40278  Biso   1.000  I
  I32      1.0000 0.16302  0.88806  0.09722  Biso   1.000  I
  S29      1.0000 0.22236  0.71945  0.74388  Biso   1.000  S
  S30      1.0000 0.77764  0.21945  0.75612  Biso   1.000  S
  S31      1.0000 0.77764  0.28055  0.25612  Biso   1.000  S
  S32      1.0000 0.22236  0.78055  0.24388  Biso   1.000  S
  S33      1.0000 0.04457  0.72761  0.68659  Biso   1.000  S
  S34      1.0000 0.95543  0.22761  0.81341  Biso   1.000  S
  S35      1.0000 0.95543  0.27239  0.31341  Biso   1.000  S
  S36      1.0000 0.04457  0.77239  0.18659  Biso   1.000  S
  S37      1.0000 0.11431  0.59808  0.79697  Biso   1.000  S
  S38      1.0000 0.88569  0.09808  0.70303  Biso   1.000  S
  S39      1.0000 0.88569  0.40192  0.20303  Biso   1.000  S
  S40      1.0000 0.11431  0.90192  0.29697  Biso   1.000  S
  S41      1.0000 0.96331  0.71886  0.82029  Biso   1.000  S
  S42      1.0000 0.03669  0.21886  0.67971  Biso   1.000  S
  S43      1.0000 0.03669  0.28114  0.17971  Biso   1.000  S
  S44      1.0000 0.96331  0.78114  0.32029  Biso   1.000  S
  C1       1.0000 0.70500  0.76790  0.74208  Biso   1.000  C
  C2       1.0000 0.29500  0.26790  0.75792  Biso   1.000  C
  C3       1.0000 0.29500  0.23210  0.25792  Biso   1.000  C
  C4       1.0000 0.70500  0.73210  0.24208  Biso   1.000  C
  S45      1.0000 0.91324  0.59102  0.71531  Biso   1.000  S
  S46      1.0000 0.08676  0.09102  0.78469  Biso   1.000  S
  S47      1.0000 0.08676  0.40898  0.28469  Biso   1.000  S
  S48      1.0000 0.91324  0.90898  0.21531  Biso   1.000  S
  N1       1.0000 0.69490  0.81210  0.78069  Biso   1.000  N
  N2       1.0000 0.30510  0.31210  0.71931  Biso   1.000  N
  N3       1.0000 0.30510  0.18790  0.21931  Biso   1.000  N
  N4       1.0000 0.69490  0.68790  0.28069  Biso   1.000  N
  H1       1.0000 0.72910  0.81820  0.81000  Biso   1.000  H
  H2       1.0000 0.27090  0.31820  0.69000  Biso   1.000  H
  H3       1.0000 0.27090  0.18180  0.19000  Biso   1.000  H
  H4       1.0000 0.72910  0.68180  0.31000  Biso   1.000  H
  C5       1.0000 0.62950  0.85100  0.77650  Biso   1.000  C
  C6       1.0000 0.37050  0.35100  0.72350  Biso   1.000  C
  C7       1.0000 0.37050  0.14900  0.22350  Biso   1.000  C
  C8       1.0000 0.62950  0.64900  0.27650  Biso   1.000  C
  H5       1.0000 0.64170  0.89400  0.79260  Biso   1.000  H
  H6       1.0000 0.35830  0.39400  0.70740  Biso   1.000  H
  H7       1.0000 0.35830  0.10600  0.20740  Biso   1.000  H
  H8       1.0000 0.64170  0.60600  0.29260  Biso   1.000  H
  H9       1.0000 0.59700  0.83050  0.79860  Biso   1.000  H
  H10      1.0000 0.40300  0.33050  0.70140  Biso   1.000  H
  H11      1.0000 0.40300  0.16950  0.20140  Biso   1.000  H
  H12      1.0000 0.59700  0.66950  0.29860  Biso   1.000  H
  C9       1.0000 0.59330  0.85720  0.71600  Biso   1.000  C
  C10      1.0000 0.40670  0.35720  0.78400  Biso   1.000  C
  C11      1.0000 0.40670  0.14280  0.28400  Biso   1.000  C
  C12      1.0000 0.59330  0.64280  0.21600  Biso   1.000  C
  H13      1.0000 0.61950  0.88880  0.69720  Biso   1.000  H
  H14      1.0000 0.38050  0.38880  0.80280  Biso   1.000  H
  H15      1.0000 0.38050  0.11120  0.30280  Biso   1.000  H
  H16      1.0000 0.61950  0.61120  0.19720  Biso   1.000  H
  H17      1.0000 0.54500  0.87410  0.71480  Biso   1.000  H
  H18      1.0000 0.45500  0.37410  0.78520  Biso   1.000  H
  H19      1.0000 0.45500  0.12590  0.28520  Biso   1.000  H
  H20      1.0000 0.54500  0.62590  0.21480  Biso   1.000  H
  C13      1.0000 0.58790  0.79570  0.68290  Biso   1.000  C
  C14      1.0000 0.41210  0.29570  0.81710  Biso   1.000  C
  C15      1.0000 0.41210  0.20430  0.31710  Biso   1.000  C
  C16      1.0000 0.58790  0.70430  0.18290  Biso   1.000  C
  H21      1.0000 0.55010  0.76870  0.69340  Biso   1.000  H
  H22      1.0000 0.44990  0.26870  0.80660  Biso   1.000  H
  H23      1.0000 0.44990  0.23130  0.30660  Biso   1.000  H
  H24      1.0000 0.55010  0.73130  0.19340  Biso   1.000  H
  H25      1.0000 0.57510  0.80520  0.64200  Biso   1.000  H
  H26      1.0000 0.42490  0.30520  0.85800  Biso   1.000  H
  H27      1.0000 0.42490  0.19480  0.35800  Biso   1.000  H
  H28      1.0000 0.57510  0.69480  0.14200  Biso   1.000  H
  N5       1.0000 0.65660  0.76040  0.69469  Biso   1.000  N
  N6       1.0000 0.34340  0.26040  0.80531  Biso   1.000  N
  N7       1.0000 0.34340  0.23960  0.30531  Biso   1.000  N
  N8       1.0000 0.65660  0.73960  0.19469  Biso   1.000  N
  H29      1.0000 0.66580  0.73330  0.66920  Biso   1.000  H
  H30      1.0000 0.33420  0.23330  0.83080  Biso   1.000  H
  H31      1.0000 0.33420  0.26670  0.33080  Biso   1.000  H
  H32      1.0000 0.66580  0.76670  0.16920  Biso   1.000  H
  C17      1.0000 0.79940  0.48220  0.75913  Biso   1.000  C
  C18      1.0000 0.20060  0.98220  0.74087  Biso   1.000  C
  C19      1.0000 0.20060  0.51780  0.24087  Biso   1.000  C
  C20      1.0000 0.79940  0.01780  0.25913  Biso   1.000  C
  N9       1.0000 0.84750  0.48799  0.80770  Biso   1.000  N
  N10      1.0000 0.15250  0.98799  0.69230  Biso   1.000  N
  N11      1.0000 0.15250  0.51201  0.19230  Biso   1.000  N
  N12      1.0000 0.84750  0.01201  0.30770  Biso   1.000  N
  H33      1.0000 0.83800  0.51460  0.83350  Biso   1.000  H
  H34      1.0000 0.16200  0.01460  0.66650  Biso   1.000  H
  H35      1.0000 0.16200  0.48540  0.16650  Biso   1.000  H
  H36      1.0000 0.83800  0.98540  0.33350  Biso   1.000  H
  C21      1.0000 0.91520  0.45200  0.82000  Biso   1.000  C
  C22      1.0000 0.08480  0.95200  0.68000  Biso   1.000  C
  C23      1.0000 0.08480  0.54800  0.18000  Biso   1.000  C
  C24      1.0000 0.91520  0.04800  0.32000  Biso   1.000  C
  H37      1.0000 0.95450  0.48250  0.83210  Biso   1.000  H
  H38      1.0000 0.04550  0.98250  0.66790  Biso   1.000  H
  H39      1.0000 0.04550  0.51750  0.16790  Biso   1.000  H
  H40      1.0000 0.95450  0.01750  0.33210  Biso   1.000  H
  H41      1.0000 0.91390  0.42230  0.85190  Biso   1.000  H
  H42      1.0000 0.08610  0.92230  0.64810  Biso   1.000  H
  H43      1.0000 0.08610  0.57770  0.14810  Biso   1.000  H
  H44      1.0000 0.91390  0.07770  0.35190  Biso   1.000  H
  C25      1.0000 0.90910  0.39060  0.78580  Biso   1.000  C
  C26      1.0000 0.09090  0.89060  0.71420  Biso   1.000  C
  C27      1.0000 0.09090  0.60940  0.21420  Biso   1.000  C
  C28      1.0000 0.90910  0.10940  0.28580  Biso   1.000  C
  H45      1.0000 0.95750  0.37960  0.78050  Biso   1.000  H
  H46      1.0000 0.04250  0.87960  0.71950  Biso   1.000  H
  H47      1.0000 0.04250  0.62040  0.21950  Biso   1.000  H
  H48      1.0000 0.95750  0.12040  0.28050  Biso   1.000  H
  H49      1.0000 0.89460  0.35670  0.81000  Biso   1.000  H
  H50      1.0000 0.10540  0.85670  0.69000  Biso   1.000  H
  H51      1.0000 0.10540  0.64330  0.19000  Biso   1.000  H
  H52      1.0000 0.89460  0.14330  0.31000  Biso   1.000  H
  C29      1.0000 0.86600  0.38520  0.73420  Biso   1.000  C
  C30      1.0000 0.13400  0.88520  0.76580  Biso   1.000  C
  C31      1.0000 0.13400  0.61480  0.26580  Biso   1.000  C
  C32      1.0000 0.86600  0.11480  0.23420  Biso   1.000  C
  H53      1.0000 0.84260  0.34280  0.73180  Biso   1.000  H
  H54      1.0000 0.15740  0.84280  0.76820  Biso   1.000  H
  H55      1.0000 0.15740  0.65720  0.26820  Biso   1.000  H
  H56      1.0000 0.84260  0.15720  0.23180  Biso   1.000  H
  H57      1.0000 0.89560  0.38670  0.70470  Biso   1.000  H
  H58      1.0000 0.10440  0.88670  0.79530  Biso   1.000  H
  H59      1.0000 0.10440  0.61330  0.29530  Biso   1.000  H
  H60      1.0000 0.89560  0.11330  0.20470  Biso   1.000  H
  N13      1.0000 0.80850  0.43720  0.72130  Biso   1.000  N
  N14      1.0000 0.19150  0.93720  0.77870  Biso   1.000  N
  N15      1.0000 0.19150  0.56280  0.27870  Biso   1.000  N
  N16      1.0000 0.80850  0.06280  0.22130  Biso   1.000  N
  H61      1.0000 0.77210  0.42510  0.69570  Biso   1.000  H
  H62      1.0000 0.22790  0.92510  0.80430  Biso   1.000  H
  H63      1.0000 0.22790  0.57490  0.30430  Biso   1.000  H
  H64      1.0000 0.77210  0.07490  0.19570  Biso   1.000  H
  C33      1.0000 0.60460  0.67840  0.86653  Biso   1.000  C
  C34      1.0000 0.39540  0.17840  0.63347  Biso   1.000  C
  C35      1.0000 0.39540  0.32160  0.13347  Biso   1.000  C
  C36      1.0000 0.60460  0.82160  0.36653  Biso   1.000  C
  N17      1.0000 0.54440  0.66720  0.88603  Biso   1.000  N
  N18      1.0000 0.45560  0.16720  0.61397  Biso   1.000  N
  N19      1.0000 0.45560  0.33280  0.11397  Biso   1.000  N
  N20      1.0000 0.54440  0.83280  0.38603  Biso   1.000  N
  H65      1.0000 0.50850  0.65030  0.86270  Biso   1.000  H
  H66      1.0000 0.49150  0.15030  0.63730  Biso   1.000  H
  H67      1.0000 0.49150  0.34970  0.13730  Biso   1.000  H
  H68      1.0000 0.50850  0.84970  0.36270  Biso   1.000  H
  C37      1.0000 0.53520  0.68180  0.94490  Biso   1.000  C
  C38      1.0000 0.46480  0.18180  0.55510  Biso   1.000  C
  C39      1.0000 0.46480  0.31820  0.05510  Biso   1.000  C
  C40      1.0000 0.53520  0.81820  0.44490  Biso   1.000  C
  H69      1.0000 0.54790  0.64380  0.96910  Biso   1.000  H
  H70      1.0000 0.45210  0.14380  0.53090  Biso   1.000  H
  H71      1.0000 0.45210  0.35620  0.03090  Biso   1.000  H
  H72      1.0000 0.54790  0.85620  0.46910  Biso   1.000  H
  H73      1.0000 0.48500  0.69240  0.94490  Biso   1.000  H
  H74      1.0000 0.51500  0.19240  0.55510  Biso   1.000  H
  H75      1.0000 0.51500  0.30760  0.05510  Biso   1.000  H
  H76      1.0000 0.48500  0.80760  0.44490  Biso   1.000  H
  C41      1.0000 0.58120  0.73670  0.96810  Biso   1.000  C
  C42      1.0000 0.41880  0.23670  0.53190  Biso   1.000  C
  C43      1.0000 0.41880  0.26330  0.03190  Biso   1.000  C
  C44      1.0000 0.58120  0.76330  0.46810  Biso   1.000  C
  H77      1.0000 0.58100  0.74060  0.00910  Biso   1.000  H
  H78      1.0000 0.41900  0.24060  0.49090  Biso   1.000  H
  H79      1.0000 0.41900  0.25940  0.99090  Biso   1.000  H
  H80      1.0000 0.58100  0.75940  0.50910  Biso   1.000  H
  H81      1.0000 0.56090  0.77660  0.94960  Biso   1.000  H
  H82      1.0000 0.43910  0.27660  0.55040  Biso   1.000  H
  H83      1.0000 0.43910  0.22340  0.05040  Biso   1.000  H
  H84      1.0000 0.56090  0.72340  0.44960  Biso   1.000  H
  C45      1.0000 0.65690  0.73000  0.95968  Biso   1.000  C
  C46      1.0000 0.34310  0.23000  0.54032  Biso   1.000  C
  C47      1.0000 0.34310  0.27000  0.04032  Biso   1.000  C
  C48      1.0000 0.65690  0.77000  0.45968  Biso   1.000  C
  H85      1.0000 0.68200  0.77120  0.96800  Biso   1.000  H
  H86      1.0000 0.31800  0.27120  0.53200  Biso   1.000  H
  H87      1.0000 0.31800  0.22880  0.03200  Biso   1.000  H
  H88      1.0000 0.68200  0.72880  0.46800  Biso   1.000  H
  H89      1.0000 0.68170  0.69740  0.98600  Biso   1.000  H
  H90      1.0000 0.31830  0.19740  0.51400  Biso   1.000  H
  H91      1.0000 0.31830  0.30260  0.01400  Biso   1.000  H
  H92      1.0000 0.68170  0.80260  0.48600  Biso   1.000  H
  N21      1.0000 0.65750  0.71061  0.90000  Biso   1.000  N
  N22      1.0000 0.34250  0.21061  0.60000  Biso   1.000  N
  N23      1.0000 0.34250  0.28939  0.10000  Biso   1.000  N
  N24      1.0000 0.65750  0.78939  0.40000  Biso   1.000  N
  H93      1.0000 0.69480  0.72080  0.88570  Biso   1.000  H
  H94      1.0000 0.30520  0.22080  0.61430  Biso   1.000  H
  H95      1.0000 0.30520  0.27920  0.11430  Biso   1.000  H
  H96      1.0000 0.69480  0.77920  0.38570  Biso   1.000  H
  C49      1.0000 0.47290  0.49890  0.63844  Biso   1.000  C
  C50      1.0000 0.52710  0.99890  0.86156  Biso   1.000  C
  C51      1.0000 0.52710  0.50110  0.36156  Biso   1.000  C
  C52      1.0000 0.47290  0.00110  0.13844  Biso   1.000  C
  N25      1.0000 0.48520  0.47020  0.59063  Biso   1.000  N
  N26      1.0000 0.51480  0.97020  0.90937  Biso   1.000  N
  N27      1.0000 0.51480  0.52980  0.40937  Biso   1.000  N
  N28      1.0000 0.48520  0.02980  0.09063  Biso   1.000  N
  H97      1.0000 0.52940  0.46500  0.58660  Biso   1.000  H
  H98      1.0000 0.47060  0.96500  0.91340  Biso   1.000  H
  H99      1.0000 0.47060  0.53500  0.41340  Biso   1.000  H
  H100     1.0000 0.52940  0.03500  0.08660  Biso   1.000  H
  C53      1.0000 0.42830  0.44710  0.54480  Biso   1.000  C
  C54      1.0000 0.57170  0.94710  0.95520  Biso   1.000  C
  C55      1.0000 0.57170  0.55290  0.45520  Biso   1.000  C
  C56      1.0000 0.42830  0.05290  0.04480  Biso   1.000  C
  H101     1.0000 0.44370  0.40710  0.52870  Biso   1.000  H
  H102     1.0000 0.55630  0.90710  0.97130  Biso   1.000  H
  H103     1.0000 0.55630  0.59290  0.47130  Biso   1.000  H
  H104     1.0000 0.44370  0.09290  0.02870  Biso   1.000  H
  H105     1.0000 0.41910  0.47940  0.51430  Biso   1.000  H
  H106     1.0000 0.58090  0.97940  0.98570  Biso   1.000  H
  H107     1.0000 0.58090  0.52060  0.48570  Biso   1.000  H
  H108     1.0000 0.41910  0.02060  0.01430  Biso   1.000  H
  C57      1.0000 0.36070  0.43470  0.56700  Biso   1.000  C
  C58      1.0000 0.63930  0.93470  0.93300  Biso   1.000  C
  C59      1.0000 0.63930  0.56530  0.43300  Biso   1.000  C
  C60      1.0000 0.36070  0.06530  0.06700  Biso   1.000  C
  H109     1.0000 0.36630  0.39530  0.59020  Biso   1.000  H
  H110     1.0000 0.63370  0.89530  0.90980  Biso   1.000  H
  H111     1.0000 0.63370  0.60470  0.40980  Biso   1.000  H
  H112     1.0000 0.36630  0.10470  0.09020  Biso   1.000  H
  H113     1.0000 0.32110  0.42780  0.53470  Biso   1.000  H
  H114     1.0000 0.67890  0.92780  0.96530  Biso   1.000  H
  H115     1.0000 0.67890  0.57220  0.46530  Biso   1.000  H
  H116     1.0000 0.32110  0.07220  0.03470  Biso   1.000  H
  C61      1.0000 0.34250  0.49070  0.60300  Biso   1.000  C
  C62      1.0000 0.65750  0.99070  0.89700  Biso   1.000  C
  C63      1.0000 0.65750  0.50930  0.39700  Biso   1.000  C
  C64      1.0000 0.34250  0.00930  0.10300  Biso   1.000  C
  H117     1.0000 0.32730  0.52810  0.57840  Biso   1.000  H
  H118     1.0000 0.67270  0.02810  0.92160  Biso   1.000  H
  H119     1.0000 0.67270  0.47190  0.42160  Biso   1.000  H
  H120     1.0000 0.32730  0.97190  0.07840  Biso   1.000  H
  H121     1.0000 0.30300  0.47850  0.62200  Biso   1.000  H
  H122     1.0000 0.69700  0.97850  0.87800  Biso   1.000  H
  H123     1.0000 0.69700  0.52150  0.37800  Biso   1.000  H
  H124     1.0000 0.30300  0.02150  0.12200  Biso   1.000  H
  N29      1.0000 0.40630  0.50780  0.64626  Biso   1.000  N
  N30      1.0000 0.59370  0.00780  0.85374  Biso   1.000  N
  N31      1.0000 0.59370  0.49220  0.35374  Biso   1.000  N
  N32      1.0000 0.40630  0.99220  0.14626  Biso   1.000  N
  H125     1.0000 0.39980  0.52450  0.67840  Biso   1.000  H
  H126     1.0000 0.60020  0.02450  0.82160  Biso   1.000  H
  H127     1.0000 0.60020  0.47550  0.32160  Biso   1.000  H
  H128     1.0000 0.39980  0.97550  0.17840  Biso   1.000  H
  C65      1.0000 0.40680  0.67030  0.64498  Biso   1.000  C
  C66      1.0000 0.59320  0.17030  0.85502  Biso   1.000  C
  C67      1.0000 0.59320  0.32970  0.35502  Biso   1.000  C
  C68      1.0000 0.40680  0.82970  0.14498  Biso   1.000  C
  N33      1.0000 0.46106  0.66010  0.61724  Biso   1.000  N
  N34      1.0000 0.53894  0.16010  0.88276  Biso   1.000  N
  N35      1.0000 0.53894  0.33990  0.38276  Biso   1.000  N
  N36      1.0000 0.46106  0.83990  0.11724  Biso   1.000  N
  H129     1.0000 0.50250  0.64960  0.63720  Biso   1.000  H
  H130     1.0000 0.49750  0.14960  0.86280  Biso   1.000  H
  H131     1.0000 0.49750  0.35040  0.36280  Biso   1.000  H
  H132     1.0000 0.50250  0.85040  0.13720  Biso   1.000  H
  C69      1.0000 0.45420  0.66560  0.55490  Biso   1.000  C
  C70      1.0000 0.54580  0.16560  0.94510  Biso   1.000  C
  C71      1.0000 0.54580  0.33440  0.44510  Biso   1.000  C
  C72      1.0000 0.45420  0.83440  0.05490  Biso   1.000  C
  H133     1.0000 0.43900  0.62410  0.53680  Biso   1.000  H
  H134     1.0000 0.56100  0.12410  0.96320  Biso   1.000  H
  H135     1.0000 0.56100  0.37590  0.46320  Biso   1.000  H
  H136     1.0000 0.43900  0.87590  0.03680  Biso   1.000  H
  H137     1.0000 0.50070  0.67680  0.54550  Biso   1.000  H
  H138     1.0000 0.49930  0.17680  0.95450  Biso   1.000  H
  H139     1.0000 0.49930  0.32320  0.45450  Biso   1.000  H
  H140     1.0000 0.50070  0.82320  0.04550  Biso   1.000  H
  C73      1.0000 0.39990  0.71720  0.53230  Biso   1.000  C
  C74      1.0000 0.60010  0.21720  0.96770  Biso   1.000  C
  C75      1.0000 0.60010  0.28280  0.46770  Biso   1.000  C
  C76      1.0000 0.39990  0.78280  0.03230  Biso   1.000  C
  H141     1.0000 0.41760  0.75970  0.54670  Biso   1.000  H
  H142     1.0000 0.58240  0.25970  0.95330  Biso   1.000  H
  H143     1.0000 0.58240  0.24030  0.45330  Biso   1.000  H
  H144     1.0000 0.41760  0.74030  0.04670  Biso   1.000  H
  H145     1.0000 0.39180  0.71820  0.49050  Biso   1.000  H
  H146     1.0000 0.60820  0.21820  0.00950  Biso   1.000  H
  H147     1.0000 0.60820  0.28180  0.50950  Biso   1.000  H
  H148     1.0000 0.39180  0.78180  0.99050  Biso   1.000  H
  C77      1.0000 0.33060  0.70190  0.55210  Biso   1.000  C
  C78      1.0000 0.66940  0.20190  0.94790  Biso   1.000  C
  C79      1.0000 0.66940  0.29810  0.44790  Biso   1.000  C
  C80      1.0000 0.33060  0.79810  0.05210  Biso   1.000  C
  H149     1.0000 0.29710  0.73790  0.54260  Biso   1.000  H
  H150     1.0000 0.70290  0.23790  0.95740  Biso   1.000  H
  H151     1.0000 0.70290  0.26210  0.45740  Biso   1.000  H
  H152     1.0000 0.29710  0.76210  0.04260  Biso   1.000  H
  H153     1.0000 0.30880  0.66330  0.53230  Biso   1.000  H
  H154     1.0000 0.69120  0.16330  0.96770  Biso   1.000  H
  H155     1.0000 0.69120  0.33670  0.46770  Biso   1.000  H
  H156     1.0000 0.30880  0.83670  0.03230  Biso   1.000  H
  N37      1.0000 0.34460  0.69070  0.61459  Biso   1.000  N
  N38      1.0000 0.65540  0.19070  0.88541  Biso   1.000  N
  N39      1.0000 0.65540  0.30930  0.38541  Biso   1.000  N
  N40      1.0000 0.34460  0.80930  0.11459  Biso   1.000  N
  H157     1.0000 0.30980  0.69790  0.63280  Biso   1.000  H
  H158     1.0000 0.69020  0.19790  0.86720  Biso   1.000  H
  H159     1.0000 0.69020  0.30210  0.36720  Biso   1.000  H
  H160     1.0000 0.30980  0.80210  0.13280  Biso   1.000  H
  C81      1.0000 0.53470  0.49570  0.87264  Biso   1.000  C
  C82      1.0000 0.46530  0.99570  0.62736  Biso   1.000  C
  C83      1.0000 0.46530  0.50430  0.12736  Biso   1.000  C
  C84      1.0000 0.53470  0.00430  0.37264  Biso   1.000  C
  N41      1.0000 0.60260  0.50350  0.86770  Biso   1.000  N
  N42      1.0000 0.39740  0.00350  0.63230  Biso   1.000  N
  N43      1.0000 0.39740  0.49650  0.13230  Biso   1.000  N
  N44      1.0000 0.60260  0.99650  0.36770  Biso   1.000  N
  H161     1.0000 0.61170  0.52540  0.83880  Biso   1.000  H
  H162     1.0000 0.38830  0.02540  0.66120  Biso   1.000  H
  H163     1.0000 0.38830  0.47460  0.16120  Biso   1.000  H
  H164     1.0000 0.61170  0.97460  0.33880  Biso   1.000  H
  C85      1.0000 0.66400  0.47670  0.90910  Biso   1.000  C
  C86      1.0000 0.33600  0.97670  0.59090  Biso   1.000  C
  C87      1.0000 0.33600  0.52330  0.09090  Biso   1.000  C
  C88      1.0000 0.66400  0.02330  0.40910  Biso   1.000  C
  H165     1.0000 0.68140  0.50890  0.93860  Biso   1.000  H
  H166     1.0000 0.31860  0.00890  0.56140  Biso   1.000  H
  H167     1.0000 0.31860  0.49110  0.06140  Biso   1.000  H
  H168     1.0000 0.68140  0.99110  0.43860  Biso   1.000  H
  H169     1.0000 0.70320  0.46610  0.88930  Biso   1.000  H
  H170     1.0000 0.29680  0.96610  0.61070  Biso   1.000  H
  H171     1.0000 0.29680  0.53390  0.11070  Biso   1.000  H
  H172     1.0000 0.70320  0.03390  0.38930  Biso   1.000  H
  C89      1.0000 0.64020  0.41670  0.93650  Biso   1.000  C
  C90      1.0000 0.35980  0.91670  0.56350  Biso   1.000  C
  C91      1.0000 0.35980  0.58330  0.06350  Biso   1.000  C
  C92      1.0000 0.64020  0.08330  0.43650  Biso   1.000  C
  H173     1.0000 0.63140  0.38200  0.90810  Biso   1.000  H
  H174     1.0000 0.36860  0.88200  0.59190  Biso   1.000  H
  H175     1.0000 0.36860  0.61800  0.09190  Biso   1.000  H
  H176     1.0000 0.63140  0.11800  0.40810  Biso   1.000  H
  H177     1.0000 0.67840  0.40260  0.96760  Biso   1.000  H
  H178     1.0000 0.32160  0.90260  0.53240  Biso   1.000  H
  H179     1.0000 0.32160  0.59740  0.03240  Biso   1.000  H
  H180     1.0000 0.67840  0.09740  0.46760  Biso   1.000  H
  C93      1.0000 0.57300  0.42910  0.95970  Biso   1.000  C
  C94      1.0000 0.42700  0.92910  0.54030  Biso   1.000  C
  C95      1.0000 0.42700  0.57090  0.04030  Biso   1.000  C
  C96      1.0000 0.57300  0.07090  0.45970  Biso   1.000  C
  H181     1.0000 0.55410  0.38810  0.97110  Biso   1.000  H
  H182     1.0000 0.44590  0.88810  0.52890  Biso   1.000  H
  H183     1.0000 0.44590  0.61190  0.02890  Biso   1.000  H
  H184     1.0000 0.55410  0.11190  0.47110  Biso   1.000  H
  H185     1.0000 0.58410  0.45680  0.99360  Biso   1.000  H
  H186     1.0000 0.41590  0.95680  0.50640  Biso   1.000  H
  H187     1.0000 0.41590  0.54320  0.00640  Biso   1.000  H
  H188     1.0000 0.58410  0.04320  0.49360  Biso   1.000  H
  N45      1.0000 0.51880  0.46070  0.91607  Biso   1.000  N
  N46      1.0000 0.48120  0.96070  0.58393  Biso   1.000  N
  N47      1.0000 0.48120  0.53930  0.08393  Biso   1.000  N
  N48      1.0000 0.51880  0.03930  0.41607  Biso   1.000  N
  H189     1.0000 0.47410  0.45640  0.91850  Biso   1.000  H
  H190     1.0000 0.52590  0.95640  0.58150  Biso   1.000  H
  H191     1.0000 0.52590  0.54360  0.08150  Biso   1.000  H
  H192     1.0000 0.47410  0.04360  0.41850  Biso   1.000  H
  C97      1.0000 0.20740  0.48020  0.74537  Biso   1.000  C
  C98      1.0000 0.79260  0.98020  0.75463  Biso   1.000  C
  C99      1.0000 0.79260  0.51980  0.25463  Biso   1.000  C
  C100     1.0000 0.20740  0.01980  0.24537  Biso   1.000  C
  N49      1.0000 0.19770  0.43710  0.78511  Biso   1.000  N
  N50      1.0000 0.80230  0.93710  0.71489  Biso   1.000  N
  N51      1.0000 0.80230  0.56290  0.21489  Biso   1.000  N
  N52      1.0000 0.19770  0.06290  0.28511  Biso   1.000  N
  H193     1.0000 0.23190  0.43180  0.81460  Biso   1.000  H
  H194     1.0000 0.76810  0.93180  0.68540  Biso   1.000  H
  H195     1.0000 0.76810  0.56820  0.18540  Biso   1.000  H
  H196     1.0000 0.23190  0.06820  0.31460  Biso   1.000  H
  C101     1.0000 0.13190  0.39790  0.78160  Biso   1.000  C
  C102     1.0000 0.86810  0.89790  0.71840  Biso   1.000  C
  C103     1.0000 0.86810  0.60210  0.21840  Biso   1.000  C
  C104     1.0000 0.13190  0.10210  0.28160  Biso   1.000  C
  H197     1.0000 0.14430  0.35530  0.79850  Biso   1.000  H
  H198     1.0000 0.85570  0.85530  0.70150  Biso   1.000  H
  H199     1.0000 0.85570  0.64470  0.20150  Biso   1.000  H
  H200     1.0000 0.14430  0.14470  0.29850  Biso   1.000  H
  H201     1.0000 0.09950  0.41900  0.80340  Biso   1.000  H
  H202     1.0000 0.90050  0.91900  0.69660  Biso   1.000  H
  H203     1.0000 0.90050  0.58100  0.19660  Biso   1.000  H
  H204     1.0000 0.09950  0.08100  0.30340  Biso   1.000  H
  C105     1.0000 0.09530  0.39010  0.72140  Biso   1.000  C
  C106     1.0000 0.90470  0.89010  0.77860  Biso   1.000  C
  C107     1.0000 0.90470  0.60990  0.27860  Biso   1.000  C
  C108     1.0000 0.09530  0.10990  0.22140  Biso   1.000  C
  H205     1.0000 0.04710  0.37300  0.72070  Biso   1.000  H
  H206     1.0000 0.95290  0.87300  0.77930  Biso   1.000  H
  H207     1.0000 0.95290  0.62700  0.27930  Biso   1.000  H
  H208     1.0000 0.04710  0.12700  0.22070  Biso   1.000  H
  H209     1.0000 0.12150  0.35830  0.70290  Biso   1.000  H
  H210     1.0000 0.87850  0.85830  0.79710  Biso   1.000  H
  H211     1.0000 0.87850  0.64170  0.29710  Biso   1.000  H
  H212     1.0000 0.12150  0.14170  0.20290  Biso   1.000  H
  C109     1.0000 0.08950  0.45170  0.68780  Biso   1.000  C
  C110     1.0000 0.91050  0.95170  0.81220  Biso   1.000  C
  C111     1.0000 0.91050  0.54830  0.31220  Biso   1.000  C
  C112     1.0000 0.08950  0.04830  0.18780  Biso   1.000  C
  H213     1.0000 0.07550  0.44200  0.64690  Biso   1.000  H
  H214     1.0000 0.92450  0.94200  0.85310  Biso   1.000  H
  H215     1.0000 0.92450  0.55800  0.35310  Biso   1.000  H
  H216     1.0000 0.07550  0.05800  0.14690  Biso   1.000  H
  H217     1.0000 0.05240  0.47920  0.69880  Biso   1.000  H
  H218     1.0000 0.94760  0.97920  0.80120  Biso   1.000  H
  H219     1.0000 0.94760  0.52080  0.30120  Biso   1.000  H
  H220     1.0000 0.05240  0.02080  0.19880  Biso   1.000  H
  N53      1.0000 0.15820  0.48639  0.69813  Biso   1.000  N
  N54      1.0000 0.84180  0.98639  0.80187  Biso   1.000  N
  N55      1.0000 0.84180  0.51361  0.30187  Biso   1.000  N
  N56      1.0000 0.15820  0.01361  0.19813  Biso   1.000  N
  H221     1.0000 0.16720  0.51250  0.67180  Biso   1.000  H
  H222     1.0000 0.83280  0.01250  0.82820  Biso   1.000  H
  H223     1.0000 0.83280  0.48750  0.32820  Biso   1.000  H
  H224     1.0000 0.16720  0.98750  0.17180  Biso   1.000  H
  C113     1.0000 0.29700  0.76990  0.75600  Biso   1.000  C
  C114     1.0000 0.70300  0.26990  0.74400  Biso   1.000  C
  C115     1.0000 0.70300  0.23010  0.24400  Biso   1.000  C
  C116     1.0000 0.29700  0.73010  0.25600  Biso   1.000  C
  N57      1.0000 0.30460  0.81490  0.71744  Biso   1.000  N
  N58      1.0000 0.69540  0.31490  0.78256  Biso   1.000  N
  N59      1.0000 0.69540  0.18510  0.28256  Biso   1.000  N
  N60      1.0000 0.30460  0.68510  0.21744  Biso   1.000  N
  H225     1.0000 0.27170  0.81840  0.68690  Biso   1.000  H
  H226     1.0000 0.72830  0.31840  0.81310  Biso   1.000  H
  H227     1.0000 0.72830  0.18160  0.31310  Biso   1.000  H
  H228     1.0000 0.27170  0.68160  0.18690  Biso   1.000  H
  C117     1.0000 0.36680  0.85890  0.72490  Biso   1.000  C
  C118     1.0000 0.63320  0.35890  0.77510  Biso   1.000  C
  C119     1.0000 0.63320  0.14110  0.27510  Biso   1.000  C
  C120     1.0000 0.36680  0.64110  0.22490  Biso   1.000  C
  H229     1.0000 0.39140  0.85300  0.69260  Biso   1.000  H
  H230     1.0000 0.60860  0.35300  0.80740  Biso   1.000  H
  H231     1.0000 0.60860  0.14700  0.30740  Biso   1.000  H
  H232     1.0000 0.39140  0.64700  0.19260  Biso   1.000  H
  H233     1.0000 0.34920  0.90350  0.72340  Biso   1.000  H
  H234     1.0000 0.65080  0.40350  0.77660  Biso   1.000  H
  H235     1.0000 0.65080  0.09650  0.27660  Biso   1.000  H
  H236     1.0000 0.34920  0.59650  0.22340  Biso   1.000  H
  C121     1.0000 0.41460  0.85110  0.77360  Biso   1.000  C
  C122     1.0000 0.58540  0.35110  0.72640  Biso   1.000  C
  C123     1.0000 0.58540  0.14890  0.22640  Biso   1.000  C
  C124     1.0000 0.41460  0.64890  0.27360  Biso   1.000  C
  H237     1.0000 0.41560  0.89210  0.79420  Biso   1.000  H
  H238     1.0000 0.58440  0.39210  0.70580  Biso   1.000  H
  H239     1.0000 0.58440  0.10790  0.20580  Biso   1.000  H
  H240     1.0000 0.41560  0.60790  0.29420  Biso   1.000  H
  H241     1.0000 0.46130  0.84700  0.76220  Biso   1.000  H
  H242     1.0000 0.53870  0.34700  0.73780  Biso   1.000  H
  H243     1.0000 0.53870  0.15300  0.23780  Biso   1.000  H
  H244     1.0000 0.46130  0.65300  0.26220  Biso   1.000  H
  C125     1.0000 0.41270  0.80160  0.81520  Biso   1.000  C
  C126     1.0000 0.58730  0.30160  0.68480  Biso   1.000  C
  C127     1.0000 0.58730  0.19840  0.18480  Biso   1.000  C
  C128     1.0000 0.41270  0.69840  0.31520  Biso   1.000  C
  H245     1.0000 0.41870  0.82130  0.85320  Biso   1.000  H
  H246     1.0000 0.58130  0.32130  0.64680  Biso   1.000  H
  H247     1.0000 0.58130  0.17870  0.14680  Biso   1.000  H
  H248     1.0000 0.41870  0.67870  0.35320  Biso   1.000  H
  H249     1.0000 0.45270  0.77180  0.81520  Biso   1.000  H
  H250     1.0000 0.54730  0.27180  0.68480  Biso   1.000  H
  H251     1.0000 0.54730  0.22820  0.18480  Biso   1.000  H
  H252     1.0000 0.45270  0.72820  0.31520  Biso   1.000  H
  N61      1.0000 0.34490  0.76510  0.80383  Biso   1.000  N
  N62      1.0000 0.65510  0.26510  0.69617  Biso   1.000  N
  N63      1.0000 0.65510  0.23490  0.19617  Biso   1.000  N
  N64      1.0000 0.34490  0.73490  0.30383  Biso   1.000  N
  H253     1.0000 0.33600  0.73880  0.83010  Biso   1.000  H
  H254     1.0000 0.66400  0.23880  0.66990  Biso   1.000  H
  H255     1.0000 0.66400  0.26120  0.16990  Biso   1.000  H
  H256     1.0000 0.33600  0.76120  0.33010  Biso   1.000  H
  C129     1.0000 0.97120  0.75020  0.63547  Biso   1.000  C
  C130     1.0000 0.02880  0.25020  0.86453  Biso   1.000  C
  C131     1.0000 0.02880  0.24980  0.36453  Biso   1.000  C
  C132     1.0000 0.97120  0.74980  0.13547  Biso   1.000  C
  N65      1.0000 0.90420  0.74013  0.64269  Biso   1.000  N
  N66      1.0000 0.09580  0.24013  0.85731  Biso   1.000  N
  N67      1.0000 0.09580  0.25987  0.35731  Biso   1.000  N
  N68      1.0000 0.90420  0.75987  0.14269  Biso   1.000  N
  H257     1.0000 0.89770  0.72270  0.67450  Biso   1.000  H
  H258     1.0000 0.10230  0.22270  0.82550  Biso   1.000  H
  H259     1.0000 0.10230  0.27730  0.32550  Biso   1.000  H
  H260     1.0000 0.89770  0.77730  0.17450  Biso   1.000  H
  C133     1.0000 0.84020  0.75730  0.59900  Biso   1.000  C
  C134     1.0000 0.15980  0.25730  0.90100  Biso   1.000  C
  C135     1.0000 0.15980  0.24270  0.40100  Biso   1.000  C
  C136     1.0000 0.84020  0.74270  0.09900  Biso   1.000  C
  H261     1.0000 0.80020  0.76830  0.61790  Biso   1.000  H
  H262     1.0000 0.19980  0.26830  0.88210  Biso   1.000  H
  H263     1.0000 0.19980  0.23170  0.38210  Biso   1.000  H
  H264     1.0000 0.80020  0.73170  0.11790  Biso   1.000  H
  H265     1.0000 0.82590  0.72050  0.57370  Biso   1.000  H
  H266     1.0000 0.17410  0.22050  0.92630  Biso   1.000  H
  H267     1.0000 0.17410  0.27950  0.42630  Biso   1.000  H
  H268     1.0000 0.82590  0.77950  0.07370  Biso   1.000  H
  C137     1.0000 0.85810  0.81470  0.56450  Biso   1.000  C
  C138     1.0000 0.14190  0.31470  0.93550  Biso   1.000  C
  C139     1.0000 0.14190  0.18530  0.43550  Biso   1.000  C
  C140     1.0000 0.85810  0.68530  0.06450  Biso   1.000  C
  H269     1.0000 0.81840  0.82240  0.53250  Biso   1.000  H
  H270     1.0000 0.18160  0.32240  0.96750  Biso   1.000  H
  H271     1.0000 0.18160  0.17760  0.46750  Biso   1.000  H
  H272     1.0000 0.81840  0.67760  0.03250  Biso   1.000  H
  H273     1.0000 0.86370  0.85330  0.58870  Biso   1.000  H
  H274     1.0000 0.13630  0.35330  0.91130  Biso   1.000  H
  H275     1.0000 0.13630  0.14670  0.41130  Biso   1.000  H
  H276     1.0000 0.86370  0.64670  0.08870  Biso   1.000  H
  C141     1.0000 0.92550  0.80360  0.54180  Biso   1.000  C
  C142     1.0000 0.07450  0.30360  0.95820  Biso   1.000  C
  C143     1.0000 0.07450  0.19640  0.45820  Biso   1.000  C
  C144     1.0000 0.92550  0.69640  0.04180  Biso   1.000  C
  H277     1.0000 0.91690  0.77130  0.51120  Biso   1.000  H
  H278     1.0000 0.08310  0.27130  0.98880  Biso   1.000  H
  H279     1.0000 0.08310  0.22870  0.48880  Biso   1.000  H
  H280     1.0000 0.91690  0.72870  0.01120  Biso   1.000  H
  H281     1.0000 0.94050  0.84390  0.52590  Biso   1.000  H
  H282     1.0000 0.05950  0.34390  0.97410  Biso   1.000  H
  H283     1.0000 0.05950  0.15610  0.47410  Biso   1.000  H
  H284     1.0000 0.94050  0.65610  0.02590  Biso   1.000  H
  N69      1.0000 0.98240  0.78070  0.58844  Biso   1.000  N
  N70      1.0000 0.01760  0.28070  0.91156  Biso   1.000  N
  N71      1.0000 0.01760  0.21930  0.41156  Biso   1.000  N
  N72      1.0000 0.98240  0.71930  0.08844  Biso   1.000  N
  H285     1.0000 0.02650  0.78760  0.58510  Biso   1.000  H
  H286     1.0000 0.97350  0.28760  0.91490  Biso   1.000  H
  H287     1.0000 0.97350  0.21240  0.41490  Biso   1.000  H
  H288     1.0000 0.02650  0.71240  0.08510  Biso   1.000  H
  C145     1.0000 0.10590  0.57460  0.86547  Biso   1.000  C
  C146     1.0000 0.89410  0.07460  0.63453  Biso   1.000  C
  C147     1.0000 0.89410  0.42540  0.13453  Biso   1.000  C
  C148     1.0000 0.10590  0.92540  0.36547  Biso   1.000  C
  N73      1.0000 0.04600  0.58720  0.88544  Biso   1.000  N
  N74      1.0000 0.95400  0.08720  0.61456  Biso   1.000  N
  N75      1.0000 0.95400  0.41280  0.11456  Biso   1.000  N
  N76      1.0000 0.04600  0.91280  0.38544  Biso   1.000  N
  H289     1.0000 0.00970  0.60320  0.86200  Biso   1.000  H
  H290     1.0000 0.99030  0.10320  0.63800  Biso   1.000  H
  H291     1.0000 0.99030  0.39680  0.13800  Biso   1.000  H
  H292     1.0000 0.00970  0.89680  0.36200  Biso   1.000  H
  C149     1.0000 0.03840  0.57540  0.94510  Biso   1.000  C
  C150     1.0000 0.96160  0.07540  0.55490  Biso   1.000  C
  C151     1.0000 0.96160  0.42460  0.05490  Biso   1.000  C
  C152     1.0000 0.03840  0.92460  0.44510  Biso   1.000  C
  H293     1.0000 0.98810  0.56680  0.94660  Biso   1.000  H
  H294     1.0000 0.01190  0.06680  0.55340  Biso   1.000  H
  H295     1.0000 0.01190  0.43320  0.05340  Biso   1.000  H
  H296     1.0000 0.98810  0.93320  0.44660  Biso   1.000  H
  H297     1.0000 0.05360  0.61380  0.96840  Biso   1.000  H
  H298     1.0000 0.94640  0.11380  0.53160  Biso   1.000  H
  H299     1.0000 0.94640  0.38620  0.03160  Biso   1.000  H
  H300     1.0000 0.05360  0.88620  0.46840  Biso   1.000  H
  C153     1.0000 0.08410  0.51790  0.96900  Biso   1.000  C
  C154     1.0000 0.91590  0.01790  0.53100  Biso   1.000  C
  C155     1.0000 0.91590  0.48210  0.03100  Biso   1.000  C
  C156     1.0000 0.08410  0.98210  0.46900  Biso   1.000  C
  H301     1.0000 0.08420  0.51370  0.01000  Biso   1.000  H
  H302     1.0000 0.91580  0.01370  0.49000  Biso   1.000  H
  H303     1.0000 0.91580  0.48630  0.99000  Biso   1.000  H
  H304     1.0000 0.08420  0.98630  0.51000  Biso   1.000  H
  H305     1.0000 0.06380  0.47820  0.95010  Biso   1.000  H
  H306     1.0000 0.93620  0.97820  0.54990  Biso   1.000  H
  H307     1.0000 0.93620  0.52180  0.04990  Biso   1.000  H
  H308     1.0000 0.06380  0.02180  0.45010  Biso   1.000  H
  C157     1.0000 0.15990  0.52660  0.95950  Biso   1.000  C
  C158     1.0000 0.84010  0.02660  0.54050  Biso   1.000  C
  C159     1.0000 0.84010  0.47340  0.04050  Biso   1.000  C
  C160     1.0000 0.15990  0.97340  0.45950  Biso   1.000  C
  H309     1.0000 0.18340  0.56110  0.98430  Biso   1.000  H
  H310     1.0000 0.81660  0.06110  0.51570  Biso   1.000  H
  H311     1.0000 0.81660  0.43890  0.01570  Biso   1.000  H
  H312     1.0000 0.18340  0.93890  0.48430  Biso   1.000  H
  H313     1.0000 0.18700  0.48660  0.96940  Biso   1.000  H
  H314     1.0000 0.81300  0.98660  0.53060  Biso   1.000  H
  H315     1.0000 0.81300  0.51340  0.03060  Biso   1.000  H
  H316     1.0000 0.18700  0.01340  0.46940  Biso   1.000  H
  N77      1.0000 0.15930  0.54320  0.89925  Biso   1.000  N
  N78      1.0000 0.84070  0.04320  0.60075  Biso   1.000  N
  N79      1.0000 0.84070  0.45680  0.10075  Biso   1.000  N
  N80      1.0000 0.15930  0.95680  0.39925  Biso   1.000  N
  H317     1.0000 0.19600  0.53180  0.88470  Biso   1.000  H
  H318     1.0000 0.80400  0.03180  0.61530  Biso   1.000  H
  H319     1.0000 0.80400  0.46820  0.11530  Biso   1.000  H
  H320     1.0000 0.19600  0.96820  0.38470  Biso   1.000  H
  C161     1.0000 0.03210  0.75390  0.86902  Biso   1.000  C
  C162     1.0000 0.96790  0.25390  0.63098  Biso   1.000  C
  C163     1.0000 0.96790  0.24610  0.13098  Biso   1.000  C
  C164     1.0000 0.03210  0.74610  0.36902  Biso   1.000  C
  N81      1.0000 0.10030  0.74730  0.86422  Biso   1.000  N
  N82      1.0000 0.89970  0.24730  0.63578  Biso   1.000  N
  N83      1.0000 0.89970  0.25270  0.13578  Biso   1.000  N
  N84      1.0000 0.10030  0.75270  0.36422  Biso   1.000  N
  H321     1.0000 0.10960  0.72600  0.83500  Biso   1.000  H
  H322     1.0000 0.89040  0.22600  0.66500  Biso   1.000  H
  H323     1.0000 0.89040  0.27400  0.16500  Biso   1.000  H
  H324     1.0000 0.10960  0.77400  0.33500  Biso   1.000  H
  C165     1.0000 0.16140  0.77410  0.90570  Biso   1.000  C
  C166     1.0000 0.83860  0.27410  0.59430  Biso   1.000  C
  C167     1.0000 0.83860  0.22590  0.09430  Biso   1.000  C
  C168     1.0000 0.16140  0.72590  0.40570  Biso   1.000  C
  H325     1.0000 0.20030  0.78580  0.88590  Biso   1.000  H
  H326     1.0000 0.79970  0.28580  0.61410  Biso   1.000  H
  H327     1.0000 0.79970  0.21420  0.11410  Biso   1.000  H
  H328     1.0000 0.20030  0.71420  0.38590  Biso   1.000  H
  H329     1.0000 0.17950  0.74150  0.93470  Biso   1.000  H
  H330     1.0000 0.82050  0.24150  0.56530  Biso   1.000  H
  H331     1.0000 0.82050  0.25850  0.06530  Biso   1.000  H
  H332     1.0000 0.17950  0.75850  0.43470  Biso   1.000  H
  C169     1.0000 0.13660  0.83320  0.93390  Biso   1.000  C
  C170     1.0000 0.86340  0.33320  0.56610  Biso   1.000  C
  C171     1.0000 0.86340  0.16680  0.06610  Biso   1.000  C
  C172     1.0000 0.13660  0.66680  0.43390  Biso   1.000  C
  H333     1.0000 0.12680  0.86820  0.90580  Biso   1.000  H
  H334     1.0000 0.87320  0.36820  0.59420  Biso   1.000  H
  H335     1.0000 0.87320  0.13180  0.09420  Biso   1.000  H
  H336     1.0000 0.12680  0.63180  0.40580  Biso   1.000  H
  H337     1.0000 0.17480  0.84750  0.96490  Biso   1.000  H
  H338     1.0000 0.82520  0.34750  0.53510  Biso   1.000  H
  H339     1.0000 0.82520  0.15250  0.03510  Biso   1.000  H
  H340     1.0000 0.17480  0.65250  0.46490  Biso   1.000  H
  C173     1.0000 0.06960  0.81920  0.95760  Biso   1.000  C
  C174     1.0000 0.93040  0.31920  0.54240  Biso   1.000  C
  C175     1.0000 0.93040  0.18080  0.04240  Biso   1.000  C
  C176     1.0000 0.06960  0.68080  0.45760  Biso   1.000  C
  H341     1.0000 0.08110  0.79040  0.99070  Biso   1.000  H
  H342     1.0000 0.91890  0.29040  0.50930  Biso   1.000  H
  H343     1.0000 0.91890  0.20960  0.00930  Biso   1.000  H
  H344     1.0000 0.08110  0.70960  0.49070  Biso   1.000  H
  H345     1.0000 0.05020  0.85950  0.97010  Biso   1.000  H
  H346     1.0000 0.94980  0.35950  0.52990  Biso   1.000  H
  H347     1.0000 0.94980  0.14050  0.02990  Biso   1.000  H
  H348     1.0000 0.05020  0.64050  0.47010  Biso   1.000  H
  N85      1.0000 0.01620  0.78840  0.91260  Biso   1.000  N
  N86      1.0000 0.98380  0.28840  0.58740  Biso   1.000  N
  N87      1.0000 0.98380  0.21160  0.08740  Biso   1.000  N
  N88      1.0000 0.01620  0.71160  0.41260  Biso   1.000  N
  H349     1.0000 0.97130  0.79300  0.91440  Biso   1.000  H
  H350     1.0000 0.02870  0.29300  0.58560  Biso   1.000  H
  H351     1.0000 0.02870  0.20700  0.08560  Biso   1.000  H
  H352     1.0000 0.97130  0.70700  0.41440  Biso   1.000  H
  C177     1.0000 0.90710  0.57670  0.64265  Biso   1.000  C
  C178     1.0000 0.09290  0.07670  0.85735  Biso   1.000  C
  C179     1.0000 0.09290  0.42330  0.35735  Biso   1.000  C
  C180     1.0000 0.90710  0.92330  0.14265  Biso   1.000  C
  N89      1.0000 0.96250  0.58570  0.61619  Biso   1.000  N
  N90      1.0000 0.03750  0.08570  0.88381  Biso   1.000  N
  N91      1.0000 0.03750  0.41430  0.38381  Biso   1.000  N
  N92      1.0000 0.96250  0.91430  0.11619  Biso   1.000  N
  H353     1.0000 0.00350  0.59670  0.63680  Biso   1.000  H
  H354     1.0000 0.99650  0.09670  0.86320  Biso   1.000  H
  H355     1.0000 0.99650  0.40330  0.36320  Biso   1.000  H
  H356     1.0000 0.00350  0.90330  0.13680  Biso   1.000  H
  C181     1.0000 0.95780  0.57810  0.55390  Biso   1.000  C
  C182     1.0000 0.04220  0.07810  0.94610  Biso   1.000  C
  C183     1.0000 0.04220  0.42190  0.44610  Biso   1.000  C
  C184     1.0000 0.95780  0.92190  0.05390  Biso   1.000  C
  H357     1.0000 0.00430  0.56440  0.54600  Biso   1.000  H
  H358     1.0000 0.99570  0.06440  0.95400  Biso   1.000  H
  H359     1.0000 0.99570  0.43560  0.45400  Biso   1.000  H
  H360     1.0000 0.00430  0.93560  0.04600  Biso   1.000  H
  H361     1.0000 0.94520  0.61950  0.53480  Biso   1.000  H
  H362     1.0000 0.05480  0.11950  0.96520  Biso   1.000  H
  H363     1.0000 0.05480  0.38050  0.46520  Biso   1.000  H
  H364     1.0000 0.94520  0.88050  0.03480  Biso   1.000  H
  C185     1.0000 0.90170  0.52820  0.53130  Biso   1.000  C
  C186     1.0000 0.09830  0.02820  0.96870  Biso   1.000  C
  C187     1.0000 0.09830  0.47180  0.46870  Biso   1.000  C
  C188     1.0000 0.90170  0.97180  0.03130  Biso   1.000  C
  H365     1.0000 0.89400  0.52730  0.48950  Biso   1.000  H
  H366     1.0000 0.10600  0.02730  0.01050  Biso   1.000  H
  H367     1.0000 0.10600  0.47270  0.51050  Biso   1.000  H
  H368     1.0000 0.89400  0.97270  0.98950  Biso   1.000  H
  H369     1.0000 0.91820  0.48540  0.54560  Biso   1.000  H
  H370     1.0000 0.08180  0.98540  0.95440  Biso   1.000  H
  H371     1.0000 0.08180  0.51460  0.45440  Biso   1.000  H
  H372     1.0000 0.91820  0.01460  0.04560  Biso   1.000  H
  C189     1.0000 0.83230  0.54420  0.55020  Biso   1.000  C
  C190     1.0000 0.16770  0.04420  0.94980  Biso   1.000  C
  C191     1.0000 0.16770  0.45580  0.44980  Biso   1.000  C
  C192     1.0000 0.83230  0.95580  0.05020  Biso   1.000  C
  H373     1.0000 0.81090  0.58260  0.52980  Biso   1.000  H
  H374     1.0000 0.18910  0.08260  0.97020  Biso   1.000  H
  H375     1.0000 0.18910  0.41740  0.47020  Biso   1.000  H
  H376     1.0000 0.81090  0.91740  0.02980  Biso   1.000  H
  H377     1.0000 0.79870  0.50820  0.54090  Biso   1.000  H
  H378     1.0000 0.20130  0.00820  0.95910  Biso   1.000  H
  H379     1.0000 0.20130  0.49180  0.45910  Biso   1.000  H
  H380     1.0000 0.79870  0.99180  0.04090  Biso   1.000  H
  N93      1.0000 0.84540  0.55630  0.61207  Biso   1.000  N
  N94      1.0000 0.15460  0.05630  0.88793  Biso   1.000  N
  N95      1.0000 0.15460  0.44370  0.38793  Biso   1.000  N
  N96      1.0000 0.84540  0.94370  0.11207  Biso   1.000  N
  H381     1.0000 0.81020  0.54960  0.62990  Biso   1.000  H
  H382     1.0000 0.18980  0.04960  0.87010  Biso   1.000  H
  H383     1.0000 0.18980  0.45040  0.37010  Biso   1.000  H
  H384     1.0000 0.81020  0.95040  0.12990  Biso   1.000  H
  Cu25     1.0000 0.76670  0.62120  0.70180  Biso   1.000  Cu
  Cu26     1.0000 0.23330  0.12120  0.79820  Biso   1.000  Cu
  Cu27     1.0000 0.23330  0.37880  0.29820  Biso   1.000  Cu
  Cu28     1.0000 0.76670  0.87880  0.20180  Biso   1.000  Cu
  Cu29     1.0000 0.26780  0.62290  0.71070  Biso   1.000  Cu
  Cu30     1.0000 0.73220  0.12290  0.78930  Biso   1.000  Cu
  Cu31     1.0000 0.73220  0.37710  0.28930  Biso   1.000  Cu
  Cu32     1.0000 0.26780  0.87710  0.21070  Biso   1.000  Cu
  C193     1.0000 0.92900  0.41580  0.77190  Biso   1.000  C
  C194     1.0000 0.07100  0.91580  0.72810  Biso   1.000  C
  C195     1.0000 0.07100  0.58420  0.22810  Biso   1.000  C
  C196     1.0000 0.92900  0.08420  0.27190  Biso   1.000  C
  H385     1.0000 0.97100  0.43540  0.76040  Biso   1.000  H
  H386     1.0000 0.02900  0.93540  0.73960  Biso   1.000  H
  H387     1.0000 0.02900  0.56460  0.23960  Biso   1.000  H
  H388     1.0000 0.97100  0.06460  0.26040  Biso   1.000  H
  H389     1.0000 0.94340  0.37240  0.78600  Biso   1.000  H
  H390     1.0000 0.05660  0.87240  0.71400  Biso   1.000  H
  H391     1.0000 0.05660  0.62760  0.21400  Biso   1.000  H
  H392     1.0000 0.94340  0.12760  0.28600  Biso   1.000  H
  C197     1.0000 0.87750  0.40780  0.72190  Biso   1.000  C
  C198     1.0000 0.12250  0.90780  0.77810  Biso   1.000  C
  C199     1.0000 0.12250  0.59220  0.27810  Biso   1.000  C
  C200     1.0000 0.87750  0.09220  0.22190  Biso   1.000  C
  H393     1.0000 0.87030  0.36140  0.71500  Biso   1.000  H
  H394     1.0000 0.12970  0.86140  0.78500  Biso   1.000  H
  H395     1.0000 0.12970  0.63860  0.28500  Biso   1.000  H
  H396     1.0000 0.87030  0.13860  0.21500  Biso   1.000  H
  H397     1.0000 0.89700  0.42550  0.68980  Biso   1.000  H
  H398     1.0000 0.10300  0.92550  0.81020  Biso   1.000  H
  H399     1.0000 0.10300  0.57450  0.31020  Biso   1.000  H
  H400     1.0000 0.89700  0.07450  0.18980  Biso   1.000  H
  Cu33     1.0000 0.73819  0.62760  0.79815  Biso   1.000  Cu
  Cu34     1.0000 0.26181  0.12760  0.70185  Biso   1.000  Cu
  Cu35     1.0000 0.26181  0.37240  0.20185  Biso   1.000  Cu
  Cu36     1.0000 0.73819  0.87240  0.29815  Biso   1.000  Cu
  Cu37     1.0000 0.23774  0.62346  0.79537  Biso   1.000  Cu
  Cu38     1.0000 0.76226  0.12346  0.70463  Biso   1.000  Cu
  Cu39     1.0000 0.76226  0.37654  0.20463  Biso   1.000  Cu
  Cu40     1.0000 0.23774  0.87654  0.29537  Biso   1.000  Cu
