data_image0
_cell_length_a       29.445
_cell_length_b       36.14
_cell_length_c       27.14
_cell_angle_alpha    90
_cell_angle_beta     90
_cell_angle_gamma    90

_symmetry_space_group_name_H-M    "P 1"
_symmetry_int_tables_number       1

loop_
  _symmetry_equiv_pos_as_xyz
  'x, y, z'

loop_
  _atom_site_label
  _atom_site_occupancy
  _atom_site_fract_x
  _atom_site_fract_y
  _atom_site_fract_z
  _atom_site_thermal_displace_type
  _atom_site_B_iso_or_equiv
  _atom_site_type_symbol
  Cu1      1.0000 0.80712  0.23396  0.29338  Biso   1.000  Cu
  Cu2      1.0000 0.69288  0.76604  0.29338  Biso   1.000  Cu
  Cu3      1.0000 0.30712  0.76604  0.20662  Biso   1.000  Cu
  Cu4      1.0000 0.19288  0.23396  0.20662  Biso   1.000  Cu
  Cu5      1.0000 0.30712  0.73396  0.29338  Biso   1.000  Cu
  Cu6      1.0000 0.19288  0.26604  0.29338  Biso   1.000  Cu
  Cu7      1.0000 0.80712  0.26604  0.20662  Biso   1.000  Cu
  Cu8      1.0000 0.69288  0.73396  0.20662  Biso   1.000  Cu
  Cu9      1.0000 0.19288  0.76604  0.70662  Biso   1.000  Cu
  Cu10     1.0000 0.30712  0.23396  0.70662  Biso   1.000  Cu
  Cu11     1.0000 0.69288  0.23396  0.79338  Biso   1.000  Cu
  Cu12     1.0000 0.80712  0.76604  0.79338  Biso   1.000  Cu
  Cu13     1.0000 0.69288  0.26604  0.70662  Biso   1.000  Cu
  Cu14     1.0000 0.80712  0.73396  0.70662  Biso   1.000  Cu
  Cu15     1.0000 0.19288  0.73396  0.79338  Biso   1.000  Cu
  Cu16     1.0000 0.30712  0.26604  0.79338  Biso   1.000  Cu
  Cu17     1.0000 0.48439  0.00030  0.45412  Biso   1.000  Cu
  Cu18     1.0000 0.01561  0.99970  0.45412  Biso   1.000  Cu
  Cu19     1.0000 0.98439  0.99970  0.04588  Biso   1.000  Cu
  Cu20     1.0000 0.51561  0.00030  0.04588  Biso   1.000  Cu
  Cu21     1.0000 0.98439  0.50030  0.45412  Biso   1.000  Cu
  Cu22     1.0000 0.51561  0.49970  0.45412  Biso   1.000  Cu
  Cu23     1.0000 0.48439  0.49970  0.04588  Biso   1.000  Cu
  Cu24     1.0000 0.01561  0.50030  0.04588  Biso   1.000  Cu
  Cu25     1.0000 0.51561  0.99970  0.54588  Biso   1.000  Cu
  Cu26     1.0000 0.98439  0.00030  0.54588  Biso   1.000  Cu
  Cu27     1.0000 0.01561  0.00030  0.95412  Biso   1.000  Cu
  Cu28     1.0000 0.48439  0.99970  0.95412  Biso   1.000  Cu
  Cu29     1.0000 0.01561  0.49970  0.54588  Biso   1.000  Cu
  Cu30     1.0000 0.48439  0.50030  0.54588  Biso   1.000  Cu
  Cu31     1.0000 0.51561  0.50030  0.95412  Biso   1.000  Cu
  Cu32     1.0000 0.98439  0.49970  0.95412  Biso   1.000  Cu
  C1       1.0000 0.90140  0.20720  0.27790  Biso   1.000  C
  C2       1.0000 0.59860  0.79280  0.27790  Biso   1.000  C
  C3       1.0000 0.40140  0.79280  0.22210  Biso   1.000  C
  C4       1.0000 0.09860  0.20720  0.22210  Biso   1.000  C
  C5       1.0000 0.40140  0.70720  0.27790  Biso   1.000  C
  C6       1.0000 0.09860  0.29280  0.27790  Biso   1.000  C
  C7       1.0000 0.90140  0.29280  0.22210  Biso   1.000  C
  C8       1.0000 0.59860  0.70720  0.22210  Biso   1.000  C
  C9       1.0000 0.09860  0.79280  0.72210  Biso   1.000  C
  C10      1.0000 0.40140  0.20720  0.72210  Biso   1.000  C
  C11      1.0000 0.59860  0.20720  0.77790  Biso   1.000  C
  C12      1.0000 0.90140  0.79280  0.77790  Biso   1.000  C
  C13      1.0000 0.59860  0.29280  0.72210  Biso   1.000  C
  C14      1.0000 0.90140  0.70720  0.72210  Biso   1.000  C
  C15      1.0000 0.09860  0.70720  0.77790  Biso   1.000  C
  C16      1.0000 0.40140  0.29280  0.77790  Biso   1.000  C
  H1       1.0000 0.89290  0.20850  0.24490  Biso   1.000  H
  H2       1.0000 0.60710  0.79150  0.24490  Biso   1.000  H
  H3       1.0000 0.39290  0.79150  0.25510  Biso   1.000  H
  H4       1.0000 0.10710  0.20850  0.25510  Biso   1.000  H
  H5       1.0000 0.39290  0.70850  0.24490  Biso   1.000  H
  H6       1.0000 0.10710  0.29150  0.24490  Biso   1.000  H
  H7       1.0000 0.89290  0.29150  0.25510  Biso   1.000  H
  H8       1.0000 0.60710  0.70850  0.25510  Biso   1.000  H
  H9       1.0000 0.10710  0.79150  0.75510  Biso   1.000  H
  H10      1.0000 0.39290  0.20850  0.75510  Biso   1.000  H
  H11      1.0000 0.60710  0.20850  0.74490  Biso   1.000  H
  H12      1.0000 0.89290  0.79150  0.74490  Biso   1.000  H
  H13      1.0000 0.60710  0.29150  0.75510  Biso   1.000  H
  H14      1.0000 0.89290  0.70850  0.75510  Biso   1.000  H
  H15      1.0000 0.10710  0.70850  0.74490  Biso   1.000  H
  H16      1.0000 0.39290  0.29150  0.74490  Biso   1.000  H
  C17      1.0000 0.94430  0.19410  0.28970  Biso   1.000  C
  C18      1.0000 0.55570  0.80590  0.28970  Biso   1.000  C
  C19      1.0000 0.44430  0.80590  0.21030  Biso   1.000  C
  C20      1.0000 0.05570  0.19410  0.21030  Biso   1.000  C
  C21      1.0000 0.44430  0.69410  0.28970  Biso   1.000  C
  C22      1.0000 0.05570  0.30590  0.28970  Biso   1.000  C
  C23      1.0000 0.94430  0.30590  0.21030  Biso   1.000  C
  C24      1.0000 0.55570  0.69410  0.21030  Biso   1.000  C
  C25      1.0000 0.05570  0.80590  0.71030  Biso   1.000  C
  C26      1.0000 0.44430  0.19410  0.71030  Biso   1.000  C
  C27      1.0000 0.55570  0.19410  0.78970  Biso   1.000  C
  C28      1.0000 0.94430  0.80590  0.78970  Biso   1.000  C
  C29      1.0000 0.55570  0.30590  0.71030  Biso   1.000  C
  C30      1.0000 0.94430  0.69410  0.71030  Biso   1.000  C
  C31      1.0000 0.05570  0.69410  0.78970  Biso   1.000  C
  C32      1.0000 0.44430  0.30590  0.78970  Biso   1.000  C
  H17      1.0000 0.96420  0.18820  0.26420  Biso   1.000  H
  H18      1.0000 0.53580  0.81180  0.26420  Biso   1.000  H
  H19      1.0000 0.46420  0.81180  0.23580  Biso   1.000  H
  H20      1.0000 0.03580  0.18820  0.23580  Biso   1.000  H
  H21      1.0000 0.46420  0.68820  0.26420  Biso   1.000  H
  H22      1.0000 0.03580  0.31180  0.26420  Biso   1.000  H
  H23      1.0000 0.96420  0.31180  0.23580  Biso   1.000  H
  H24      1.0000 0.53580  0.68820  0.23580  Biso   1.000  H
  H25      1.0000 0.03580  0.81180  0.73580  Biso   1.000  H
  H26      1.0000 0.46420  0.18820  0.73580  Biso   1.000  H
  H27      1.0000 0.53580  0.18820  0.76420  Biso   1.000  H
  H28      1.0000 0.96420  0.81180  0.76420  Biso   1.000  H
  H29      1.0000 0.53580  0.31180  0.73580  Biso   1.000  H
  H30      1.0000 0.96420  0.68820  0.73580  Biso   1.000  H
  H31      1.0000 0.03580  0.68820  0.76420  Biso   1.000  H
  H32      1.0000 0.46420  0.31180  0.76420  Biso   1.000  H
  C33      1.0000 0.88720  0.21780  0.36090  Biso   1.000  C
  C34      1.0000 0.61280  0.78220  0.36090  Biso   1.000  C
  C35      1.0000 0.38720  0.78220  0.13910  Biso   1.000  C
  C36      1.0000 0.11280  0.21780  0.13910  Biso   1.000  C
  C37      1.0000 0.38720  0.71780  0.36090  Biso   1.000  C
  C38      1.0000 0.11280  0.28220  0.36090  Biso   1.000  C
  C39      1.0000 0.88720  0.28220  0.13910  Biso   1.000  C
  C40      1.0000 0.61280  0.71780  0.13910  Biso   1.000  C
  C41      1.0000 0.11280  0.78220  0.63910  Biso   1.000  C
  C42      1.0000 0.38720  0.21780  0.63910  Biso   1.000  C
  C43      1.0000 0.61280  0.21780  0.86090  Biso   1.000  C
  C44      1.0000 0.88720  0.78220  0.86090  Biso   1.000  C
  C45      1.0000 0.61280  0.28220  0.63910  Biso   1.000  C
  C46      1.0000 0.88720  0.71780  0.63910  Biso   1.000  C
  C47      1.0000 0.11280  0.71780  0.86090  Biso   1.000  C
  C48      1.0000 0.38720  0.28220  0.86090  Biso   1.000  C
  H33      1.0000 0.86870  0.22840  0.38480  Biso   1.000  H
  H34      1.0000 0.63130  0.77160  0.38480  Biso   1.000  H
  H35      1.0000 0.36870  0.77160  0.11520  Biso   1.000  H
  H36      1.0000 0.13130  0.22840  0.11520  Biso   1.000  H
  H37      1.0000 0.36870  0.72840  0.38480  Biso   1.000  H
  H38      1.0000 0.13130  0.27160  0.38480  Biso   1.000  H
  H39      1.0000 0.86870  0.27160  0.11520  Biso   1.000  H
  H40      1.0000 0.63130  0.72840  0.11520  Biso   1.000  H
  H41      1.0000 0.13130  0.77160  0.61520  Biso   1.000  H
  H42      1.0000 0.36870  0.22840  0.61520  Biso   1.000  H
  H43      1.0000 0.63130  0.22840  0.88480  Biso   1.000  H
  H44      1.0000 0.86870  0.77160  0.88480  Biso   1.000  H
  H45      1.0000 0.63130  0.27160  0.61520  Biso   1.000  H
  H46      1.0000 0.86870  0.72840  0.61520  Biso   1.000  H
  H47      1.0000 0.13130  0.72840  0.88480  Biso   1.000  H
  H48      1.0000 0.36870  0.27160  0.88480  Biso   1.000  H
  C49      1.0000 0.92620  0.20320  0.37390  Biso   1.000  C
  C50      1.0000 0.57380  0.79680  0.37390  Biso   1.000  C
  C51      1.0000 0.42620  0.79680  0.12610  Biso   1.000  C
  C52      1.0000 0.07380  0.20320  0.12610  Biso   1.000  C
  C53      1.0000 0.42620  0.70320  0.37390  Biso   1.000  C
  C54      1.0000 0.07380  0.29680  0.37390  Biso   1.000  C
  C55      1.0000 0.92620  0.29680  0.12610  Biso   1.000  C
  C56      1.0000 0.57380  0.70320  0.12610  Biso   1.000  C
  C57      1.0000 0.07380  0.79680  0.62610  Biso   1.000  C
  C58      1.0000 0.42620  0.20320  0.62610  Biso   1.000  C
  C59      1.0000 0.57380  0.20320  0.87390  Biso   1.000  C
  C60      1.0000 0.92620  0.79680  0.87390  Biso   1.000  C
  C61      1.0000 0.57380  0.29680  0.62610  Biso   1.000  C
  C62      1.0000 0.92620  0.70320  0.62610  Biso   1.000  C
  C63      1.0000 0.07380  0.70320  0.87390  Biso   1.000  C
  C64      1.0000 0.42620  0.29680  0.87390  Biso   1.000  C
  H49      1.0000 0.93330  0.20140  0.40720  Biso   1.000  H
  H50      1.0000 0.56670  0.79860  0.40720  Biso   1.000  H
  H51      1.0000 0.43330  0.79860  0.09280  Biso   1.000  H
  H52      1.0000 0.06670  0.20140  0.09280  Biso   1.000  H
  H53      1.0000 0.43330  0.70140  0.40720  Biso   1.000  H
  H54      1.0000 0.06670  0.29860  0.40720  Biso   1.000  H
  H55      1.0000 0.93330  0.29860  0.09280  Biso   1.000  H
  H56      1.0000 0.56670  0.70140  0.09280  Biso   1.000  H
  H57      1.0000 0.06670  0.79860  0.59280  Biso   1.000  H
  H58      1.0000 0.43330  0.20140  0.59280  Biso   1.000  H
  H59      1.0000 0.56670  0.20140  0.90720  Biso   1.000  H
  H60      1.0000 0.93330  0.79860  0.90720  Biso   1.000  H
  H61      1.0000 0.56670  0.29860  0.59280  Biso   1.000  H
  H62      1.0000 0.93330  0.70140  0.59280  Biso   1.000  H
  H63      1.0000 0.06670  0.70140  0.90720  Biso   1.000  H
  H64      1.0000 0.43330  0.29860  0.90720  Biso   1.000  H
  C65      1.0000 0.95870  0.18950  0.33724  Biso   1.000  C
  C66      1.0000 0.54130  0.81050  0.33724  Biso   1.000  C
  C67      1.0000 0.45870  0.81050  0.16276  Biso   1.000  C
  C68      1.0000 0.04130  0.18950  0.16276  Biso   1.000  C
  C69      1.0000 0.45870  0.68950  0.33724  Biso   1.000  C
  C70      1.0000 0.04130  0.31050  0.33724  Biso   1.000  C
  C71      1.0000 0.95870  0.31050  0.16276  Biso   1.000  C
  C72      1.0000 0.54130  0.68950  0.16276  Biso   1.000  C
  C73      1.0000 0.04130  0.81050  0.66276  Biso   1.000  C
  C74      1.0000 0.45870  0.18950  0.66276  Biso   1.000  C
  C75      1.0000 0.54130  0.18950  0.83724  Biso   1.000  C
  C76      1.0000 0.95870  0.81050  0.83724  Biso   1.000  C
  C77      1.0000 0.54130  0.31050  0.66276  Biso   1.000  C
  C78      1.0000 0.95870  0.68950  0.66276  Biso   1.000  C
  C79      1.0000 0.04130  0.68950  0.83724  Biso   1.000  C
  C80      1.0000 0.45870  0.31050  0.83724  Biso   1.000  C
  C81      1.0000 0.00444  0.17350  0.35171  Biso   1.000  C
  C82      1.0000 0.49556  0.82650  0.35171  Biso   1.000  C
  C83      1.0000 0.50444  0.82650  0.14829  Biso   1.000  C
  C84      1.0000 0.99556  0.17350  0.14829  Biso   1.000  C
  C85      1.0000 0.50444  0.67350  0.35171  Biso   1.000  C
  C86      1.0000 0.99556  0.32650  0.35171  Biso   1.000  C
  C87      1.0000 0.00444  0.32650  0.14829  Biso   1.000  C
  C88      1.0000 0.49556  0.67350  0.14829  Biso   1.000  C
  C89      1.0000 0.99556  0.82650  0.64829  Biso   1.000  C
  C90      1.0000 0.50444  0.17350  0.64829  Biso   1.000  C
  C91      1.0000 0.49556  0.17350  0.85171  Biso   1.000  C
  C92      1.0000 0.00444  0.82650  0.85171  Biso   1.000  C
  C93      1.0000 0.49556  0.32650  0.64829  Biso   1.000  C
  C94      1.0000 0.00444  0.67350  0.64829  Biso   1.000  C
  C95      1.0000 0.99556  0.67350  0.85171  Biso   1.000  C
  C96      1.0000 0.50444  0.32650  0.85171  Biso   1.000  C
  C97      1.0000 0.03860  0.17300  0.31770  Biso   1.000  C
  C98      1.0000 0.46140  0.82700  0.31770  Biso   1.000  C
  C99      1.0000 0.53860  0.82700  0.18230  Biso   1.000  C
  C100     1.0000 0.96140  0.17300  0.18230  Biso   1.000  C
  C101     1.0000 0.53860  0.67300  0.31770  Biso   1.000  C
  C102     1.0000 0.96140  0.32700  0.31770  Biso   1.000  C
  C103     1.0000 0.03860  0.32700  0.18230  Biso   1.000  C
  C104     1.0000 0.46140  0.67300  0.18230  Biso   1.000  C
  C105     1.0000 0.96140  0.82700  0.68230  Biso   1.000  C
  C106     1.0000 0.53860  0.17300  0.68230  Biso   1.000  C
  C107     1.0000 0.46140  0.17300  0.81770  Biso   1.000  C
  C108     1.0000 0.03860  0.82700  0.81770  Biso   1.000  C
  C109     1.0000 0.46140  0.32700  0.68230  Biso   1.000  C
  C110     1.0000 0.03860  0.67300  0.68230  Biso   1.000  C
  C111     1.0000 0.96140  0.67300  0.81770  Biso   1.000  C
  C112     1.0000 0.53860  0.32700  0.81770  Biso   1.000  C
  H65      1.0000 0.03350  0.18200  0.28600  Biso   1.000  H
  H66      1.0000 0.46650  0.81800  0.28600  Biso   1.000  H
  H67      1.0000 0.53350  0.81800  0.21400  Biso   1.000  H
  H68      1.0000 0.96650  0.18200  0.21400  Biso   1.000  H
  H69      1.0000 0.53350  0.68200  0.28600  Biso   1.000  H
  H70      1.0000 0.96650  0.31800  0.28600  Biso   1.000  H
  H71      1.0000 0.03350  0.31800  0.21400  Biso   1.000  H
  H72      1.0000 0.46650  0.68200  0.21400  Biso   1.000  H
  H73      1.0000 0.96650  0.81800  0.71400  Biso   1.000  H
  H74      1.0000 0.53350  0.18200  0.71400  Biso   1.000  H
  H75      1.0000 0.46650  0.18200  0.78600  Biso   1.000  H
  H76      1.0000 0.03350  0.81800  0.78600  Biso   1.000  H
  H77      1.0000 0.46650  0.31800  0.71400  Biso   1.000  H
  H78      1.0000 0.03350  0.68200  0.71400  Biso   1.000  H
  H79      1.0000 0.96650  0.68200  0.78600  Biso   1.000  H
  H80      1.0000 0.53350  0.31800  0.78600  Biso   1.000  H
  C113     1.0000 0.08100  0.15920  0.33050  Biso   1.000  C
  C114     1.0000 0.41900  0.84080  0.33050  Biso   1.000  C
  C115     1.0000 0.58100  0.84080  0.16950  Biso   1.000  C
  C116     1.0000 0.91900  0.15920  0.16950  Biso   1.000  C
  C117     1.0000 0.58100  0.65920  0.33050  Biso   1.000  C
  C118     1.0000 0.91900  0.34080  0.33050  Biso   1.000  C
  C119     1.0000 0.08100  0.34080  0.16950  Biso   1.000  C
  C120     1.0000 0.41900  0.65920  0.16950  Biso   1.000  C
  C121     1.0000 0.91900  0.84080  0.66950  Biso   1.000  C
  C122     1.0000 0.58100  0.15920  0.66950  Biso   1.000  C
  C123     1.0000 0.41900  0.15920  0.83050  Biso   1.000  C
  C124     1.0000 0.08100  0.84080  0.83050  Biso   1.000  C
  C125     1.0000 0.41900  0.34080  0.66950  Biso   1.000  C
  C126     1.0000 0.08100  0.65920  0.66950  Biso   1.000  C
  C127     1.0000 0.91900  0.65920  0.83050  Biso   1.000  C
  C128     1.0000 0.58100  0.34080  0.83050  Biso   1.000  C
  H81      1.0000 0.10440  0.15930  0.30750  Biso   1.000  H
  H82      1.0000 0.39560  0.84070  0.30750  Biso   1.000  H
  H83      1.0000 0.60440  0.84070  0.19250  Biso   1.000  H
  H84      1.0000 0.89560  0.15930  0.19250  Biso   1.000  H
  H85      1.0000 0.60440  0.65930  0.30750  Biso   1.000  H
  H86      1.0000 0.89560  0.34070  0.30750  Biso   1.000  H
  H87      1.0000 0.10440  0.34070  0.19250  Biso   1.000  H
  H88      1.0000 0.39560  0.65930  0.19250  Biso   1.000  H
  H89      1.0000 0.89560  0.84070  0.69250  Biso   1.000  H
  H90      1.0000 0.60440  0.15930  0.69250  Biso   1.000  H
  H91      1.0000 0.39560  0.15930  0.80750  Biso   1.000  H
  H92      1.0000 0.10440  0.84070  0.80750  Biso   1.000  H
  H93      1.0000 0.39560  0.34070  0.69250  Biso   1.000  H
  H94      1.0000 0.10440  0.65930  0.69250  Biso   1.000  H
  H95      1.0000 0.89560  0.65930  0.80750  Biso   1.000  H
  H96      1.0000 0.60440  0.34070  0.80750  Biso   1.000  H
  C129     1.0000 0.01310  0.15900  0.39750  Biso   1.000  C
  C130     1.0000 0.48690  0.84100  0.39750  Biso   1.000  C
  C131     1.0000 0.51310  0.84100  0.10250  Biso   1.000  C
  C132     1.0000 0.98690  0.15900  0.10250  Biso   1.000  C
  C133     1.0000 0.51310  0.65900  0.39750  Biso   1.000  C
  C134     1.0000 0.98690  0.34100  0.39750  Biso   1.000  C
  C135     1.0000 0.01310  0.34100  0.10250  Biso   1.000  C
  C136     1.0000 0.48690  0.65900  0.10250  Biso   1.000  C
  C137     1.0000 0.98690  0.84100  0.60250  Biso   1.000  C
  C138     1.0000 0.51310  0.15900  0.60250  Biso   1.000  C
  C139     1.0000 0.48690  0.15900  0.89750  Biso   1.000  C
  C140     1.0000 0.01310  0.84100  0.89750  Biso   1.000  C
  C141     1.0000 0.48690  0.34100  0.60250  Biso   1.000  C
  C142     1.0000 0.01310  0.65900  0.60250  Biso   1.000  C
  C143     1.0000 0.98690  0.65900  0.89750  Biso   1.000  C
  C144     1.0000 0.51310  0.34100  0.89750  Biso   1.000  C
  H97      1.0000 0.98980  0.15800  0.42060  Biso   1.000  H
  H98      1.0000 0.51020  0.84200  0.42060  Biso   1.000  H
  H99      1.0000 0.48980  0.84200  0.07940  Biso   1.000  H
  H100     1.0000 0.01020  0.15800  0.07940  Biso   1.000  H
  H101     1.0000 0.48980  0.65800  0.42060  Biso   1.000  H
  H102     1.0000 0.01020  0.34200  0.42060  Biso   1.000  H
  H103     1.0000 0.98980  0.34200  0.07940  Biso   1.000  H
  H104     1.0000 0.51020  0.65800  0.07940  Biso   1.000  H
  H105     1.0000 0.01020  0.84200  0.57940  Biso   1.000  H
  H106     1.0000 0.48980  0.15800  0.57940  Biso   1.000  H
  H107     1.0000 0.51020  0.15800  0.92060  Biso   1.000  H
  H108     1.0000 0.98980  0.84200  0.92060  Biso   1.000  H
  H109     1.0000 0.51020  0.34200  0.57940  Biso   1.000  H
  H110     1.0000 0.98980  0.65800  0.57940  Biso   1.000  H
  H111     1.0000 0.01020  0.65800  0.92060  Biso   1.000  H
  H112     1.0000 0.48980  0.34200  0.92060  Biso   1.000  H
  C145     1.0000 0.05390  0.14650  0.40970  Biso   1.000  C
  C146     1.0000 0.44610  0.85350  0.40970  Biso   1.000  C
  C147     1.0000 0.55390  0.85350  0.09030  Biso   1.000  C
  C148     1.0000 0.94610  0.14650  0.09030  Biso   1.000  C
  C149     1.0000 0.55390  0.64650  0.40970  Biso   1.000  C
  C150     1.0000 0.94610  0.35350  0.40970  Biso   1.000  C
  C151     1.0000 0.05390  0.35350  0.09030  Biso   1.000  C
  C152     1.0000 0.44610  0.64650  0.09030  Biso   1.000  C
  C153     1.0000 0.94610  0.85350  0.59030  Biso   1.000  C
  C154     1.0000 0.55390  0.14650  0.59030  Biso   1.000  C
  C155     1.0000 0.44610  0.14650  0.90970  Biso   1.000  C
  C156     1.0000 0.05390  0.85350  0.90970  Biso   1.000  C
  C157     1.0000 0.44610  0.35350  0.59030  Biso   1.000  C
  C158     1.0000 0.05390  0.64650  0.59030  Biso   1.000  C
  C159     1.0000 0.94610  0.64650  0.90970  Biso   1.000  C
  C160     1.0000 0.55390  0.35350  0.90970  Biso   1.000  C
  H113     1.0000 0.05840  0.13820  0.44180  Biso   1.000  H
  H114     1.0000 0.44160  0.86180  0.44180  Biso   1.000  H
  H115     1.0000 0.55840  0.86180  0.05820  Biso   1.000  H
  H116     1.0000 0.94160  0.13820  0.05820  Biso   1.000  H
  H117     1.0000 0.55840  0.63820  0.44180  Biso   1.000  H
  H118     1.0000 0.94160  0.36180  0.44180  Biso   1.000  H
  H119     1.0000 0.05840  0.36180  0.05820  Biso   1.000  H
  H120     1.0000 0.44160  0.63820  0.05820  Biso   1.000  H
  H121     1.0000 0.94160  0.86180  0.55820  Biso   1.000  H
  H122     1.0000 0.55840  0.13820  0.55820  Biso   1.000  H
  H123     1.0000 0.44160  0.13820  0.94180  Biso   1.000  H
  H124     1.0000 0.05840  0.86180  0.94180  Biso   1.000  H
  H125     1.0000 0.44160  0.36180  0.55820  Biso   1.000  H
  H126     1.0000 0.05840  0.63820  0.55820  Biso   1.000  H
  H127     1.0000 0.94160  0.63820  0.94180  Biso   1.000  H
  H128     1.0000 0.55840  0.36180  0.94180  Biso   1.000  H
  C161     1.0000 0.08895  0.14497  0.37844  Biso   1.000  C
  C162     1.0000 0.41105  0.85503  0.37844  Biso   1.000  C
  C163     1.0000 0.58895  0.85503  0.12156  Biso   1.000  C
  C164     1.0000 0.91105  0.14497  0.12156  Biso   1.000  C
  C165     1.0000 0.58895  0.64497  0.37844  Biso   1.000  C
  C166     1.0000 0.91105  0.35503  0.37844  Biso   1.000  C
  C167     1.0000 0.08895  0.35503  0.12156  Biso   1.000  C
  C168     1.0000 0.41105  0.64497  0.12156  Biso   1.000  C
  C169     1.0000 0.91105  0.85503  0.62156  Biso   1.000  C
  C170     1.0000 0.58895  0.14497  0.62156  Biso   1.000  C
  C171     1.0000 0.41105  0.14497  0.87844  Biso   1.000  C
  C172     1.0000 0.08895  0.85503  0.87844  Biso   1.000  C
  C173     1.0000 0.41105  0.35503  0.62156  Biso   1.000  C
  C174     1.0000 0.08895  0.64497  0.62156  Biso   1.000  C
  C175     1.0000 0.91105  0.64497  0.87844  Biso   1.000  C
  C176     1.0000 0.58895  0.35503  0.87844  Biso   1.000  C
  C177     1.0000 0.38400  0.00480  0.44820  Biso   1.000  C
  C178     1.0000 0.11600  0.99520  0.44820  Biso   1.000  C
  C179     1.0000 0.88400  0.99520  0.05180  Biso   1.000  C
  C180     1.0000 0.61600  0.00480  0.05180  Biso   1.000  C
  C181     1.0000 0.88400  0.50480  0.44820  Biso   1.000  C
  C182     1.0000 0.61600  0.49520  0.44820  Biso   1.000  C
  C183     1.0000 0.38400  0.49520  0.05180  Biso   1.000  C
  C184     1.0000 0.11600  0.50480  0.05180  Biso   1.000  C
  C185     1.0000 0.61600  0.99520  0.55180  Biso   1.000  C
  C186     1.0000 0.88400  0.00480  0.55180  Biso   1.000  C
  C187     1.0000 0.11600  0.00480  0.94820  Biso   1.000  C
  C188     1.0000 0.38400  0.99520  0.94820  Biso   1.000  C
  C189     1.0000 0.11600  0.49520  0.55180  Biso   1.000  C
  C190     1.0000 0.38400  0.50480  0.55180  Biso   1.000  C
  C191     1.0000 0.61600  0.50480  0.94820  Biso   1.000  C
  C192     1.0000 0.88400  0.49520  0.94820  Biso   1.000  C
  H129     1.0000 0.38680  0.98430  0.46870  Biso   1.000  H
  H130     1.0000 0.11320  0.01570  0.46870  Biso   1.000  H
  H131     1.0000 0.88680  0.01570  0.03130  Biso   1.000  H
  H132     1.0000 0.61320  0.98430  0.03130  Biso   1.000  H
  H133     1.0000 0.88680  0.48430  0.46870  Biso   1.000  H
  H134     1.0000 0.61320  0.51570  0.46870  Biso   1.000  H
  H135     1.0000 0.38680  0.51570  0.03130  Biso   1.000  H
  H136     1.0000 0.11320  0.48430  0.03130  Biso   1.000  H
  H137     1.0000 0.61320  0.01570  0.53130  Biso   1.000  H
  H138     1.0000 0.88680  0.98430  0.53130  Biso   1.000  H
  H139     1.0000 0.11320  0.98430  0.96870  Biso   1.000  H
  H140     1.0000 0.38680  0.01570  0.96870  Biso   1.000  H
  H141     1.0000 0.11320  0.51570  0.53130  Biso   1.000  H
  H142     1.0000 0.38680  0.48430  0.53130  Biso   1.000  H
  H143     1.0000 0.61320  0.48430  0.96870  Biso   1.000  H
  H144     1.0000 0.88680  0.51570  0.96870  Biso   1.000  H
  C193     1.0000 0.33980  0.01550  0.43810  Biso   1.000  C
  C194     1.0000 0.16020  0.98450  0.43810  Biso   1.000  C
  C195     1.0000 0.83980  0.98450  0.06190  Biso   1.000  C
  C196     1.0000 0.66020  0.01550  0.06190  Biso   1.000  C
  C197     1.0000 0.83980  0.51550  0.43810  Biso   1.000  C
  C198     1.0000 0.66020  0.48450  0.43810  Biso   1.000  C
  C199     1.0000 0.33980  0.48450  0.06190  Biso   1.000  C
  C200     1.0000 0.16020  0.51550  0.06190  Biso   1.000  C
  C201     1.0000 0.66020  0.98450  0.56190  Biso   1.000  C
  C202     1.0000 0.83980  0.01550  0.56190  Biso   1.000  C
  C203     1.0000 0.16020  0.01550  0.93810  Biso   1.000  C
  C204     1.0000 0.33980  0.98450  0.93810  Biso   1.000  C
  C205     1.0000 0.16020  0.48450  0.56190  Biso   1.000  C
  C206     1.0000 0.33980  0.51550  0.56190  Biso   1.000  C
  C207     1.0000 0.66020  0.51550  0.93810  Biso   1.000  C
  C208     1.0000 0.83980  0.48450  0.93810  Biso   1.000  C
  H145     1.0000 0.31510  0.00270  0.45110  Biso   1.000  H
  H146     1.0000 0.18490  0.99730  0.45110  Biso   1.000  H
  H147     1.0000 0.81510  0.99730  0.04890  Biso   1.000  H
  H148     1.0000 0.68490  0.00270  0.04890  Biso   1.000  H
  H149     1.0000 0.81510  0.50270  0.45110  Biso   1.000  H
  H150     1.0000 0.68490  0.49730  0.45110  Biso   1.000  H
  H151     1.0000 0.31510  0.49730  0.04890  Biso   1.000  H
  H152     1.0000 0.18490  0.50270  0.04890  Biso   1.000  H
  H153     1.0000 0.68490  0.99730  0.54890  Biso   1.000  H
  H154     1.0000 0.81510  0.00270  0.54890  Biso   1.000  H
  H155     1.0000 0.18490  0.00270  0.95110  Biso   1.000  H
  H156     1.0000 0.31510  0.99730  0.95110  Biso   1.000  H
  H157     1.0000 0.18490  0.49730  0.54890  Biso   1.000  H
  H158     1.0000 0.31510  0.50270  0.54890  Biso   1.000  H
  H159     1.0000 0.68490  0.50270  0.95110  Biso   1.000  H
  H160     1.0000 0.81510  0.49730  0.95110  Biso   1.000  H
  C209     1.0000 0.41570  0.04540  0.40590  Biso   1.000  C
  C210     1.0000 0.08430  0.95460  0.40590  Biso   1.000  C
  C211     1.0000 0.91570  0.95460  0.09410  Biso   1.000  C
  C212     1.0000 0.58430  0.04540  0.09410  Biso   1.000  C
  C213     1.0000 0.91570  0.54540  0.40590  Biso   1.000  C
  C214     1.0000 0.58430  0.45460  0.40590  Biso   1.000  C
  C215     1.0000 0.41570  0.45460  0.09410  Biso   1.000  C
  C216     1.0000 0.08430  0.54540  0.09410  Biso   1.000  C
  C217     1.0000 0.58430  0.95460  0.59410  Biso   1.000  C
  C218     1.0000 0.91570  0.04540  0.59410  Biso   1.000  C
  C219     1.0000 0.08430  0.04540  0.90590  Biso   1.000  C
  C220     1.0000 0.41570  0.95460  0.90590  Biso   1.000  C
  C221     1.0000 0.08430  0.45460  0.59410  Biso   1.000  C
  C222     1.0000 0.41570  0.54540  0.59410  Biso   1.000  C
  C223     1.0000 0.58430  0.54540  0.90590  Biso   1.000  C
  C224     1.0000 0.91570  0.45460  0.90590  Biso   1.000  C
  H161     1.0000 0.44130  0.05710  0.39320  Biso   1.000  H
  H162     1.0000 0.05870  0.94290  0.39320  Biso   1.000  H
  H163     1.0000 0.94130  0.94290  0.10680  Biso   1.000  H
  H164     1.0000 0.55870  0.05710  0.10680  Biso   1.000  H
  H165     1.0000 0.94130  0.55710  0.39320  Biso   1.000  H
  H166     1.0000 0.55870  0.44290  0.39320  Biso   1.000  H
  H167     1.0000 0.44130  0.44290  0.10680  Biso   1.000  H
  H168     1.0000 0.05870  0.55710  0.10680  Biso   1.000  H
  H169     1.0000 0.55870  0.94290  0.60680  Biso   1.000  H
  H170     1.0000 0.94130  0.05710  0.60680  Biso   1.000  H
  H171     1.0000 0.05870  0.05710  0.89320  Biso   1.000  H
  H172     1.0000 0.44130  0.94290  0.89320  Biso   1.000  H
  H173     1.0000 0.05870  0.44290  0.60680  Biso   1.000  H
  H174     1.0000 0.44130  0.55710  0.60680  Biso   1.000  H
  H175     1.0000 0.55870  0.55710  0.89320  Biso   1.000  H
  H176     1.0000 0.94130  0.44290  0.89320  Biso   1.000  H
  C225     1.0000 0.37230  0.05910  0.39210  Biso   1.000  C
  C226     1.0000 0.12770  0.94090  0.39210  Biso   1.000  C
  C227     1.0000 0.87230  0.94090  0.10790  Biso   1.000  C
  C228     1.0000 0.62770  0.05910  0.10790  Biso   1.000  C
  C229     1.0000 0.87230  0.55910  0.39210  Biso   1.000  C
  C230     1.0000 0.62770  0.44090  0.39210  Biso   1.000  C
  C231     1.0000 0.37230  0.44090  0.10790  Biso   1.000  C
  C232     1.0000 0.12770  0.55910  0.10790  Biso   1.000  C
  C233     1.0000 0.62770  0.94090  0.60790  Biso   1.000  C
  C234     1.0000 0.87230  0.05910  0.60790  Biso   1.000  C
  C235     1.0000 0.12770  0.05910  0.89210  Biso   1.000  C
  C236     1.0000 0.37230  0.94090  0.89210  Biso   1.000  C
  C237     1.0000 0.12770  0.44090  0.60790  Biso   1.000  C
  C238     1.0000 0.37230  0.55910  0.60790  Biso   1.000  C
  C239     1.0000 0.62770  0.55910  0.89210  Biso   1.000  C
  C240     1.0000 0.87230  0.44090  0.89210  Biso   1.000  C
  H177     1.0000 0.37110  0.07880  0.37010  Biso   1.000  H
  H178     1.0000 0.12890  0.92120  0.37010  Biso   1.000  H
  H179     1.0000 0.87110  0.92120  0.12990  Biso   1.000  H
  H180     1.0000 0.62890  0.07880  0.12990  Biso   1.000  H
  H181     1.0000 0.87110  0.57880  0.37010  Biso   1.000  H
  H182     1.0000 0.62890  0.42120  0.37010  Biso   1.000  H
  H183     1.0000 0.37110  0.42120  0.12990  Biso   1.000  H
  H184     1.0000 0.12890  0.57880  0.12990  Biso   1.000  H
  H185     1.0000 0.62890  0.92120  0.62990  Biso   1.000  H
  H186     1.0000 0.87110  0.07880  0.62990  Biso   1.000  H
  H187     1.0000 0.12890  0.07880  0.87010  Biso   1.000  H
  H188     1.0000 0.37110  0.92120  0.87010  Biso   1.000  H
  H189     1.0000 0.12890  0.42120  0.62990  Biso   1.000  H
  H190     1.0000 0.37110  0.57880  0.62990  Biso   1.000  H
  H191     1.0000 0.62890  0.57880  0.87010  Biso   1.000  H
  H192     1.0000 0.87110  0.42120  0.87010  Biso   1.000  H
  C241     1.0000 0.33390  0.04570  0.40850  Biso   1.000  C
  C242     1.0000 0.16610  0.95430  0.40850  Biso   1.000  C
  C243     1.0000 0.83390  0.95430  0.09150  Biso   1.000  C
  C244     1.0000 0.66610  0.04570  0.09150  Biso   1.000  C
  C245     1.0000 0.83390  0.54570  0.40850  Biso   1.000  C
  C246     1.0000 0.66610  0.45430  0.40850  Biso   1.000  C
  C247     1.0000 0.33390  0.45430  0.09150  Biso   1.000  C
  C248     1.0000 0.16610  0.54570  0.09150  Biso   1.000  C
  C249     1.0000 0.66610  0.95430  0.59150  Biso   1.000  C
  C250     1.0000 0.83390  0.04570  0.59150  Biso   1.000  C
  C251     1.0000 0.16610  0.04570  0.90850  Biso   1.000  C
  C252     1.0000 0.33390  0.95430  0.90850  Biso   1.000  C
  C253     1.0000 0.16610  0.45430  0.59150  Biso   1.000  C
  C254     1.0000 0.33390  0.54570  0.59150  Biso   1.000  C
  C255     1.0000 0.66610  0.54570  0.90850  Biso   1.000  C
  C256     1.0000 0.83390  0.45430  0.90850  Biso   1.000  C
  C257     1.0000 0.28860  0.06062  0.39660  Biso   1.000  C
  C258     1.0000 0.21140  0.93938  0.39660  Biso   1.000  C
  C259     1.0000 0.78860  0.93938  0.10340  Biso   1.000  C
  C260     1.0000 0.71140  0.06062  0.10340  Biso   1.000  C
  C261     1.0000 0.78860  0.56062  0.39660  Biso   1.000  C
  C262     1.0000 0.71140  0.43938  0.39660  Biso   1.000  C
  C263     1.0000 0.28860  0.43938  0.10340  Biso   1.000  C
  C264     1.0000 0.21140  0.56062  0.10340  Biso   1.000  C
  C265     1.0000 0.71140  0.93938  0.60340  Biso   1.000  C
  C266     1.0000 0.78860  0.06062  0.60340  Biso   1.000  C
  C267     1.0000 0.21140  0.06062  0.89660  Biso   1.000  C
  C268     1.0000 0.28860  0.93938  0.89660  Biso   1.000  C
  C269     1.0000 0.21140  0.43938  0.60340  Biso   1.000  C
  C270     1.0000 0.28860  0.56062  0.60340  Biso   1.000  C
  C271     1.0000 0.71140  0.56062  0.89660  Biso   1.000  C
  C272     1.0000 0.78860  0.43938  0.89660  Biso   1.000  C
  C273     1.0000 0.28170  0.10190  0.39190  Biso   1.000  C
  C274     1.0000 0.21830  0.89810  0.39190  Biso   1.000  C
  C275     1.0000 0.78170  0.89810  0.10810  Biso   1.000  C
  C276     1.0000 0.71830  0.10190  0.10810  Biso   1.000  C
  C277     1.0000 0.78170  0.60190  0.39190  Biso   1.000  C
  C278     1.0000 0.71830  0.39810  0.39190  Biso   1.000  C
  C279     1.0000 0.28170  0.39810  0.10810  Biso   1.000  C
  C280     1.0000 0.21830  0.60190  0.10810  Biso   1.000  C
  C281     1.0000 0.71830  0.89810  0.60810  Biso   1.000  C
  C282     1.0000 0.78170  0.10190  0.60810  Biso   1.000  C
  C283     1.0000 0.21830  0.10190  0.89190  Biso   1.000  C
  C284     1.0000 0.28170  0.89810  0.89190  Biso   1.000  C
  C285     1.0000 0.21830  0.39810  0.60810  Biso   1.000  C
  C286     1.0000 0.28170  0.60190  0.60810  Biso   1.000  C
  C287     1.0000 0.71830  0.60190  0.89190  Biso   1.000  C
  C288     1.0000 0.78170  0.39810  0.89190  Biso   1.000  C
  H193     1.0000 0.30520  0.11880  0.39630  Biso   1.000  H
  H194     1.0000 0.19480  0.88120  0.39630  Biso   1.000  H
  H195     1.0000 0.80520  0.88120  0.10370  Biso   1.000  H
  H196     1.0000 0.69480  0.11880  0.10370  Biso   1.000  H
  H197     1.0000 0.80520  0.61880  0.39630  Biso   1.000  H
  H198     1.0000 0.69480  0.38120  0.39630  Biso   1.000  H
  H199     1.0000 0.30520  0.38120  0.10370  Biso   1.000  H
  H200     1.0000 0.19480  0.61880  0.10370  Biso   1.000  H
  H201     1.0000 0.69480  0.88120  0.60370  Biso   1.000  H
  H202     1.0000 0.80520  0.11880  0.60370  Biso   1.000  H
  H203     1.0000 0.19480  0.11880  0.89630  Biso   1.000  H
  H204     1.0000 0.30520  0.88120  0.89630  Biso   1.000  H
  H205     1.0000 0.19480  0.38120  0.60370  Biso   1.000  H
  H206     1.0000 0.30520  0.61880  0.60370  Biso   1.000  H
  H207     1.0000 0.69480  0.61880  0.89630  Biso   1.000  H
  H208     1.0000 0.80520  0.38120  0.89630  Biso   1.000  H
  C289     1.0000 0.24040  0.11190  0.38100  Biso   1.000  C
  C290     1.0000 0.25960  0.88810  0.38100  Biso   1.000  C
  C291     1.0000 0.74040  0.88810  0.11900  Biso   1.000  C
  C292     1.0000 0.75960  0.11190  0.11900  Biso   1.000  C
  C293     1.0000 0.74040  0.61190  0.38100  Biso   1.000  C
  C294     1.0000 0.75960  0.38810  0.38100  Biso   1.000  C
  C295     1.0000 0.24040  0.38810  0.11900  Biso   1.000  C
  C296     1.0000 0.25960  0.61190  0.11900  Biso   1.000  C
  C297     1.0000 0.75960  0.88810  0.61900  Biso   1.000  C
  C298     1.0000 0.74040  0.11190  0.61900  Biso   1.000  C
  C299     1.0000 0.25960  0.11190  0.88100  Biso   1.000  C
  C300     1.0000 0.24040  0.88810  0.88100  Biso   1.000  C
  C301     1.0000 0.25960  0.38810  0.61900  Biso   1.000  C
  C302     1.0000 0.24040  0.61190  0.61900  Biso   1.000  C
  C303     1.0000 0.75960  0.61190  0.88100  Biso   1.000  C
  C304     1.0000 0.74040  0.38810  0.88100  Biso   1.000  C
  H209     1.0000 0.23550  0.13710  0.37620  Biso   1.000  H
  H210     1.0000 0.26450  0.86290  0.37620  Biso   1.000  H
  H211     1.0000 0.73550  0.86290  0.12380  Biso   1.000  H
  H212     1.0000 0.76450  0.13710  0.12380  Biso   1.000  H
  H213     1.0000 0.73550  0.63710  0.37620  Biso   1.000  H
  H214     1.0000 0.76450  0.36290  0.37620  Biso   1.000  H
  H215     1.0000 0.23550  0.36290  0.12380  Biso   1.000  H
  H216     1.0000 0.26450  0.63710  0.12380  Biso   1.000  H
  H217     1.0000 0.76450  0.86290  0.62380  Biso   1.000  H
  H218     1.0000 0.73550  0.13710  0.62380  Biso   1.000  H
  H219     1.0000 0.26450  0.13710  0.87620  Biso   1.000  H
  H220     1.0000 0.23550  0.86290  0.87620  Biso   1.000  H
  H221     1.0000 0.26450  0.36290  0.62380  Biso   1.000  H
  H222     1.0000 0.23550  0.63710  0.62380  Biso   1.000  H
  H223     1.0000 0.76450  0.63710  0.87620  Biso   1.000  H
  H224     1.0000 0.73550  0.36290  0.87620  Biso   1.000  H
  C305     1.0000 0.25560  0.04000  0.38390  Biso   1.000  C
  C306     1.0000 0.24440  0.96000  0.38390  Biso   1.000  C
  C307     1.0000 0.75560  0.96000  0.11610  Biso   1.000  C
  C308     1.0000 0.74440  0.04000  0.11610  Biso   1.000  C
  C309     1.0000 0.75560  0.54000  0.38390  Biso   1.000  C
  C310     1.0000 0.74440  0.46000  0.38390  Biso   1.000  C
  C311     1.0000 0.25560  0.46000  0.11610  Biso   1.000  C
  C312     1.0000 0.24440  0.54000  0.11610  Biso   1.000  C
  C313     1.0000 0.74440  0.96000  0.61610  Biso   1.000  C
  C314     1.0000 0.75560  0.04000  0.61610  Biso   1.000  C
  C315     1.0000 0.24440  0.04000  0.88390  Biso   1.000  C
  C316     1.0000 0.25560  0.96000  0.88390  Biso   1.000  C
  C317     1.0000 0.24440  0.46000  0.61610  Biso   1.000  C
  C318     1.0000 0.25560  0.54000  0.61610  Biso   1.000  C
  C319     1.0000 0.74440  0.54000  0.88390  Biso   1.000  C
  C320     1.0000 0.75560  0.46000  0.88390  Biso   1.000  C
  H225     1.0000 0.26090  0.01470  0.38190  Biso   1.000  H
  H226     1.0000 0.23910  0.98530  0.38190  Biso   1.000  H
  H227     1.0000 0.76090  0.98530  0.11810  Biso   1.000  H
  H228     1.0000 0.73910  0.01470  0.11810  Biso   1.000  H
  H229     1.0000 0.76090  0.51470  0.38190  Biso   1.000  H
  H230     1.0000 0.73910  0.48530  0.38190  Biso   1.000  H
  H231     1.0000 0.26090  0.48530  0.11810  Biso   1.000  H
  H232     1.0000 0.23910  0.51470  0.11810  Biso   1.000  H
  H233     1.0000 0.73910  0.98530  0.61810  Biso   1.000  H
  H234     1.0000 0.76090  0.01470  0.61810  Biso   1.000  H
  H235     1.0000 0.23910  0.01470  0.88190  Biso   1.000  H
  H236     1.0000 0.26090  0.98530  0.88190  Biso   1.000  H
  H237     1.0000 0.23910  0.48530  0.61810  Biso   1.000  H
  H238     1.0000 0.26090  0.51470  0.61810  Biso   1.000  H
  H239     1.0000 0.73910  0.51470  0.88190  Biso   1.000  H
  H240     1.0000 0.76090  0.48530  0.88190  Biso   1.000  H
  C321     1.0000 0.21160  0.05290  0.37240  Biso   1.000  C
  C322     1.0000 0.28840  0.94710  0.37240  Biso   1.000  C
  C323     1.0000 0.71160  0.94710  0.12760  Biso   1.000  C
  C324     1.0000 0.78840  0.05290  0.12760  Biso   1.000  C
  C325     1.0000 0.71160  0.55290  0.37240  Biso   1.000  C
  C326     1.0000 0.78840  0.44710  0.37240  Biso   1.000  C
  C327     1.0000 0.21160  0.44710  0.12760  Biso   1.000  C
  C328     1.0000 0.28840  0.55290  0.12760  Biso   1.000  C
  C329     1.0000 0.78840  0.94710  0.62760  Biso   1.000  C
  C330     1.0000 0.71160  0.05290  0.62760  Biso   1.000  C
  C331     1.0000 0.28840  0.05290  0.87240  Biso   1.000  C
  C332     1.0000 0.21160  0.94710  0.87240  Biso   1.000  C
  C333     1.0000 0.28840  0.44710  0.62760  Biso   1.000  C
  C334     1.0000 0.21160  0.55290  0.62760  Biso   1.000  C
  C335     1.0000 0.78840  0.55290  0.87240  Biso   1.000  C
  C336     1.0000 0.71160  0.44710  0.87240  Biso   1.000  C
  H241     1.0000 0.18950  0.03610  0.36250  Biso   1.000  H
  H242     1.0000 0.31050  0.96390  0.36250  Biso   1.000  H
  H243     1.0000 0.68950  0.96390  0.13750  Biso   1.000  H
  H244     1.0000 0.81050  0.03610  0.13750  Biso   1.000  H
  H245     1.0000 0.68950  0.53610  0.36250  Biso   1.000  H
  H246     1.0000 0.81050  0.46390  0.36250  Biso   1.000  H
  H247     1.0000 0.18950  0.46390  0.13750  Biso   1.000  H
  H248     1.0000 0.31050  0.53610  0.13750  Biso   1.000  H
  H249     1.0000 0.81050  0.96390  0.63750  Biso   1.000  H
  H250     1.0000 0.68950  0.03610  0.63750  Biso   1.000  H
  H251     1.0000 0.31050  0.03610  0.86250  Biso   1.000  H
  H252     1.0000 0.18950  0.96390  0.86250  Biso   1.000  H
  H253     1.0000 0.31050  0.46390  0.63750  Biso   1.000  H
  H254     1.0000 0.18950  0.53610  0.63750  Biso   1.000  H
  H255     1.0000 0.81050  0.53610  0.86250  Biso   1.000  H
  H256     1.0000 0.68950  0.46390  0.86250  Biso   1.000  H
  C337     1.0000 0.20140  0.08791  0.37570  Biso   1.000  C
  C338     1.0000 0.29860  0.91209  0.37570  Biso   1.000  C
  C339     1.0000 0.70140  0.91209  0.12430  Biso   1.000  C
  C340     1.0000 0.79860  0.08791  0.12430  Biso   1.000  C
  C341     1.0000 0.70140  0.58791  0.37570  Biso   1.000  C
  C342     1.0000 0.79860  0.41209  0.37570  Biso   1.000  C
  C343     1.0000 0.20140  0.41209  0.12430  Biso   1.000  C
  C344     1.0000 0.29860  0.58791  0.12430  Biso   1.000  C
  C345     1.0000 0.79860  0.91209  0.62430  Biso   1.000  C
  C346     1.0000 0.70140  0.08791  0.62430  Biso   1.000  C
  C347     1.0000 0.29860  0.08791  0.87570  Biso   1.000  C
  C348     1.0000 0.20140  0.91209  0.87570  Biso   1.000  C
  C349     1.0000 0.29860  0.41209  0.62430  Biso   1.000  C
  C350     1.0000 0.20140  0.58791  0.62430  Biso   1.000  C
  C351     1.0000 0.79860  0.58791  0.87570  Biso   1.000  C
  C352     1.0000 0.70140  0.41209  0.87570  Biso   1.000  C
  C353     1.0000 0.04450  0.99990  0.13260  Biso   1.000  C
  C354     1.0000 0.45550  0.00010  0.13260  Biso   1.000  C
  C355     1.0000 0.54450  0.00010  0.36740  Biso   1.000  C
  C356     1.0000 0.95550  0.99990  0.36740  Biso   1.000  C
  C357     1.0000 0.54450  0.49990  0.13260  Biso   1.000  C
  C358     1.0000 0.95550  0.50010  0.13260  Biso   1.000  C
  C359     1.0000 0.04450  0.50010  0.36740  Biso   1.000  C
  C360     1.0000 0.45550  0.49990  0.36740  Biso   1.000  C
  C361     1.0000 0.95550  0.00010  0.86740  Biso   1.000  C
  C362     1.0000 0.54450  0.99990  0.86740  Biso   1.000  C
  C363     1.0000 0.45550  0.99990  0.63260  Biso   1.000  C
  C364     1.0000 0.04450  0.00010  0.63260  Biso   1.000  C
  C365     1.0000 0.45550  0.50010  0.86740  Biso   1.000  C
  C366     1.0000 0.04450  0.49990  0.86740  Biso   1.000  C
  C367     1.0000 0.95550  0.49990  0.63260  Biso   1.000  C
  C368     1.0000 0.54450  0.50010  0.63260  Biso   1.000  C
  H257     1.0000 0.05340  0.97690  0.12060  Biso   1.000  H
  H258     1.0000 0.44660  0.02310  0.12060  Biso   1.000  H
  H259     1.0000 0.55340  0.02310  0.37940  Biso   1.000  H
  H260     1.0000 0.94660  0.97690  0.37940  Biso   1.000  H
  H261     1.0000 0.55340  0.47690  0.12060  Biso   1.000  H
  H262     1.0000 0.94660  0.52310  0.12060  Biso   1.000  H
  H263     1.0000 0.05340  0.52310  0.37940  Biso   1.000  H
  H264     1.0000 0.44660  0.47690  0.37940  Biso   1.000  H
  H265     1.0000 0.94660  0.02310  0.87940  Biso   1.000  H
  H266     1.0000 0.55340  0.97690  0.87940  Biso   1.000  H
  H267     1.0000 0.44660  0.97690  0.62060  Biso   1.000  H
  H268     1.0000 0.05340  0.02310  0.62060  Biso   1.000  H
  H269     1.0000 0.44660  0.52310  0.87940  Biso   1.000  H
  H270     1.0000 0.05340  0.47690  0.87940  Biso   1.000  H
  H271     1.0000 0.94660  0.47690  0.62060  Biso   1.000  H
  H272     1.0000 0.55340  0.52310  0.62060  Biso   1.000  H
  C369     1.0000 0.06030  0.00980  0.17520  Biso   1.000  C
  C370     1.0000 0.43970  0.99020  0.17520  Biso   1.000  C
  C371     1.0000 0.56030  0.99020  0.32480  Biso   1.000  C
  C372     1.0000 0.93970  0.00980  0.32480  Biso   1.000  C
  C373     1.0000 0.56030  0.50980  0.17520  Biso   1.000  C
  C374     1.0000 0.93970  0.49020  0.17520  Biso   1.000  C
  C375     1.0000 0.06030  0.49020  0.32480  Biso   1.000  C
  C376     1.0000 0.43970  0.50980  0.32480  Biso   1.000  C
  C377     1.0000 0.93970  0.99020  0.82480  Biso   1.000  C
  C378     1.0000 0.56030  0.00980  0.82480  Biso   1.000  C
  C379     1.0000 0.43970  0.00980  0.67520  Biso   1.000  C
  C380     1.0000 0.06030  0.99020  0.67520  Biso   1.000  C
  C381     1.0000 0.43970  0.49020  0.82480  Biso   1.000  C
  C382     1.0000 0.06030  0.50980  0.82480  Biso   1.000  C
  C383     1.0000 0.93970  0.50980  0.67520  Biso   1.000  C
  C384     1.0000 0.56030  0.49020  0.67520  Biso   1.000  C
  H273     1.0000 0.06880  0.99120  0.19700  Biso   1.000  H
  H274     1.0000 0.43120  0.00880  0.19700  Biso   1.000  H
  H275     1.0000 0.56880  0.00880  0.30300  Biso   1.000  H
  H276     1.0000 0.93120  0.99120  0.30300  Biso   1.000  H
  H277     1.0000 0.56880  0.49120  0.19700  Biso   1.000  H
  H278     1.0000 0.93120  0.50880  0.19700  Biso   1.000  H
  H279     1.0000 0.06880  0.50880  0.30300  Biso   1.000  H
  H280     1.0000 0.43120  0.49120  0.30300  Biso   1.000  H
  H281     1.0000 0.93120  0.00880  0.80300  Biso   1.000  H
  H282     1.0000 0.56880  0.99120  0.80300  Biso   1.000  H
  H283     1.0000 0.43120  0.99120  0.69700  Biso   1.000  H
  H284     1.0000 0.06880  0.00880  0.69700  Biso   1.000  H
  H285     1.0000 0.43120  0.50880  0.80300  Biso   1.000  H
  H286     1.0000 0.06880  0.49120  0.80300  Biso   1.000  H
  H287     1.0000 0.93120  0.49120  0.69700  Biso   1.000  H
  H288     1.0000 0.56880  0.50880  0.69700  Biso   1.000  H
  C385     1.0000 0.02040  0.05480  0.11630  Biso   1.000  C
  C386     1.0000 0.47960  0.94520  0.11630  Biso   1.000  C
  C387     1.0000 0.52040  0.94520  0.38370  Biso   1.000  C
  C388     1.0000 0.97960  0.05480  0.38370  Biso   1.000  C
  C389     1.0000 0.52040  0.55480  0.11630  Biso   1.000  C
  C390     1.0000 0.97960  0.44520  0.11630  Biso   1.000  C
  C391     1.0000 0.02040  0.44520  0.38370  Biso   1.000  C
  C392     1.0000 0.47960  0.55480  0.38370  Biso   1.000  C
  C393     1.0000 0.97960  0.94520  0.88370  Biso   1.000  C
  C394     1.0000 0.52040  0.05480  0.88370  Biso   1.000  C
  C395     1.0000 0.47960  0.05480  0.61630  Biso   1.000  C
  C396     1.0000 0.02040  0.94520  0.61630  Biso   1.000  C
  C397     1.0000 0.47960  0.44520  0.88370  Biso   1.000  C
  C398     1.0000 0.02040  0.55480  0.88370  Biso   1.000  C
  C399     1.0000 0.97960  0.55480  0.61630  Biso   1.000  C
  C400     1.0000 0.52040  0.44520  0.61630  Biso   1.000  C
  H289     1.0000 0.00770  0.07040  0.09270  Biso   1.000  H
  H290     1.0000 0.49230  0.92960  0.09270  Biso   1.000  H
  H291     1.0000 0.50770  0.92960  0.40730  Biso   1.000  H
  H292     1.0000 0.99230  0.07040  0.40730  Biso   1.000  H
  H293     1.0000 0.50770  0.57040  0.09270  Biso   1.000  H
  H294     1.0000 0.99230  0.42960  0.09270  Biso   1.000  H
  H295     1.0000 0.00770  0.42960  0.40730  Biso   1.000  H
  H296     1.0000 0.49230  0.57040  0.40730  Biso   1.000  H
  H297     1.0000 0.99230  0.92960  0.90730  Biso   1.000  H
  H298     1.0000 0.50770  0.07040  0.90730  Biso   1.000  H
  H299     1.0000 0.49230  0.07040  0.59270  Biso   1.000  H
  H300     1.0000 0.00770  0.92960  0.59270  Biso   1.000  H
  H301     1.0000 0.49230  0.42960  0.90730  Biso   1.000  H
  H302     1.0000 0.00770  0.57040  0.90730  Biso   1.000  H
  H303     1.0000 0.99230  0.57040  0.59270  Biso   1.000  H
  H304     1.0000 0.50770  0.42960  0.59270  Biso   1.000  H
  C401     1.0000 0.03920  0.07210  0.15830  Biso   1.000  C
  C402     1.0000 0.46080  0.92790  0.15830  Biso   1.000  C
  C403     1.0000 0.53920  0.92790  0.34170  Biso   1.000  C
  C404     1.0000 0.96080  0.07210  0.34170  Biso   1.000  C
  C405     1.0000 0.53920  0.57210  0.15830  Biso   1.000  C
  C406     1.0000 0.96080  0.42790  0.15830  Biso   1.000  C
  C407     1.0000 0.03920  0.42790  0.34170  Biso   1.000  C
  C408     1.0000 0.46080  0.57210  0.34170  Biso   1.000  C
  C409     1.0000 0.96080  0.92790  0.84170  Biso   1.000  C
  C410     1.0000 0.53920  0.07210  0.84170  Biso   1.000  C
  C411     1.0000 0.46080  0.07210  0.65830  Biso   1.000  C
  C412     1.0000 0.03920  0.92790  0.65830  Biso   1.000  C
  C413     1.0000 0.46080  0.42790  0.84170  Biso   1.000  C
  C414     1.0000 0.03920  0.57210  0.84170  Biso   1.000  C
  C415     1.0000 0.96080  0.57210  0.65830  Biso   1.000  C
  C416     1.0000 0.53920  0.42790  0.65830  Biso   1.000  C
  H305     1.0000 0.03620  0.09710  0.16560  Biso   1.000  H
  H306     1.0000 0.46380  0.90290  0.16560  Biso   1.000  H
  H307     1.0000 0.53620  0.90290  0.33440  Biso   1.000  H
  H308     1.0000 0.96380  0.09710  0.33440  Biso   1.000  H
  H309     1.0000 0.53620  0.59710  0.16560  Biso   1.000  H
  H310     1.0000 0.96380  0.40290  0.16560  Biso   1.000  H
  H311     1.0000 0.03620  0.40290  0.33440  Biso   1.000  H
  H312     1.0000 0.46380  0.59710  0.33440  Biso   1.000  H
  H313     1.0000 0.96380  0.90290  0.83440  Biso   1.000  H
  H314     1.0000 0.53620  0.09710  0.83440  Biso   1.000  H
  H315     1.0000 0.46380  0.09710  0.66560  Biso   1.000  H
  H316     1.0000 0.03620  0.90290  0.66560  Biso   1.000  H
  H317     1.0000 0.46380  0.40290  0.83440  Biso   1.000  H
  H318     1.0000 0.03620  0.59710  0.83440  Biso   1.000  H
  H319     1.0000 0.96380  0.59710  0.66560  Biso   1.000  H
  H320     1.0000 0.53620  0.40290  0.66560  Biso   1.000  H
  C417     1.0000 0.06510  0.04440  0.18990  Biso   1.000  C
  C418     1.0000 0.43490  0.95560  0.18990  Biso   1.000  C
  C419     1.0000 0.56510  0.95560  0.31010  Biso   1.000  C
  C420     1.0000 0.93490  0.04440  0.31010  Biso   1.000  C
  C421     1.0000 0.56510  0.54440  0.18990  Biso   1.000  C
  C422     1.0000 0.93490  0.45560  0.18990  Biso   1.000  C
  C423     1.0000 0.06510  0.45560  0.31010  Biso   1.000  C
  C424     1.0000 0.43490  0.54440  0.31010  Biso   1.000  C
  C425     1.0000 0.93490  0.95560  0.81010  Biso   1.000  C
  C426     1.0000 0.56510  0.04440  0.81010  Biso   1.000  C
  C427     1.0000 0.43490  0.04440  0.68990  Biso   1.000  C
  C428     1.0000 0.06510  0.95560  0.68990  Biso   1.000  C
  C429     1.0000 0.43490  0.45560  0.81010  Biso   1.000  C
  C430     1.0000 0.06510  0.54440  0.81010  Biso   1.000  C
  C431     1.0000 0.93490  0.54440  0.68990  Biso   1.000  C
  C432     1.0000 0.56510  0.45560  0.68990  Biso   1.000  C
  C433     1.0000 0.08955  0.05941  0.23400  Biso   1.000  C
  C434     1.0000 0.41045  0.94059  0.23400  Biso   1.000  C
  C435     1.0000 0.58955  0.94059  0.26600  Biso   1.000  C
  C436     1.0000 0.91045  0.05941  0.26600  Biso   1.000  C
  C437     1.0000 0.58955  0.55941  0.23400  Biso   1.000  C
  C438     1.0000 0.91045  0.44059  0.23400  Biso   1.000  C
  C439     1.0000 0.08955  0.44059  0.26600  Biso   1.000  C
  C440     1.0000 0.41045  0.55941  0.26600  Biso   1.000  C
  C441     1.0000 0.91045  0.94059  0.76600  Biso   1.000  C
  C442     1.0000 0.58955  0.05941  0.76600  Biso   1.000  C
  C443     1.0000 0.41045  0.05941  0.73400  Biso   1.000  C
  C444     1.0000 0.08955  0.94059  0.73400  Biso   1.000  C
  C445     1.0000 0.41045  0.44059  0.76600  Biso   1.000  C
  C446     1.0000 0.08955  0.55941  0.76600  Biso   1.000  C
  C447     1.0000 0.91045  0.55941  0.73400  Biso   1.000  C
  C448     1.0000 0.58955  0.44059  0.73400  Biso   1.000  C
  C449     1.0000 0.10200  0.03820  0.26940  Biso   1.000  C
  C450     1.0000 0.39800  0.96180  0.26940  Biso   1.000  C
  C451     1.0000 0.60200  0.96180  0.23060  Biso   1.000  C
  C452     1.0000 0.89800  0.03820  0.23060  Biso   1.000  C
  C453     1.0000 0.60200  0.53820  0.26940  Biso   1.000  C
  C454     1.0000 0.89800  0.46180  0.26940  Biso   1.000  C
  C455     1.0000 0.10200  0.46180  0.23060  Biso   1.000  C
  C456     1.0000 0.39800  0.53820  0.23060  Biso   1.000  C
  C457     1.0000 0.89800  0.96180  0.73060  Biso   1.000  C
  C458     1.0000 0.60200  0.03820  0.73060  Biso   1.000  C
  C459     1.0000 0.39800  0.03820  0.76940  Biso   1.000  C
  C460     1.0000 0.10200  0.96180  0.76940  Biso   1.000  C
  C461     1.0000 0.39800  0.46180  0.73060  Biso   1.000  C
  C462     1.0000 0.10200  0.53820  0.73060  Biso   1.000  C
  C463     1.0000 0.89800  0.53820  0.76940  Biso   1.000  C
  C464     1.0000 0.60200  0.46180  0.76940  Biso   1.000  C
  H321     1.0000 0.09500  0.01320  0.26670  Biso   1.000  H
  H322     1.0000 0.40500  0.98680  0.26670  Biso   1.000  H
  H323     1.0000 0.59500  0.98680  0.23330  Biso   1.000  H
  H324     1.0000 0.90500  0.01320  0.23330  Biso   1.000  H
  H325     1.0000 0.59500  0.51320  0.26670  Biso   1.000  H
  H326     1.0000 0.90500  0.48680  0.26670  Biso   1.000  H
  H327     1.0000 0.09500  0.48680  0.23330  Biso   1.000  H
  H328     1.0000 0.40500  0.51320  0.23330  Biso   1.000  H
  H329     1.0000 0.90500  0.98680  0.73330  Biso   1.000  H
  H330     1.0000 0.59500  0.01320  0.73330  Biso   1.000  H
  H331     1.0000 0.40500  0.01320  0.76670  Biso   1.000  H
  H332     1.0000 0.09500  0.98680  0.76670  Biso   1.000  H
  H333     1.0000 0.40500  0.48680  0.73330  Biso   1.000  H
  H334     1.0000 0.09500  0.51320  0.73330  Biso   1.000  H
  H335     1.0000 0.90500  0.51320  0.76670  Biso   1.000  H
  H336     1.0000 0.59500  0.48680  0.76670  Biso   1.000  H
  C465     1.0000 0.12620  0.05020  0.31340  Biso   1.000  C
  C466     1.0000 0.37380  0.94980  0.31340  Biso   1.000  C
  C467     1.0000 0.62620  0.94980  0.18660  Biso   1.000  C
  C468     1.0000 0.87380  0.05020  0.18660  Biso   1.000  C
  C469     1.0000 0.62620  0.55020  0.31340  Biso   1.000  C
  C470     1.0000 0.87380  0.44980  0.31340  Biso   1.000  C
  C471     1.0000 0.12620  0.44980  0.18660  Biso   1.000  C
  C472     1.0000 0.37380  0.55020  0.18660  Biso   1.000  C
  C473     1.0000 0.87380  0.94980  0.68660  Biso   1.000  C
  C474     1.0000 0.62620  0.05020  0.68660  Biso   1.000  C
  C475     1.0000 0.37380  0.05020  0.81340  Biso   1.000  C
  C476     1.0000 0.12620  0.94980  0.81340  Biso   1.000  C
  C477     1.0000 0.37380  0.44980  0.68660  Biso   1.000  C
  C478     1.0000 0.12620  0.55020  0.68660  Biso   1.000  C
  C479     1.0000 0.87380  0.55020  0.81340  Biso   1.000  C
  C480     1.0000 0.62620  0.44980  0.81340  Biso   1.000  C
  H337     1.0000 0.13630  0.03320  0.33670  Biso   1.000  H
  H338     1.0000 0.36370  0.96680  0.33670  Biso   1.000  H
  H339     1.0000 0.63630  0.96680  0.16330  Biso   1.000  H
  H340     1.0000 0.86370  0.03320  0.16330  Biso   1.000  H
  H341     1.0000 0.63630  0.53320  0.33670  Biso   1.000  H
  H342     1.0000 0.86370  0.46680  0.33670  Biso   1.000  H
  H343     1.0000 0.13630  0.46680  0.16330  Biso   1.000  H
  H344     1.0000 0.36370  0.53320  0.16330  Biso   1.000  H
  H345     1.0000 0.86370  0.96680  0.66330  Biso   1.000  H
  H346     1.0000 0.63630  0.03320  0.66330  Biso   1.000  H
  H347     1.0000 0.36370  0.03320  0.83670  Biso   1.000  H
  H348     1.0000 0.13630  0.96680  0.83670  Biso   1.000  H
  H349     1.0000 0.36370  0.46680  0.66330  Biso   1.000  H
  H350     1.0000 0.13630  0.53320  0.66330  Biso   1.000  H
  H351     1.0000 0.86370  0.53320  0.83670  Biso   1.000  H
  H352     1.0000 0.63630  0.46680  0.83670  Biso   1.000  H
  C481     1.0000 0.09750  0.09800  0.23880  Biso   1.000  C
  C482     1.0000 0.40250  0.90200  0.23880  Biso   1.000  C
  C483     1.0000 0.59750  0.90200  0.26120  Biso   1.000  C
  C484     1.0000 0.90250  0.09800  0.26120  Biso   1.000  C
  C485     1.0000 0.59750  0.59800  0.23880  Biso   1.000  C
  C486     1.0000 0.90250  0.40200  0.23880  Biso   1.000  C
  C487     1.0000 0.09750  0.40200  0.26120  Biso   1.000  C
  C488     1.0000 0.40250  0.59800  0.26120  Biso   1.000  C
  C489     1.0000 0.90250  0.90200  0.76120  Biso   1.000  C
  C490     1.0000 0.59750  0.09800  0.76120  Biso   1.000  C
  C491     1.0000 0.40250  0.09800  0.73880  Biso   1.000  C
  C492     1.0000 0.09750  0.90200  0.73880  Biso   1.000  C
  C493     1.0000 0.40250  0.40200  0.76120  Biso   1.000  C
  C494     1.0000 0.09750  0.59800  0.76120  Biso   1.000  C
  C495     1.0000 0.90250  0.59800  0.73880  Biso   1.000  C
  C496     1.0000 0.59750  0.40200  0.73880  Biso   1.000  C
  H353     1.0000 0.08740  0.11410  0.21450  Biso   1.000  H
  H354     1.0000 0.41260  0.88590  0.21450  Biso   1.000  H
  H355     1.0000 0.58740  0.88590  0.28550  Biso   1.000  H
  H356     1.0000 0.91260  0.11410  0.28550  Biso   1.000  H
  H357     1.0000 0.58740  0.61410  0.21450  Biso   1.000  H
  H358     1.0000 0.91260  0.38590  0.21450  Biso   1.000  H
  H359     1.0000 0.08740  0.38590  0.28550  Biso   1.000  H
  H360     1.0000 0.41260  0.61410  0.28550  Biso   1.000  H
  H361     1.0000 0.91260  0.88590  0.78550  Biso   1.000  H
  H362     1.0000 0.58740  0.11410  0.78550  Biso   1.000  H
  H363     1.0000 0.41260  0.11410  0.71450  Biso   1.000  H
  H364     1.0000 0.08740  0.88590  0.71450  Biso   1.000  H
  H365     1.0000 0.41260  0.38590  0.78550  Biso   1.000  H
  H366     1.0000 0.08740  0.61410  0.78550  Biso   1.000  H
  H367     1.0000 0.91260  0.61410  0.71450  Biso   1.000  H
  H368     1.0000 0.58740  0.38590  0.71450  Biso   1.000  H
  C497     1.0000 0.12070  0.11200  0.28030  Biso   1.000  C
  C498     1.0000 0.37930  0.88800  0.28030  Biso   1.000  C
  C499     1.0000 0.62070  0.88800  0.21970  Biso   1.000  C
  C500     1.0000 0.87930  0.11200  0.21970  Biso   1.000  C
  C501     1.0000 0.62070  0.61200  0.28030  Biso   1.000  C
  C502     1.0000 0.87930  0.38800  0.28030  Biso   1.000  C
  C503     1.0000 0.12070  0.38800  0.21970  Biso   1.000  C
  C504     1.0000 0.37930  0.61200  0.21970  Biso   1.000  C
  C505     1.0000 0.87930  0.88800  0.71970  Biso   1.000  C
  C506     1.0000 0.62070  0.11200  0.71970  Biso   1.000  C
  C507     1.0000 0.37930  0.11200  0.78030  Biso   1.000  C
  C508     1.0000 0.12070  0.88800  0.78030  Biso   1.000  C
  C509     1.0000 0.37930  0.38800  0.71970  Biso   1.000  C
  C510     1.0000 0.12070  0.61200  0.71970  Biso   1.000  C
  C511     1.0000 0.87930  0.61200  0.78030  Biso   1.000  C
  C512     1.0000 0.62070  0.38800  0.78030  Biso   1.000  C
  H369     1.0000 0.12760  0.13700  0.28220  Biso   1.000  H
  H370     1.0000 0.37240  0.86300  0.28220  Biso   1.000  H
  H371     1.0000 0.62760  0.86300  0.21780  Biso   1.000  H
  H372     1.0000 0.87240  0.13700  0.21780  Biso   1.000  H
  H373     1.0000 0.62760  0.63700  0.28220  Biso   1.000  H
  H374     1.0000 0.87240  0.36300  0.28220  Biso   1.000  H
  H375     1.0000 0.12760  0.36300  0.21780  Biso   1.000  H
  H376     1.0000 0.37240  0.63700  0.21780  Biso   1.000  H
  H377     1.0000 0.87240  0.86300  0.71780  Biso   1.000  H
  H378     1.0000 0.62760  0.13700  0.71780  Biso   1.000  H
  H379     1.0000 0.37240  0.13700  0.78220  Biso   1.000  H
  H380     1.0000 0.12760  0.86300  0.78220  Biso   1.000  H
  H381     1.0000 0.37240  0.36300  0.71780  Biso   1.000  H
  H382     1.0000 0.12760  0.63700  0.71780  Biso   1.000  H
  H383     1.0000 0.87240  0.63700  0.78220  Biso   1.000  H
  H384     1.0000 0.62760  0.36300  0.78220  Biso   1.000  H
  C513     1.0000 0.13349  0.08752  0.31950  Biso   1.000  C
  C514     1.0000 0.36651  0.91248  0.31950  Biso   1.000  C
  C515     1.0000 0.63349  0.91248  0.18050  Biso   1.000  C
  C516     1.0000 0.86651  0.08752  0.18050  Biso   1.000  C
  C517     1.0000 0.63349  0.58752  0.31950  Biso   1.000  C
  C518     1.0000 0.86651  0.41248  0.31950  Biso   1.000  C
  C519     1.0000 0.13349  0.41248  0.18050  Biso   1.000  C
  C520     1.0000 0.36651  0.58752  0.18050  Biso   1.000  C
  C521     1.0000 0.86651  0.91248  0.68050  Biso   1.000  C
  C522     1.0000 0.63349  0.08752  0.68050  Biso   1.000  C
  C523     1.0000 0.36651  0.08752  0.81950  Biso   1.000  C
  C524     1.0000 0.13349  0.91248  0.81950  Biso   1.000  C
  C525     1.0000 0.36651  0.41248  0.68050  Biso   1.000  C
  C526     1.0000 0.13349  0.58752  0.68050  Biso   1.000  C
  C527     1.0000 0.86651  0.58752  0.81950  Biso   1.000  C
  C528     1.0000 0.63349  0.41248  0.81950  Biso   1.000  C
  N1       1.0000 0.26847  0.21445  0.64764  Biso   1.000  N
  N2       1.0000 0.23153  0.78555  0.64764  Biso   1.000  N
  N3       1.0000 0.76847  0.78555  0.85236  Biso   1.000  N
  N4       1.0000 0.73153  0.21445  0.85236  Biso   1.000  N
  N5       1.0000 0.76847  0.71445  0.64764  Biso   1.000  N
  N6       1.0000 0.73153  0.28555  0.64764  Biso   1.000  N
  N7       1.0000 0.26847  0.28555  0.85236  Biso   1.000  N
  N8       1.0000 0.23153  0.71445  0.85236  Biso   1.000  N
  N9       1.0000 0.73153  0.78555  0.35236  Biso   1.000  N
  N10      1.0000 0.76847  0.21445  0.35236  Biso   1.000  N
  N11      1.0000 0.23153  0.21445  0.14764  Biso   1.000  N
  N12      1.0000 0.26847  0.78555  0.14764  Biso   1.000  N
  N13      1.0000 0.23153  0.28555  0.35236  Biso   1.000  N
  N14      1.0000 0.26847  0.71445  0.35236  Biso   1.000  N
  N15      1.0000 0.73153  0.71445  0.14764  Biso   1.000  N
  N16      1.0000 0.76847  0.28555  0.14764  Biso   1.000  N
  C529     1.0000 0.24570  0.23904  0.61700  Biso   1.000  C
  C530     1.0000 0.25430  0.76096  0.61700  Biso   1.000  C
  C531     1.0000 0.74570  0.76096  0.88300  Biso   1.000  C
  C532     1.0000 0.75430  0.23904  0.88300  Biso   1.000  C
  C533     1.0000 0.74570  0.73904  0.61700  Biso   1.000  C
  C534     1.0000 0.75430  0.26096  0.61700  Biso   1.000  C
  C535     1.0000 0.24570  0.26096  0.88300  Biso   1.000  C
  C536     1.0000 0.25430  0.73904  0.88300  Biso   1.000  C
  C537     1.0000 0.75430  0.76096  0.38300  Biso   1.000  C
  C538     1.0000 0.74570  0.23904  0.38300  Biso   1.000  C
  C539     1.0000 0.25430  0.23904  0.11700  Biso   1.000  C
  C540     1.0000 0.24570  0.76096  0.11700  Biso   1.000  C
  C541     1.0000 0.25430  0.26096  0.38300  Biso   1.000  C
  C542     1.0000 0.24570  0.73904  0.38300  Biso   1.000  C
  C543     1.0000 0.75430  0.73904  0.11700  Biso   1.000  C
  C544     1.0000 0.74570  0.26096  0.11700  Biso   1.000  C
  H385     1.0000 0.24600  0.26420  0.62390  Biso   1.000  H
  H386     1.0000 0.25400  0.73580  0.62390  Biso   1.000  H
  H387     1.0000 0.74600  0.73580  0.87610  Biso   1.000  H
  H388     1.0000 0.75400  0.26420  0.87610  Biso   1.000  H
  H389     1.0000 0.74600  0.76420  0.62390  Biso   1.000  H
  H390     1.0000 0.75400  0.23580  0.62390  Biso   1.000  H
  H391     1.0000 0.24600  0.23580  0.87610  Biso   1.000  H
  H392     1.0000 0.25400  0.76420  0.87610  Biso   1.000  H
  H393     1.0000 0.75400  0.73580  0.37610  Biso   1.000  H
  H394     1.0000 0.74600  0.26420  0.37610  Biso   1.000  H
  H395     1.0000 0.25400  0.26420  0.12390  Biso   1.000  H
  H396     1.0000 0.24600  0.73580  0.12390  Biso   1.000  H
  H397     1.0000 0.25400  0.23580  0.37610  Biso   1.000  H
  H398     1.0000 0.24600  0.76420  0.37610  Biso   1.000  H
  H399     1.0000 0.75400  0.76420  0.12390  Biso   1.000  H
  H400     1.0000 0.74600  0.23580  0.12390  Biso   1.000  H
  C545     1.0000 0.22260  0.22597  0.57580  Biso   1.000  C
  C546     1.0000 0.27740  0.77403  0.57580  Biso   1.000  C
  C547     1.0000 0.72260  0.77403  0.92420  Biso   1.000  C
  C548     1.0000 0.77740  0.22597  0.92420  Biso   1.000  C
  C549     1.0000 0.72260  0.72597  0.57580  Biso   1.000  C
  C550     1.0000 0.77740  0.27403  0.57580  Biso   1.000  C
  C551     1.0000 0.22260  0.27403  0.92420  Biso   1.000  C
  C552     1.0000 0.27740  0.72597  0.92420  Biso   1.000  C
  C553     1.0000 0.77740  0.77403  0.42420  Biso   1.000  C
  C554     1.0000 0.72260  0.22597  0.42420  Biso   1.000  C
  C555     1.0000 0.27740  0.22597  0.07580  Biso   1.000  C
  C556     1.0000 0.22260  0.77403  0.07580  Biso   1.000  C
  C557     1.0000 0.27740  0.27403  0.42420  Biso   1.000  C
  C558     1.0000 0.22260  0.72597  0.42420  Biso   1.000  C
  C559     1.0000 0.77740  0.72597  0.07580  Biso   1.000  C
  C560     1.0000 0.72260  0.27403  0.07580  Biso   1.000  C
  H401     1.0000 0.20740  0.24240  0.55530  Biso   1.000  H
  H402     1.0000 0.29260  0.75760  0.55530  Biso   1.000  H
  H403     1.0000 0.70740  0.75760  0.94470  Biso   1.000  H
  H404     1.0000 0.79260  0.24240  0.94470  Biso   1.000  H
  H405     1.0000 0.70740  0.74240  0.55530  Biso   1.000  H
  H406     1.0000 0.79260  0.25760  0.55530  Biso   1.000  H
  H407     1.0000 0.20740  0.25760  0.94470  Biso   1.000  H
  H408     1.0000 0.29260  0.74240  0.94470  Biso   1.000  H
  H409     1.0000 0.79260  0.75760  0.44470  Biso   1.000  H
  H410     1.0000 0.70740  0.24240  0.44470  Biso   1.000  H
  H411     1.0000 0.29260  0.24240  0.05530  Biso   1.000  H
  H412     1.0000 0.20740  0.75760  0.05530  Biso   1.000  H
  H413     1.0000 0.29260  0.25760  0.44470  Biso   1.000  H
  H414     1.0000 0.20740  0.74240  0.44470  Biso   1.000  H
  H415     1.0000 0.79260  0.74240  0.05530  Biso   1.000  H
  H416     1.0000 0.70740  0.25760  0.05530  Biso   1.000  H
  C561     1.0000 0.22220  0.18832  0.56540  Biso   1.000  C
  C562     1.0000 0.27780  0.81168  0.56540  Biso   1.000  C
  C563     1.0000 0.72220  0.81168  0.93460  Biso   1.000  C
  C564     1.0000 0.77780  0.18832  0.93460  Biso   1.000  C
  C565     1.0000 0.72220  0.68832  0.56540  Biso   1.000  C
  C566     1.0000 0.77780  0.31168  0.56540  Biso   1.000  C
  C567     1.0000 0.22220  0.31168  0.93460  Biso   1.000  C
  C568     1.0000 0.27780  0.68832  0.93460  Biso   1.000  C
  C569     1.0000 0.77780  0.81168  0.43460  Biso   1.000  C
  C570     1.0000 0.72220  0.18832  0.43460  Biso   1.000  C
  C571     1.0000 0.27780  0.18832  0.06540  Biso   1.000  C
  C572     1.0000 0.22220  0.81168  0.06540  Biso   1.000  C
  C573     1.0000 0.27780  0.31168  0.43460  Biso   1.000  C
  C574     1.0000 0.22220  0.68832  0.43460  Biso   1.000  C
  C575     1.0000 0.77780  0.68832  0.06540  Biso   1.000  C
  C576     1.0000 0.72220  0.31168  0.06540  Biso   1.000  C
  C577     1.0000 0.24500  0.16373  0.59610  Biso   1.000  C
  C578     1.0000 0.25500  0.83627  0.59610  Biso   1.000  C
  C579     1.0000 0.74500  0.83627  0.90390  Biso   1.000  C
  C580     1.0000 0.75500  0.16373  0.90390  Biso   1.000  C
  C581     1.0000 0.74500  0.66373  0.59610  Biso   1.000  C
  C582     1.0000 0.75500  0.33627  0.59610  Biso   1.000  C
  C583     1.0000 0.24500  0.33627  0.90390  Biso   1.000  C
  C584     1.0000 0.25500  0.66373  0.90390  Biso   1.000  C
  C585     1.0000 0.75500  0.83627  0.40390  Biso   1.000  C
  C586     1.0000 0.74500  0.16373  0.40390  Biso   1.000  C
  C587     1.0000 0.25500  0.16373  0.09610  Biso   1.000  C
  C588     1.0000 0.24500  0.83627  0.09610  Biso   1.000  C
  C589     1.0000 0.25500  0.33627  0.40390  Biso   1.000  C
  C590     1.0000 0.24500  0.66373  0.40390  Biso   1.000  C
  C591     1.0000 0.75500  0.66373  0.09610  Biso   1.000  C
  C592     1.0000 0.74500  0.33627  0.09610  Biso   1.000  C
  H417     1.0000 0.24470  0.13850  0.58910  Biso   1.000  H
  H418     1.0000 0.25530  0.86150  0.58910  Biso   1.000  H
  H419     1.0000 0.74470  0.86150  0.91090  Biso   1.000  H
  H420     1.0000 0.75530  0.13850  0.91090  Biso   1.000  H
  H421     1.0000 0.74470  0.63850  0.58910  Biso   1.000  H
  H422     1.0000 0.75530  0.36150  0.58910  Biso   1.000  H
  H423     1.0000 0.24470  0.36150  0.91090  Biso   1.000  H
  H424     1.0000 0.25530  0.63850  0.91090  Biso   1.000  H
  H425     1.0000 0.75530  0.86150  0.41090  Biso   1.000  H
  H426     1.0000 0.74470  0.13850  0.41090  Biso   1.000  H
  H427     1.0000 0.25530  0.13850  0.08910  Biso   1.000  H
  H428     1.0000 0.24470  0.86150  0.08910  Biso   1.000  H
  H429     1.0000 0.25530  0.36150  0.41090  Biso   1.000  H
  H430     1.0000 0.24470  0.63850  0.41090  Biso   1.000  H
  H431     1.0000 0.75530  0.63850  0.08910  Biso   1.000  H
  H432     1.0000 0.74470  0.36150  0.08910  Biso   1.000  H
  C593     1.0000 0.26810  0.17679  0.63720  Biso   1.000  C
  C594     1.0000 0.23190  0.82321  0.63720  Biso   1.000  C
  C595     1.0000 0.76810  0.82321  0.86280  Biso   1.000  C
  C596     1.0000 0.73190  0.17679  0.86280  Biso   1.000  C
  C597     1.0000 0.76810  0.67679  0.63720  Biso   1.000  C
  C598     1.0000 0.73190  0.32321  0.63720  Biso   1.000  C
  C599     1.0000 0.26810  0.32321  0.86280  Biso   1.000  C
  C600     1.0000 0.23190  0.67679  0.86280  Biso   1.000  C
  C601     1.0000 0.73190  0.82321  0.36280  Biso   1.000  C
  C602     1.0000 0.76810  0.17679  0.36280  Biso   1.000  C
  C603     1.0000 0.23190  0.17679  0.13720  Biso   1.000  C
  C604     1.0000 0.26810  0.82321  0.13720  Biso   1.000  C
  C605     1.0000 0.23190  0.32321  0.36280  Biso   1.000  C
  C606     1.0000 0.26810  0.67679  0.36280  Biso   1.000  C
  C607     1.0000 0.73190  0.67679  0.13720  Biso   1.000  C
  C608     1.0000 0.76810  0.32321  0.13720  Biso   1.000  C
  H433     1.0000 0.28330  0.16030  0.65770  Biso   1.000  H
  H434     1.0000 0.21670  0.83970  0.65770  Biso   1.000  H
  H435     1.0000 0.78330  0.83970  0.84230  Biso   1.000  H
  H436     1.0000 0.71670  0.16030  0.84230  Biso   1.000  H
  H437     1.0000 0.78330  0.66030  0.65770  Biso   1.000  H
  H438     1.0000 0.71670  0.33970  0.65770  Biso   1.000  H
  H439     1.0000 0.28330  0.33970  0.84230  Biso   1.000  H
  H440     1.0000 0.21670  0.66030  0.84230  Biso   1.000  H
  H441     1.0000 0.71670  0.83970  0.34230  Biso   1.000  H
  H442     1.0000 0.78330  0.16030  0.34230  Biso   1.000  H
  H443     1.0000 0.21670  0.16030  0.15770  Biso   1.000  H
  H444     1.0000 0.28330  0.83970  0.15770  Biso   1.000  H
  H445     1.0000 0.21670  0.33970  0.34230  Biso   1.000  H
  H446     1.0000 0.28330  0.66030  0.34230  Biso   1.000  H
  H447     1.0000 0.71670  0.66030  0.15770  Biso   1.000  H
  H448     1.0000 0.78330  0.33970  0.15770  Biso   1.000  H
  C609     1.0000 0.19910  0.17429  0.51990  Biso   1.000  C
  C610     1.0000 0.30090  0.82571  0.51990  Biso   1.000  C
  C611     1.0000 0.69910  0.82571  0.98010  Biso   1.000  C
  C612     1.0000 0.80090  0.17429  0.98010  Biso   1.000  C
  C613     1.0000 0.69910  0.67429  0.51990  Biso   1.000  C
  C614     1.0000 0.80090  0.32571  0.51990  Biso   1.000  C
  C615     1.0000 0.19910  0.32571  0.98010  Biso   1.000  C
  C616     1.0000 0.30090  0.67429  0.98010  Biso   1.000  C
  C617     1.0000 0.80090  0.82571  0.48010  Biso   1.000  C
  C618     1.0000 0.69910  0.17429  0.48010  Biso   1.000  C
  C619     1.0000 0.30090  0.17429  0.01990  Biso   1.000  C
  C620     1.0000 0.19910  0.82571  0.01990  Biso   1.000  C
  C621     1.0000 0.30090  0.32571  0.48010  Biso   1.000  C
  C622     1.0000 0.19910  0.67429  0.48010  Biso   1.000  C
  C623     1.0000 0.80090  0.67429  0.01990  Biso   1.000  C
  C624     1.0000 0.69910  0.32571  0.01990  Biso   1.000  C
  C625     1.0000 0.15570  0.15850  0.52300  Biso   1.000  C
  C626     1.0000 0.34430  0.84150  0.52300  Biso   1.000  C
  C627     1.0000 0.65570  0.84150  0.97700  Biso   1.000  C
  C628     1.0000 0.84430  0.15850  0.97700  Biso   1.000  C
  C629     1.0000 0.65570  0.65850  0.52300  Biso   1.000  C
  C630     1.0000 0.84430  0.34150  0.52300  Biso   1.000  C
  C631     1.0000 0.15570  0.34150  0.97700  Biso   1.000  C
  C632     1.0000 0.34430  0.65850  0.97700  Biso   1.000  C
  C633     1.0000 0.84430  0.84150  0.47700  Biso   1.000  C
  C634     1.0000 0.65570  0.15850  0.47700  Biso   1.000  C
  C635     1.0000 0.34430  0.15850  0.02300  Biso   1.000  C
  C636     1.0000 0.15570  0.84150  0.02300  Biso   1.000  C
  C637     1.0000 0.34430  0.34150  0.47700  Biso   1.000  C
  C638     1.0000 0.15570  0.65850  0.47700  Biso   1.000  C
  C639     1.0000 0.84430  0.65850  0.02300  Biso   1.000  C
  C640     1.0000 0.65570  0.34150  0.02300  Biso   1.000  C
  H449     1.0000 0.14010  0.15680  0.55280  Biso   1.000  H
  H450     1.0000 0.35990  0.84320  0.55280  Biso   1.000  H
  H451     1.0000 0.64010  0.84320  0.94720  Biso   1.000  H
  H452     1.0000 0.85990  0.15680  0.94720  Biso   1.000  H
  H453     1.0000 0.64010  0.65680  0.55280  Biso   1.000  H
  H454     1.0000 0.85990  0.34320  0.55280  Biso   1.000  H
  H455     1.0000 0.14010  0.34320  0.94720  Biso   1.000  H
  H456     1.0000 0.35990  0.65680  0.94720  Biso   1.000  H
  H457     1.0000 0.85990  0.84320  0.44720  Biso   1.000  H
  H458     1.0000 0.64010  0.15680  0.44720  Biso   1.000  H
  H459     1.0000 0.35990  0.15680  0.05280  Biso   1.000  H
  H460     1.0000 0.14010  0.84320  0.05280  Biso   1.000  H
  H461     1.0000 0.35990  0.34320  0.44720  Biso   1.000  H
  H462     1.0000 0.14010  0.65680  0.44720  Biso   1.000  H
  H463     1.0000 0.85990  0.65680  0.05280  Biso   1.000  H
  H464     1.0000 0.64010  0.34320  0.05280  Biso   1.000  H
  C641     1.0000 0.13780  0.14590  0.48030  Biso   1.000  C
  C642     1.0000 0.36220  0.85410  0.48030  Biso   1.000  C
  C643     1.0000 0.63780  0.85410  0.01970  Biso   1.000  C
  C644     1.0000 0.86220  0.14590  0.01970  Biso   1.000  C
  C645     1.0000 0.63780  0.64590  0.48030  Biso   1.000  C
  C646     1.0000 0.86220  0.35410  0.48030  Biso   1.000  C
  C647     1.0000 0.13780  0.35410  0.01970  Biso   1.000  C
  C648     1.0000 0.36220  0.64590  0.01970  Biso   1.000  C
  C649     1.0000 0.86220  0.85410  0.51970  Biso   1.000  C
  C650     1.0000 0.63780  0.14590  0.51970  Biso   1.000  C
  C651     1.0000 0.36220  0.14590  0.98030  Biso   1.000  C
  C652     1.0000 0.13780  0.85410  0.98030  Biso   1.000  C
  C653     1.0000 0.36220  0.35410  0.51970  Biso   1.000  C
  C654     1.0000 0.13780  0.64590  0.51970  Biso   1.000  C
  C655     1.0000 0.86220  0.64590  0.98030  Biso   1.000  C
  C656     1.0000 0.63780  0.35410  0.98030  Biso   1.000  C
  H465     1.0000 0.10860  0.13630  0.48240  Biso   1.000  H
  H466     1.0000 0.39140  0.86370  0.48240  Biso   1.000  H
  H467     1.0000 0.60860  0.86370  0.01760  Biso   1.000  H
  H468     1.0000 0.89140  0.13630  0.01760  Biso   1.000  H
  H469     1.0000 0.60860  0.63630  0.48240  Biso   1.000  H
  H470     1.0000 0.89140  0.36370  0.48240  Biso   1.000  H
  H471     1.0000 0.10860  0.36370  0.01760  Biso   1.000  H
  H472     1.0000 0.39140  0.63630  0.01760  Biso   1.000  H
  H473     1.0000 0.89140  0.86370  0.51760  Biso   1.000  H
  H474     1.0000 0.60860  0.13630  0.51760  Biso   1.000  H
  H475     1.0000 0.39140  0.13630  0.98240  Biso   1.000  H
  H476     1.0000 0.10860  0.86370  0.98240  Biso   1.000  H
  H477     1.0000 0.39140  0.36370  0.51760  Biso   1.000  H
  H478     1.0000 0.10860  0.63630  0.51760  Biso   1.000  H
  H479     1.0000 0.89140  0.63630  0.98240  Biso   1.000  H
  H480     1.0000 0.60860  0.36370  0.98240  Biso   1.000  H
  C657     1.0000 0.22030  0.17680  0.47440  Biso   1.000  C
  C658     1.0000 0.27970  0.82320  0.47440  Biso   1.000  C
  C659     1.0000 0.72030  0.82320  0.02560  Biso   1.000  C
  C660     1.0000 0.77970  0.17680  0.02560  Biso   1.000  C
  C661     1.0000 0.72030  0.67680  0.47440  Biso   1.000  C
  C662     1.0000 0.77970  0.32320  0.47440  Biso   1.000  C
  C663     1.0000 0.22030  0.32320  0.02560  Biso   1.000  C
  C664     1.0000 0.27970  0.67680  0.02560  Biso   1.000  C
  C665     1.0000 0.77970  0.82320  0.52560  Biso   1.000  C
  C666     1.0000 0.72030  0.17680  0.52560  Biso   1.000  C
  C667     1.0000 0.27970  0.17680  0.97440  Biso   1.000  C
  C668     1.0000 0.22030  0.82320  0.97440  Biso   1.000  C
  C669     1.0000 0.27970  0.32320  0.52560  Biso   1.000  C
  C670     1.0000 0.22030  0.67680  0.52560  Biso   1.000  C
  C671     1.0000 0.77970  0.67680  0.97440  Biso   1.000  C
  C672     1.0000 0.72030  0.32320  0.97440  Biso   1.000  C
  H481     1.0000 0.24930  0.18680  0.47220  Biso   1.000  H
  H482     1.0000 0.25070  0.81320  0.47220  Biso   1.000  H
  H483     1.0000 0.74930  0.81320  0.02780  Biso   1.000  H
  H484     1.0000 0.75070  0.18680  0.02780  Biso   1.000  H
  H485     1.0000 0.74930  0.68680  0.47220  Biso   1.000  H
  H486     1.0000 0.75070  0.31320  0.47220  Biso   1.000  H
  H487     1.0000 0.24930  0.31320  0.02780  Biso   1.000  H
  H488     1.0000 0.25070  0.68680  0.02780  Biso   1.000  H
  H489     1.0000 0.75070  0.81320  0.52780  Biso   1.000  H
  H490     1.0000 0.74930  0.18680  0.52780  Biso   1.000  H
  H491     1.0000 0.25070  0.18680  0.97220  Biso   1.000  H
  H492     1.0000 0.24930  0.81320  0.97220  Biso   1.000  H
  H493     1.0000 0.25070  0.31320  0.52780  Biso   1.000  H
  H494     1.0000 0.24930  0.68680  0.52780  Biso   1.000  H
  H495     1.0000 0.75070  0.68680  0.97220  Biso   1.000  H
  H496     1.0000 0.74930  0.31320  0.97220  Biso   1.000  H
  C673     1.0000 0.19850  0.16420  0.43170  Biso   1.000  C
  C674     1.0000 0.30150  0.83580  0.43170  Biso   1.000  C
  C675     1.0000 0.69850  0.83580  0.06830  Biso   1.000  C
  C676     1.0000 0.80150  0.16420  0.06830  Biso   1.000  C
  C677     1.0000 0.69850  0.66420  0.43170  Biso   1.000  C
  C678     1.0000 0.80150  0.33580  0.43170  Biso   1.000  C
  C679     1.0000 0.19850  0.33580  0.06830  Biso   1.000  C
  C680     1.0000 0.30150  0.66420  0.06830  Biso   1.000  C
  C681     1.0000 0.80150  0.83580  0.56830  Biso   1.000  C
  C682     1.0000 0.69850  0.16420  0.56830  Biso   1.000  C
  C683     1.0000 0.30150  0.16420  0.93170  Biso   1.000  C
  C684     1.0000 0.19850  0.83580  0.93170  Biso   1.000  C
  C685     1.0000 0.30150  0.33580  0.56830  Biso   1.000  C
  C686     1.0000 0.19850  0.66420  0.56830  Biso   1.000  C
  C687     1.0000 0.80150  0.66420  0.93170  Biso   1.000  C
  C688     1.0000 0.69850  0.33580  0.93170  Biso   1.000  C
  H497     1.0000 0.21140  0.16810  0.40080  Biso   1.000  H
  H498     1.0000 0.28860  0.83190  0.40080  Biso   1.000  H
  H499     1.0000 0.71140  0.83190  0.09920  Biso   1.000  H
  H500     1.0000 0.78860  0.16810  0.09920  Biso   1.000  H
  H501     1.0000 0.71140  0.66810  0.40080  Biso   1.000  H
  H502     1.0000 0.78860  0.33190  0.40080  Biso   1.000  H
  H503     1.0000 0.21140  0.33190  0.09920  Biso   1.000  H
  H504     1.0000 0.28860  0.66810  0.09920  Biso   1.000  H
  H505     1.0000 0.78860  0.83190  0.59920  Biso   1.000  H
  H506     1.0000 0.71140  0.16810  0.59920  Biso   1.000  H
  H507     1.0000 0.28860  0.16810  0.90080  Biso   1.000  H
  H508     1.0000 0.21140  0.83190  0.90080  Biso   1.000  H
  H509     1.0000 0.28860  0.33190  0.59920  Biso   1.000  H
  H510     1.0000 0.21140  0.66810  0.59920  Biso   1.000  H
  H511     1.0000 0.78860  0.66810  0.90080  Biso   1.000  H
  H512     1.0000 0.71140  0.33190  0.90080  Biso   1.000  H
  C689     1.0000 0.15640  0.14532  0.43630  Biso   1.000  C
  C690     1.0000 0.34360  0.85468  0.43630  Biso   1.000  C
  C691     1.0000 0.65640  0.85468  0.06370  Biso   1.000  C
  C692     1.0000 0.84360  0.14532  0.06370  Biso   1.000  C
  C693     1.0000 0.65640  0.64532  0.43630  Biso   1.000  C
  C694     1.0000 0.84360  0.35468  0.43630  Biso   1.000  C
  C695     1.0000 0.15640  0.35468  0.06370  Biso   1.000  C
  C696     1.0000 0.34360  0.64532  0.06370  Biso   1.000  C
  C697     1.0000 0.84360  0.85468  0.56370  Biso   1.000  C
  C698     1.0000 0.65640  0.14532  0.56370  Biso   1.000  C
  C699     1.0000 0.34360  0.14532  0.93630  Biso   1.000  C
  C700     1.0000 0.15640  0.85468  0.93630  Biso   1.000  C
  C701     1.0000 0.34360  0.35468  0.56370  Biso   1.000  C
  C702     1.0000 0.15640  0.64532  0.56370  Biso   1.000  C
  C703     1.0000 0.84360  0.64532  0.93630  Biso   1.000  C
  C704     1.0000 0.65640  0.35468  0.93630  Biso   1.000  C
  C705     1.0000 0.13537  0.12948  0.39068  Biso   1.000  C
  C706     1.0000 0.36463  0.87052  0.39068  Biso   1.000  C
  C707     1.0000 0.63537  0.87052  0.10932  Biso   1.000  C
  C708     1.0000 0.86463  0.12948  0.10932  Biso   1.000  C
  C709     1.0000 0.63537  0.62948  0.39068  Biso   1.000  C
  C710     1.0000 0.86463  0.37052  0.39068  Biso   1.000  C
  C711     1.0000 0.13537  0.37052  0.10932  Biso   1.000  C
  C712     1.0000 0.36463  0.62948  0.10932  Biso   1.000  C
  C713     1.0000 0.86463  0.87052  0.60932  Biso   1.000  C
  C714     1.0000 0.63537  0.12948  0.60932  Biso   1.000  C
  C715     1.0000 0.36463  0.12948  0.89068  Biso   1.000  C
  C716     1.0000 0.13537  0.87052  0.89068  Biso   1.000  C
  C717     1.0000 0.36463  0.37052  0.60932  Biso   1.000  C
  C718     1.0000 0.13537  0.62948  0.60932  Biso   1.000  C
  C719     1.0000 0.86463  0.62948  0.89068  Biso   1.000  C
  C720     1.0000 0.63537  0.37052  0.89068  Biso   1.000  C
  C721     1.0000 0.15556  0.10322  0.36307  Biso   1.000  C
  C722     1.0000 0.34444  0.89678  0.36307  Biso   1.000  C
  C723     1.0000 0.65556  0.89678  0.13693  Biso   1.000  C
  C724     1.0000 0.84444  0.10322  0.13693  Biso   1.000  C
  C725     1.0000 0.65556  0.60322  0.36307  Biso   1.000  C
  C726     1.0000 0.84444  0.39678  0.36307  Biso   1.000  C
  C727     1.0000 0.15556  0.39678  0.13693  Biso   1.000  C
  C728     1.0000 0.34444  0.60322  0.13693  Biso   1.000  C
  C729     1.0000 0.84444  0.89678  0.63693  Biso   1.000  C
  C730     1.0000 0.65556  0.10322  0.63693  Biso   1.000  C
  C731     1.0000 0.34444  0.10322  0.86307  Biso   1.000  C
  C732     1.0000 0.15556  0.89678  0.86307  Biso   1.000  C
  C733     1.0000 0.34444  0.39678  0.63693  Biso   1.000  C
  C734     1.0000 0.15556  0.60322  0.63693  Biso   1.000  C
  C735     1.0000 0.84444  0.60322  0.86307  Biso   1.000  C
  C736     1.0000 0.65556  0.39678  0.86307  Biso   1.000  C
  N17      1.0000 0.87285  0.21773  0.31130  Biso   1.000  N
  N18      1.0000 0.62715  0.78227  0.31130  Biso   1.000  N
  N19      1.0000 0.37285  0.78227  0.18870  Biso   1.000  N
  N20      1.0000 0.12715  0.21773  0.18870  Biso   1.000  N
  N21      1.0000 0.37285  0.71773  0.31130  Biso   1.000  N
  N22      1.0000 0.12715  0.28227  0.31130  Biso   1.000  N
  N23      1.0000 0.87285  0.28227  0.18870  Biso   1.000  N
  N24      1.0000 0.62715  0.71773  0.18870  Biso   1.000  N
  N25      1.0000 0.12715  0.78227  0.68870  Biso   1.000  N
  N26      1.0000 0.37285  0.21773  0.68870  Biso   1.000  N
  N27      1.0000 0.62715  0.21773  0.81130  Biso   1.000  N
  N28      1.0000 0.87285  0.78227  0.81130  Biso   1.000  N
  N29      1.0000 0.62715  0.28227  0.68870  Biso   1.000  N
  N30      1.0000 0.87285  0.71773  0.68870  Biso   1.000  N
  N31      1.0000 0.12715  0.71773  0.81130  Biso   1.000  N
  N32      1.0000 0.37285  0.28227  0.81130  Biso   1.000  N
  N33      1.0000 0.42130  0.01877  0.43370  Biso   1.000  N
  N34      1.0000 0.07870  0.98123  0.43370  Biso   1.000  N
  N35      1.0000 0.92130  0.98123  0.06630  Biso   1.000  N
  N36      1.0000 0.57870  0.01877  0.06630  Biso   1.000  N
  N37      1.0000 0.92130  0.51877  0.43370  Biso   1.000  N
  N38      1.0000 0.57870  0.48123  0.43370  Biso   1.000  N
  N39      1.0000 0.42130  0.48123  0.06630  Biso   1.000  N
  N40      1.0000 0.07870  0.51877  0.06630  Biso   1.000  N
  N41      1.0000 0.57870  0.98123  0.56630  Biso   1.000  N
  N42      1.0000 0.92130  0.01877  0.56630  Biso   1.000  N
  N43      1.0000 0.07870  0.01877  0.93370  Biso   1.000  N
  N44      1.0000 0.42130  0.98123  0.93370  Biso   1.000  N
  N45      1.0000 0.07870  0.48123  0.56630  Biso   1.000  N
  N46      1.0000 0.42130  0.51877  0.56630  Biso   1.000  N
  N47      1.0000 0.57870  0.51877  0.93370  Biso   1.000  N
  N48      1.0000 0.92130  0.48123  0.93370  Biso   1.000  N
  N49      1.0000 0.01894  0.01819  0.10664  Biso   1.000  N
  N50      1.0000 0.48106  0.98181  0.10664  Biso   1.000  N
  N51      1.0000 0.51894  0.98181  0.39336  Biso   1.000  N
  N52      1.0000 0.98106  0.01819  0.39336  Biso   1.000  N
  N53      1.0000 0.51894  0.51819  0.10664  Biso   1.000  N
  N54      1.0000 0.98106  0.48181  0.10664  Biso   1.000  N
  N55      1.0000 0.01894  0.48181  0.39336  Biso   1.000  N
  N56      1.0000 0.48106  0.51819  0.39336  Biso   1.000  N
  N57      1.0000 0.98106  0.98181  0.89336  Biso   1.000  N
  N58      1.0000 0.51894  0.01819  0.89336  Biso   1.000  N
  N59      1.0000 0.48106  0.01819  0.60664  Biso   1.000  N
  N60      1.0000 0.01894  0.98181  0.60664  Biso   1.000  N
  N61      1.0000 0.48106  0.48181  0.89336  Biso   1.000  N
  N62      1.0000 0.01894  0.51819  0.89336  Biso   1.000  N
  N63      1.0000 0.98106  0.51819  0.60664  Biso   1.000  N
  N64      1.0000 0.51894  0.48181  0.60664  Biso   1.000  N
  I1       1.0000 0.78882  0.30492  0.28737  Biso   1.000  I
  I2       1.0000 0.71118  0.69508  0.28737  Biso   1.000  I
  I3       1.0000 0.28882  0.69508  0.21263  Biso   1.000  I
  I4       1.0000 0.21118  0.30492  0.21263  Biso   1.000  I
  I5       1.0000 0.28882  0.80492  0.28737  Biso   1.000  I
  I6       1.0000 0.21118  0.19508  0.28737  Biso   1.000  I
  I7       1.0000 0.78882  0.19508  0.21263  Biso   1.000  I
  I8       1.0000 0.71118  0.80492  0.21263  Biso   1.000  I
  I9       1.0000 0.21118  0.69508  0.71263  Biso   1.000  I
  I10      1.0000 0.28882  0.30492  0.71263  Biso   1.000  I
  I11      1.0000 0.71118  0.30492  0.78737  Biso   1.000  I
  I12      1.0000 0.78882  0.69508  0.78737  Biso   1.000  I
  I13      1.0000 0.71118  0.19508  0.71263  Biso   1.000  I
  I14      1.0000 0.78882  0.80492  0.71263  Biso   1.000  I
  I15      1.0000 0.21118  0.80492  0.78737  Biso   1.000  I
  I16      1.0000 0.28882  0.19508  0.78737  Biso   1.000  I
  I17      1.0000 0.47059  0.94152  0.51155  Biso   1.000  I
  I18      1.0000 0.02941  0.05848  0.51155  Biso   1.000  I
  I19      1.0000 0.97059  0.05848  0.98845  Biso   1.000  I
  I20      1.0000 0.52941  0.94152  0.98845  Biso   1.000  I
  I21      1.0000 0.97059  0.44152  0.51155  Biso   1.000  I
  I22      1.0000 0.52941  0.55848  0.51155  Biso   1.000  I
  I23      1.0000 0.47059  0.55848  0.98845  Biso   1.000  I
  I24      1.0000 0.02941  0.44152  0.98845  Biso   1.000  I
  I25      1.0000 0.52941  0.05848  0.48845  Biso   1.000  I
  I26      1.0000 0.97059  0.94152  0.48845  Biso   1.000  I
  I27      1.0000 0.02941  0.94152  0.01155  Biso   1.000  I
  I28      1.0000 0.47059  0.05848  0.01155  Biso   1.000  I
  I29      1.0000 0.02941  0.55848  0.48845  Biso   1.000  I
  I30      1.0000 0.47059  0.44152  0.48845  Biso   1.000  I
  I31      1.0000 0.52941  0.44152  0.01155  Biso   1.000  I
  I32      1.0000 0.97059  0.55848  0.01155  Biso   1.000  I
  C737     1.0000 0.88440  0.18160  0.30480  Biso   1.000  C
  C738     1.0000 0.61560  0.81840  0.30480  Biso   1.000  C
  C739     1.0000 0.38440  0.81840  0.19520  Biso   1.000  C
  C740     1.0000 0.11560  0.18160  0.19520  Biso   1.000  C
  C741     1.0000 0.38440  0.68160  0.30480  Biso   1.000  C
  C742     1.0000 0.11560  0.31840  0.30480  Biso   1.000  C
  C743     1.0000 0.88440  0.31840  0.19520  Biso   1.000  C
  C744     1.0000 0.61560  0.68160  0.19520  Biso   1.000  C
  C745     1.0000 0.11560  0.81840  0.69520  Biso   1.000  C
  C746     1.0000 0.38440  0.18160  0.69520  Biso   1.000  C
  C747     1.0000 0.61560  0.18160  0.80480  Biso   1.000  C
  C748     1.0000 0.88440  0.81840  0.80480  Biso   1.000  C
  C749     1.0000 0.61560  0.31840  0.69520  Biso   1.000  C
  C750     1.0000 0.88440  0.68160  0.69520  Biso   1.000  C
  C751     1.0000 0.11560  0.68160  0.80480  Biso   1.000  C
  C752     1.0000 0.38440  0.31840  0.80480  Biso   1.000  C
  H513     1.0000 0.86250  0.16550  0.29230  Biso   1.000  H
  H514     1.0000 0.63750  0.83450  0.29230  Biso   1.000  H
  H515     1.0000 0.36250  0.83450  0.20770  Biso   1.000  H
  H516     1.0000 0.13750  0.16550  0.20770  Biso   1.000  H
  H517     1.0000 0.36250  0.66550  0.29230  Biso   1.000  H
  H518     1.0000 0.13750  0.33450  0.29230  Biso   1.000  H
  H519     1.0000 0.86250  0.33450  0.20770  Biso   1.000  H
  H520     1.0000 0.63750  0.66550  0.20770  Biso   1.000  H
  H521     1.0000 0.13750  0.83450  0.70770  Biso   1.000  H
  H522     1.0000 0.36250  0.16550  0.70770  Biso   1.000  H
  H523     1.0000 0.63750  0.16550  0.79230  Biso   1.000  H
  H524     1.0000 0.86250  0.83450  0.79230  Biso   1.000  H
  H525     1.0000 0.63750  0.33450  0.70770  Biso   1.000  H
  H526     1.0000 0.86250  0.66550  0.70770  Biso   1.000  H
  H527     1.0000 0.13750  0.66550  0.79230  Biso   1.000  H
  H528     1.0000 0.36250  0.33450  0.79230  Biso   1.000  H
  C753     1.0000 0.92730  0.16750  0.31580  Biso   1.000  C
  C754     1.0000 0.57270  0.83250  0.31580  Biso   1.000  C
  C755     1.0000 0.42730  0.83250  0.18420  Biso   1.000  C
  C756     1.0000 0.07270  0.16750  0.18420  Biso   1.000  C
  C757     1.0000 0.42730  0.66750  0.31580  Biso   1.000  C
  C758     1.0000 0.07270  0.33250  0.31580  Biso   1.000  C
  C759     1.0000 0.92730  0.33250  0.18420  Biso   1.000  C
  C760     1.0000 0.57270  0.66750  0.18420  Biso   1.000  C
  C761     1.0000 0.07270  0.83250  0.68420  Biso   1.000  C
  C762     1.0000 0.42730  0.16750  0.68420  Biso   1.000  C
  C763     1.0000 0.57270  0.16750  0.81580  Biso   1.000  C
  C764     1.0000 0.92730  0.83250  0.81580  Biso   1.000  C
  C765     1.0000 0.57270  0.33250  0.68420  Biso   1.000  C
  C766     1.0000 0.92730  0.66750  0.68420  Biso   1.000  C
  C767     1.0000 0.07270  0.66750  0.81580  Biso   1.000  C
  C768     1.0000 0.42730  0.33250  0.81580  Biso   1.000  C
  H529     1.0000 0.93430  0.14300  0.30850  Biso   1.000  H
  H530     1.0000 0.56570  0.85700  0.30850  Biso   1.000  H
  H531     1.0000 0.43430  0.85700  0.19150  Biso   1.000  H
  H532     1.0000 0.06570  0.14300  0.19150  Biso   1.000  H
  H533     1.0000 0.43430  0.64300  0.30850  Biso   1.000  H
  H534     1.0000 0.06570  0.35700  0.30850  Biso   1.000  H
  H535     1.0000 0.93430  0.35700  0.19150  Biso   1.000  H
  H536     1.0000 0.56570  0.64300  0.19150  Biso   1.000  H
  H537     1.0000 0.06570  0.85700  0.69150  Biso   1.000  H
  H538     1.0000 0.43430  0.14300  0.69150  Biso   1.000  H
  H539     1.0000 0.56570  0.14300  0.80850  Biso   1.000  H
  H540     1.0000 0.93430  0.85700  0.80850  Biso   1.000  H
  H541     1.0000 0.56570  0.35700  0.69150  Biso   1.000  H
  H542     1.0000 0.93430  0.64300  0.69150  Biso   1.000  H
  H543     1.0000 0.06570  0.64300  0.80850  Biso   1.000  H
  H544     1.0000 0.43430  0.35700  0.80850  Biso   1.000  H
  C769     1.0000 0.90560  0.23830  0.32530  Biso   1.000  C
  C770     1.0000 0.59440  0.76170  0.32530  Biso   1.000  C
  C771     1.0000 0.40560  0.76170  0.17470  Biso   1.000  C
  C772     1.0000 0.09440  0.23830  0.17470  Biso   1.000  C
  C773     1.0000 0.40560  0.73830  0.32530  Biso   1.000  C
  C774     1.0000 0.09440  0.26170  0.32530  Biso   1.000  C
  C775     1.0000 0.90560  0.26170  0.17470  Biso   1.000  C
  C776     1.0000 0.59440  0.73830  0.17470  Biso   1.000  C
  C777     1.0000 0.09440  0.76170  0.67470  Biso   1.000  C
  C778     1.0000 0.40560  0.23830  0.67470  Biso   1.000  C
  C779     1.0000 0.59440  0.23830  0.82530  Biso   1.000  C
  C780     1.0000 0.90560  0.76170  0.82530  Biso   1.000  C
  C781     1.0000 0.59440  0.26170  0.67470  Biso   1.000  C
  C782     1.0000 0.90560  0.73830  0.67470  Biso   1.000  C
  C783     1.0000 0.09440  0.73830  0.82530  Biso   1.000  C
  C784     1.0000 0.40560  0.26170  0.82530  Biso   1.000  C
  H545     1.0000 0.90060  0.26370  0.32680  Biso   1.000  H
  H546     1.0000 0.59940  0.73630  0.32680  Biso   1.000  H
  H547     1.0000 0.40060  0.73630  0.17320  Biso   1.000  H
  H548     1.0000 0.09940  0.26370  0.17320  Biso   1.000  H
  H549     1.0000 0.40060  0.76370  0.32680  Biso   1.000  H
  H550     1.0000 0.09940  0.23630  0.32680  Biso   1.000  H
  H551     1.0000 0.90060  0.23630  0.17320  Biso   1.000  H
  H552     1.0000 0.59940  0.76370  0.17320  Biso   1.000  H
  H553     1.0000 0.09940  0.73630  0.67320  Biso   1.000  H
  H554     1.0000 0.40060  0.26370  0.67320  Biso   1.000  H
  H555     1.0000 0.59940  0.26370  0.82680  Biso   1.000  H
  H556     1.0000 0.90060  0.73630  0.82680  Biso   1.000  H
  H557     1.0000 0.59940  0.23630  0.67320  Biso   1.000  H
  H558     1.0000 0.90060  0.76370  0.67320  Biso   1.000  H
  H559     1.0000 0.09940  0.76370  0.82680  Biso   1.000  H
  H560     1.0000 0.40060  0.23630  0.82680  Biso   1.000  H
  C785     1.0000 0.94740  0.22540  0.33830  Biso   1.000  C
  C786     1.0000 0.55260  0.77460  0.33830  Biso   1.000  C
  C787     1.0000 0.44740  0.77460  0.16170  Biso   1.000  C
  C788     1.0000 0.05260  0.22540  0.16170  Biso   1.000  C
  C789     1.0000 0.44740  0.72540  0.33830  Biso   1.000  C
  C790     1.0000 0.05260  0.27460  0.33830  Biso   1.000  C
  C791     1.0000 0.94740  0.27460  0.16170  Biso   1.000  C
  C792     1.0000 0.55260  0.72540  0.16170  Biso   1.000  C
  C793     1.0000 0.05260  0.77460  0.66170  Biso   1.000  C
  C794     1.0000 0.44740  0.22540  0.66170  Biso   1.000  C
  C795     1.0000 0.55260  0.22540  0.83830  Biso   1.000  C
  C796     1.0000 0.94740  0.77460  0.83830  Biso   1.000  C
  C797     1.0000 0.55260  0.27460  0.66170  Biso   1.000  C
  C798     1.0000 0.94740  0.72540  0.66170  Biso   1.000  C
  C799     1.0000 0.05260  0.72540  0.83830  Biso   1.000  C
  C800     1.0000 0.44740  0.27460  0.83830  Biso   1.000  C
  H561     1.0000 0.96920  0.24240  0.34840  Biso   1.000  H
  H562     1.0000 0.53080  0.75760  0.34840  Biso   1.000  H
  H563     1.0000 0.46920  0.75760  0.15160  Biso   1.000  H
  H564     1.0000 0.03080  0.24240  0.15160  Biso   1.000  H
  H565     1.0000 0.46920  0.74240  0.34840  Biso   1.000  H
  H566     1.0000 0.03080  0.25760  0.34840  Biso   1.000  H
  H567     1.0000 0.96920  0.25760  0.15160  Biso   1.000  H
  H568     1.0000 0.53080  0.74240  0.15160  Biso   1.000  H
  H569     1.0000 0.03080  0.75760  0.65160  Biso   1.000  H
  H570     1.0000 0.46920  0.24240  0.65160  Biso   1.000  H
  H571     1.0000 0.53080  0.24240  0.84840  Biso   1.000  H
  H572     1.0000 0.96920  0.75760  0.84840  Biso   1.000  H
  H573     1.0000 0.53080  0.25760  0.65160  Biso   1.000  H
  H574     1.0000 0.96920  0.74240  0.65160  Biso   1.000  H
  H575     1.0000 0.03080  0.74240  0.84840  Biso   1.000  H
  H576     1.0000 0.46920  0.25760  0.84840  Biso   1.000  H
  C801     1.0000 0.04290  0.19360  0.35010  Biso   1.000  C
  C802     1.0000 0.45710  0.80640  0.35010  Biso   1.000  C
  C803     1.0000 0.54290  0.80640  0.14990  Biso   1.000  C
  C804     1.0000 0.95710  0.19360  0.14990  Biso   1.000  C
  C805     1.0000 0.54290  0.69360  0.35010  Biso   1.000  C
  C806     1.0000 0.95710  0.30640  0.35010  Biso   1.000  C
  C807     1.0000 0.04290  0.30640  0.14990  Biso   1.000  C
  C808     1.0000 0.45710  0.69360  0.14990  Biso   1.000  C
  C809     1.0000 0.95710  0.80640  0.64990  Biso   1.000  C
  C810     1.0000 0.54290  0.19360  0.64990  Biso   1.000  C
  C811     1.0000 0.45710  0.19360  0.85010  Biso   1.000  C
  C812     1.0000 0.04290  0.80640  0.85010  Biso   1.000  C
  C813     1.0000 0.45710  0.30640  0.64990  Biso   1.000  C
  C814     1.0000 0.04290  0.69360  0.64990  Biso   1.000  C
  C815     1.0000 0.95710  0.69360  0.85010  Biso   1.000  C
  C816     1.0000 0.54290  0.30640  0.85010  Biso   1.000  C
  H577     1.0000 0.04140  0.21710  0.33630  Biso   1.000  H
  H578     1.0000 0.45860  0.78290  0.33630  Biso   1.000  H
  H579     1.0000 0.54140  0.78290  0.16370  Biso   1.000  H
  H580     1.0000 0.95860  0.21710  0.16370  Biso   1.000  H
  H581     1.0000 0.54140  0.71710  0.33630  Biso   1.000  H
  H582     1.0000 0.95860  0.28290  0.33630  Biso   1.000  H
  H583     1.0000 0.04140  0.28290  0.16370  Biso   1.000  H
  H584     1.0000 0.45860  0.71710  0.16370  Biso   1.000  H
  H585     1.0000 0.95860  0.78290  0.66370  Biso   1.000  H
  H586     1.0000 0.54140  0.21710  0.66370  Biso   1.000  H
  H587     1.0000 0.45860  0.21710  0.83630  Biso   1.000  H
  H588     1.0000 0.04140  0.78290  0.83630  Biso   1.000  H
  H589     1.0000 0.45860  0.28290  0.66370  Biso   1.000  H
  H590     1.0000 0.04140  0.71710  0.66370  Biso   1.000  H
  H591     1.0000 0.95860  0.71710  0.83630  Biso   1.000  H
  H592     1.0000 0.54140  0.28290  0.83630  Biso   1.000  H
  C817     1.0000 0.08330  0.18200  0.36720  Biso   1.000  C
  C818     1.0000 0.41670  0.81800  0.36720  Biso   1.000  C
  C819     1.0000 0.58330  0.81800  0.13280  Biso   1.000  C
  C820     1.0000 0.91670  0.18200  0.13280  Biso   1.000  C
  C821     1.0000 0.58330  0.68200  0.36720  Biso   1.000  C
  C822     1.0000 0.91670  0.31800  0.36720  Biso   1.000  C
  C823     1.0000 0.08330  0.31800  0.13280  Biso   1.000  C
  C824     1.0000 0.41670  0.68200  0.13280  Biso   1.000  C
  C825     1.0000 0.91670  0.81800  0.63280  Biso   1.000  C
  C826     1.0000 0.58330  0.18200  0.63280  Biso   1.000  C
  C827     1.0000 0.41670  0.18200  0.86720  Biso   1.000  C
  C828     1.0000 0.08330  0.81800  0.86720  Biso   1.000  C
  C829     1.0000 0.41670  0.31800  0.63280  Biso   1.000  C
  C830     1.0000 0.08330  0.68200  0.63280  Biso   1.000  C
  C831     1.0000 0.91670  0.68200  0.86720  Biso   1.000  C
  C832     1.0000 0.58330  0.31800  0.86720  Biso   1.000  C
  H593     1.0000 0.10720  0.19860  0.37130  Biso   1.000  H
  H594     1.0000 0.39280  0.80140  0.37130  Biso   1.000  H
  H595     1.0000 0.60720  0.80140  0.12870  Biso   1.000  H
  H596     1.0000 0.89280  0.19860  0.12870  Biso   1.000  H
  H597     1.0000 0.60720  0.69860  0.37130  Biso   1.000  H
  H598     1.0000 0.89280  0.30140  0.37130  Biso   1.000  H
  H599     1.0000 0.10720  0.30140  0.12870  Biso   1.000  H
  H600     1.0000 0.39280  0.69860  0.12870  Biso   1.000  H
  H601     1.0000 0.89280  0.80140  0.62870  Biso   1.000  H
  H602     1.0000 0.60720  0.19860  0.62870  Biso   1.000  H
  H603     1.0000 0.39280  0.19860  0.87130  Biso   1.000  H
  H604     1.0000 0.10720  0.80140  0.87130  Biso   1.000  H
  H605     1.0000 0.39280  0.30140  0.62870  Biso   1.000  H
  H606     1.0000 0.10720  0.69860  0.62870  Biso   1.000  H
  H607     1.0000 0.89280  0.69860  0.87130  Biso   1.000  H
  H608     1.0000 0.60720  0.30140  0.87130  Biso   1.000  H
  C833     1.0000 0.00780  0.13870  0.36870  Biso   1.000  C
  C834     1.0000 0.49220  0.86130  0.36870  Biso   1.000  C
  C835     1.0000 0.50780  0.86130  0.13130  Biso   1.000  C
  C836     1.0000 0.99220  0.13870  0.13130  Biso   1.000  C
  C837     1.0000 0.50780  0.63870  0.36870  Biso   1.000  C
  C838     1.0000 0.99220  0.36130  0.36870  Biso   1.000  C
  C839     1.0000 0.00780  0.36130  0.13130  Biso   1.000  C
  C840     1.0000 0.49220  0.63870  0.13130  Biso   1.000  C
  C841     1.0000 0.99220  0.86130  0.63130  Biso   1.000  C
  C842     1.0000 0.50780  0.13870  0.63130  Biso   1.000  C
  C843     1.0000 0.49220  0.13870  0.86870  Biso   1.000  C
  C844     1.0000 0.00780  0.86130  0.86870  Biso   1.000  C
  C845     1.0000 0.49220  0.36130  0.63130  Biso   1.000  C
  C846     1.0000 0.00780  0.63870  0.63130  Biso   1.000  C
  C847     1.0000 0.99220  0.63870  0.86870  Biso   1.000  C
  C848     1.0000 0.50780  0.36130  0.86870  Biso   1.000  C
  H609     1.0000 0.98180  0.12430  0.37190  Biso   1.000  H
  H610     1.0000 0.51820  0.87570  0.37190  Biso   1.000  H
  H611     1.0000 0.48180  0.87570  0.12810  Biso   1.000  H
  H612     1.0000 0.01820  0.12430  0.12810  Biso   1.000  H
  H613     1.0000 0.48180  0.62430  0.37190  Biso   1.000  H
  H614     1.0000 0.01820  0.37570  0.37190  Biso   1.000  H
  H615     1.0000 0.98180  0.37570  0.12810  Biso   1.000  H
  H616     1.0000 0.51820  0.62430  0.12810  Biso   1.000  H
  H617     1.0000 0.01820  0.87570  0.62810  Biso   1.000  H
  H618     1.0000 0.48180  0.12430  0.62810  Biso   1.000  H
  H619     1.0000 0.51820  0.12430  0.87190  Biso   1.000  H
  H620     1.0000 0.98180  0.87570  0.87190  Biso   1.000  H
  H621     1.0000 0.51820  0.37570  0.62810  Biso   1.000  H
  H622     1.0000 0.98180  0.62430  0.62810  Biso   1.000  H
  H623     1.0000 0.01820  0.62430  0.87190  Biso   1.000  H
  H624     1.0000 0.48180  0.37570  0.87190  Biso   1.000  H
  C849     1.0000 0.05080  0.12370  0.38190  Biso   1.000  C
  C850     1.0000 0.44920  0.87630  0.38190  Biso   1.000  C
  C851     1.0000 0.55080  0.87630  0.11810  Biso   1.000  C
  C852     1.0000 0.94920  0.12370  0.11810  Biso   1.000  C
  C853     1.0000 0.55080  0.62370  0.38190  Biso   1.000  C
  C854     1.0000 0.94920  0.37630  0.38190  Biso   1.000  C
  C855     1.0000 0.05080  0.37630  0.11810  Biso   1.000  C
  C856     1.0000 0.44920  0.62370  0.11810  Biso   1.000  C
  C857     1.0000 0.94920  0.87630  0.61810  Biso   1.000  C
  C858     1.0000 0.55080  0.12370  0.61810  Biso   1.000  C
  C859     1.0000 0.44920  0.12370  0.88190  Biso   1.000  C
  C860     1.0000 0.05080  0.87630  0.88190  Biso   1.000  C
  C861     1.0000 0.44920  0.37630  0.61810  Biso   1.000  C
  C862     1.0000 0.05080  0.62370  0.61810  Biso   1.000  C
  C863     1.0000 0.94920  0.62370  0.88190  Biso   1.000  C
  C864     1.0000 0.55080  0.37630  0.88190  Biso   1.000  C
  H625     1.0000 0.05290  0.09940  0.39300  Biso   1.000  H
  H626     1.0000 0.44710  0.90060  0.39300  Biso   1.000  H
  H627     1.0000 0.55290  0.90060  0.10700  Biso   1.000  H
  H628     1.0000 0.94710  0.09940  0.10700  Biso   1.000  H
  H629     1.0000 0.55290  0.59940  0.39300  Biso   1.000  H
  H630     1.0000 0.94710  0.40060  0.39300  Biso   1.000  H
  H631     1.0000 0.05290  0.40060  0.10700  Biso   1.000  H
  H632     1.0000 0.44710  0.59940  0.10700  Biso   1.000  H
  H633     1.0000 0.94710  0.90060  0.60700  Biso   1.000  H
  H634     1.0000 0.55290  0.09940  0.60700  Biso   1.000  H
  H635     1.0000 0.44710  0.09940  0.89300  Biso   1.000  H
  H636     1.0000 0.05290  0.90060  0.89300  Biso   1.000  H
  H637     1.0000 0.44710  0.40060  0.60700  Biso   1.000  H
  H638     1.0000 0.05290  0.59940  0.60700  Biso   1.000  H
  H639     1.0000 0.94710  0.59940  0.89300  Biso   1.000  H
  H640     1.0000 0.55290  0.40060  0.89300  Biso   1.000  H
  C865     1.0000 0.28010  0.07300  0.35280  Biso   1.000  C
  C866     1.0000 0.21990  0.92700  0.35280  Biso   1.000  C
  C867     1.0000 0.78010  0.92700  0.14720  Biso   1.000  C
  C868     1.0000 0.71990  0.07300  0.14720  Biso   1.000  C
  C869     1.0000 0.78010  0.57300  0.35280  Biso   1.000  C
  C870     1.0000 0.71990  0.42700  0.35280  Biso   1.000  C
  C871     1.0000 0.28010  0.42700  0.14720  Biso   1.000  C
  C872     1.0000 0.21990  0.57300  0.14720  Biso   1.000  C
  C873     1.0000 0.71990  0.92700  0.64720  Biso   1.000  C
  C874     1.0000 0.78010  0.07300  0.64720  Biso   1.000  C
  C875     1.0000 0.21990  0.07300  0.85280  Biso   1.000  C
  C876     1.0000 0.28010  0.92700  0.85280  Biso   1.000  C
  C877     1.0000 0.21990  0.42700  0.64720  Biso   1.000  C
  C878     1.0000 0.28010  0.57300  0.64720  Biso   1.000  C
  C879     1.0000 0.71990  0.57300  0.85280  Biso   1.000  C
  C880     1.0000 0.78010  0.42700  0.85280  Biso   1.000  C
  H641     1.0000 0.30280  0.07450  0.32910  Biso   1.000  H
  H642     1.0000 0.19720  0.92550  0.32910  Biso   1.000  H
  H643     1.0000 0.80280  0.92550  0.17090  Biso   1.000  H
  H644     1.0000 0.69720  0.07450  0.17090  Biso   1.000  H
  H645     1.0000 0.80280  0.57450  0.32910  Biso   1.000  H
  H646     1.0000 0.69720  0.42550  0.32910  Biso   1.000  H
  H647     1.0000 0.30280  0.42550  0.17090  Biso   1.000  H
  H648     1.0000 0.19720  0.57450  0.17090  Biso   1.000  H
  H649     1.0000 0.69720  0.92550  0.67090  Biso   1.000  H
  H650     1.0000 0.80280  0.07450  0.67090  Biso   1.000  H
  H651     1.0000 0.19720  0.07450  0.82910  Biso   1.000  H
  H652     1.0000 0.30280  0.92550  0.82910  Biso   1.000  H
  H653     1.0000 0.19720  0.42550  0.67090  Biso   1.000  H
  H654     1.0000 0.30280  0.57450  0.67090  Biso   1.000  H
  H655     1.0000 0.69720  0.57450  0.82910  Biso   1.000  H
  H656     1.0000 0.80280  0.42550  0.82910  Biso   1.000  H
  C881     1.0000 0.23230  0.08470  0.34160  Biso   1.000  C
  C882     1.0000 0.26770  0.91530  0.34160  Biso   1.000  C
  C883     1.0000 0.73230  0.91530  0.15840  Biso   1.000  C
  C884     1.0000 0.76770  0.08470  0.15840  Biso   1.000  C
  C885     1.0000 0.73230  0.58470  0.34160  Biso   1.000  C
  C886     1.0000 0.76770  0.41530  0.34160  Biso   1.000  C
  C887     1.0000 0.23230  0.41530  0.15840  Biso   1.000  C
  C888     1.0000 0.26770  0.58470  0.15840  Biso   1.000  C
  C889     1.0000 0.76770  0.91530  0.65840  Biso   1.000  C
  C890     1.0000 0.73230  0.08470  0.65840  Biso   1.000  C
  C891     1.0000 0.26770  0.08470  0.84160  Biso   1.000  C
  C892     1.0000 0.23230  0.91530  0.84160  Biso   1.000  C
  C893     1.0000 0.26770  0.41530  0.65840  Biso   1.000  C
  C894     1.0000 0.23230  0.58470  0.65840  Biso   1.000  C
  C895     1.0000 0.76770  0.58470  0.84160  Biso   1.000  C
  C896     1.0000 0.73230  0.41530  0.84160  Biso   1.000  C
  H657     1.0000 0.22450  0.08990  0.30910  Biso   1.000  H
  H658     1.0000 0.27550  0.91010  0.30910  Biso   1.000  H
  H659     1.0000 0.72450  0.91010  0.19090  Biso   1.000  H
  H660     1.0000 0.77550  0.08990  0.19090  Biso   1.000  H
  H661     1.0000 0.72450  0.58990  0.30910  Biso   1.000  H
  H662     1.0000 0.77550  0.41010  0.30910  Biso   1.000  H
  H663     1.0000 0.22450  0.41010  0.19090  Biso   1.000  H
  H664     1.0000 0.27550  0.58990  0.19090  Biso   1.000  H
  H665     1.0000 0.77550  0.91010  0.69090  Biso   1.000  H
  H666     1.0000 0.72450  0.08990  0.69090  Biso   1.000  H
  H667     1.0000 0.27550  0.08990  0.80910  Biso   1.000  H
  H668     1.0000 0.22450  0.91010  0.80910  Biso   1.000  H
  H669     1.0000 0.27550  0.41010  0.69090  Biso   1.000  H
  H670     1.0000 0.22450  0.58990  0.69090  Biso   1.000  H
  H671     1.0000 0.77550  0.58990  0.80910  Biso   1.000  H
  H672     1.0000 0.72450  0.41010  0.80910  Biso   1.000  H
  C897     1.0000 0.25340  0.05910  0.43630  Biso   1.000  C
  C898     1.0000 0.24660  0.94090  0.43630  Biso   1.000  C
  C899     1.0000 0.75340  0.94090  0.06370  Biso   1.000  C
  C900     1.0000 0.74660  0.05910  0.06370  Biso   1.000  C
  C901     1.0000 0.75340  0.55910  0.43630  Biso   1.000  C
  C902     1.0000 0.74660  0.44090  0.43630  Biso   1.000  C
  C903     1.0000 0.25340  0.44090  0.06370  Biso   1.000  C
  C904     1.0000 0.24660  0.55910  0.06370  Biso   1.000  C
  C905     1.0000 0.74660  0.94090  0.56370  Biso   1.000  C
  C906     1.0000 0.75340  0.05910  0.56370  Biso   1.000  C
  C907     1.0000 0.24660  0.05910  0.93630  Biso   1.000  C
  C908     1.0000 0.25340  0.94090  0.93630  Biso   1.000  C
  C909     1.0000 0.24660  0.44090  0.56370  Biso   1.000  C
  C910     1.0000 0.25340  0.55910  0.56370  Biso   1.000  C
  C911     1.0000 0.74660  0.55910  0.93630  Biso   1.000  C
  C912     1.0000 0.75340  0.44090  0.93630  Biso   1.000  C
  H673     1.0000 0.25940  0.04870  0.46700  Biso   1.000  H
  H674     1.0000 0.24060  0.95130  0.46700  Biso   1.000  H
  H675     1.0000 0.75940  0.95130  0.03300  Biso   1.000  H
  H676     1.0000 0.74060  0.04870  0.03300  Biso   1.000  H
  H677     1.0000 0.75940  0.54870  0.46700  Biso   1.000  H
  H678     1.0000 0.74060  0.45130  0.46700  Biso   1.000  H
  H679     1.0000 0.25940  0.45130  0.03300  Biso   1.000  H
  H680     1.0000 0.24060  0.54870  0.03300  Biso   1.000  H
  H681     1.0000 0.74060  0.95130  0.53300  Biso   1.000  H
  H682     1.0000 0.75940  0.04870  0.53300  Biso   1.000  H
  H683     1.0000 0.24060  0.04870  0.96700  Biso   1.000  H
  H684     1.0000 0.25940  0.95130  0.96700  Biso   1.000  H
  H685     1.0000 0.24060  0.45130  0.53300  Biso   1.000  H
  H686     1.0000 0.25940  0.54870  0.53300  Biso   1.000  H
  H687     1.0000 0.74060  0.54870  0.96700  Biso   1.000  H
  H688     1.0000 0.75940  0.45130  0.96700  Biso   1.000  H
  C913     1.0000 0.21020  0.07450  0.42470  Biso   1.000  C
  C914     1.0000 0.28980  0.92550  0.42470  Biso   1.000  C
  C915     1.0000 0.71020  0.92550  0.07530  Biso   1.000  C
  C916     1.0000 0.78980  0.07450  0.07530  Biso   1.000  C
  C917     1.0000 0.71020  0.57450  0.42470  Biso   1.000  C
  C918     1.0000 0.78980  0.42550  0.42470  Biso   1.000  C
  C919     1.0000 0.21020  0.42550  0.07530  Biso   1.000  C
  C920     1.0000 0.28980  0.57450  0.07530  Biso   1.000  C
  C921     1.0000 0.78980  0.92550  0.57530  Biso   1.000  C
  C922     1.0000 0.71020  0.07450  0.57530  Biso   1.000  C
  C923     1.0000 0.28980  0.07450  0.92470  Biso   1.000  C
  C924     1.0000 0.21020  0.92550  0.92470  Biso   1.000  C
  C925     1.0000 0.28980  0.42550  0.57530  Biso   1.000  C
  C926     1.0000 0.21020  0.57450  0.57530  Biso   1.000  C
  C927     1.0000 0.78980  0.57450  0.92470  Biso   1.000  C
  C928     1.0000 0.71020  0.42550  0.92470  Biso   1.000  C
  H689     1.0000 0.18770  0.07590  0.44870  Biso   1.000  H
  H690     1.0000 0.31230  0.92410  0.44870  Biso   1.000  H
  H691     1.0000 0.68770  0.92410  0.05130  Biso   1.000  H
  H692     1.0000 0.81230  0.07590  0.05130  Biso   1.000  H
  H693     1.0000 0.68770  0.57590  0.44870  Biso   1.000  H
  H694     1.0000 0.81230  0.42410  0.44870  Biso   1.000  H
  H695     1.0000 0.18770  0.42410  0.05130  Biso   1.000  H
  H696     1.0000 0.31230  0.57590  0.05130  Biso   1.000  H
  H697     1.0000 0.81230  0.92410  0.55130  Biso   1.000  H
  H698     1.0000 0.68770  0.07590  0.55130  Biso   1.000  H
  H699     1.0000 0.31230  0.07590  0.94870  Biso   1.000  H
  H700     1.0000 0.18770  0.92410  0.94870  Biso   1.000  H
  H701     1.0000 0.31230  0.42410  0.55130  Biso   1.000  H
  H702     1.0000 0.18770  0.57590  0.55130  Biso   1.000  H
  H703     1.0000 0.81230  0.57590  0.94870  Biso   1.000  H
  H704     1.0000 0.68770  0.42410  0.94870  Biso   1.000  H
  C929     1.0000 0.99770  0.02770  0.14750  Biso   1.000  C
  C930     1.0000 0.50230  0.97230  0.14750  Biso   1.000  C
  C931     1.0000 0.49770  0.97230  0.35250  Biso   1.000  C
  C932     1.0000 0.00230  0.02770  0.35250  Biso   1.000  C
  C933     1.0000 0.49770  0.52770  0.14750  Biso   1.000  C
  C934     1.0000 0.00230  0.47230  0.14750  Biso   1.000  C
  C935     1.0000 0.99770  0.47230  0.35250  Biso   1.000  C
  C936     1.0000 0.50230  0.52770  0.35250  Biso   1.000  C
  C937     1.0000 0.00230  0.97230  0.85250  Biso   1.000  C
  C938     1.0000 0.49770  0.02770  0.85250  Biso   1.000  C
  C939     1.0000 0.50230  0.02770  0.64750  Biso   1.000  C
  C940     1.0000 0.99770  0.97230  0.64750  Biso   1.000  C
  C941     1.0000 0.50230  0.47230  0.85250  Biso   1.000  C
  C942     1.0000 0.99770  0.52770  0.85250  Biso   1.000  C
  C943     1.0000 0.00230  0.52770  0.64750  Biso   1.000  C
  C944     1.0000 0.49770  0.47230  0.64750  Biso   1.000  C
  H705     1.0000 0.96630  0.02490  0.14770  Biso   1.000  H
  H706     1.0000 0.53370  0.97510  0.14770  Biso   1.000  H
  H707     1.0000 0.46630  0.97510  0.35230  Biso   1.000  H
  H708     1.0000 0.03370  0.02490  0.35230  Biso   1.000  H
  H709     1.0000 0.46630  0.52490  0.14770  Biso   1.000  H
  H710     1.0000 0.03370  0.47510  0.14770  Biso   1.000  H
  H711     1.0000 0.96630  0.47510  0.35230  Biso   1.000  H
  H712     1.0000 0.53370  0.52490  0.35230  Biso   1.000  H
  H713     1.0000 0.03370  0.97510  0.85230  Biso   1.000  H
  H714     1.0000 0.46630  0.02490  0.85230  Biso   1.000  H
  H715     1.0000 0.53370  0.02490  0.64770  Biso   1.000  H
  H716     1.0000 0.96630  0.97510  0.64770  Biso   1.000  H
  H717     1.0000 0.53370  0.47510  0.85230  Biso   1.000  H
  H718     1.0000 0.96630  0.52490  0.85230  Biso   1.000  H
  H719     1.0000 0.03370  0.52490  0.64770  Biso   1.000  H
  H720     1.0000 0.46630  0.47510  0.64770  Biso   1.000  H
  C945     1.0000 0.01730  0.04150  0.19010  Biso   1.000  C
  C946     1.0000 0.48270  0.95850  0.19010  Biso   1.000  C
  C947     1.0000 0.51730  0.95850  0.30990  Biso   1.000  C
  C948     1.0000 0.98270  0.04150  0.30990  Biso   1.000  C
  C949     1.0000 0.51730  0.54150  0.19010  Biso   1.000  C
  C950     1.0000 0.98270  0.45850  0.19010  Biso   1.000  C
  C951     1.0000 0.01730  0.45850  0.30990  Biso   1.000  C
  C952     1.0000 0.48270  0.54150  0.30990  Biso   1.000  C
  C953     1.0000 0.98270  0.95850  0.80990  Biso   1.000  C
  C954     1.0000 0.51730  0.04150  0.80990  Biso   1.000  C
  C955     1.0000 0.48270  0.04150  0.69010  Biso   1.000  C
  C956     1.0000 0.01730  0.95850  0.69010  Biso   1.000  C
  C957     1.0000 0.48270  0.45850  0.80990  Biso   1.000  C
  C958     1.0000 0.01730  0.54150  0.80990  Biso   1.000  C
  C959     1.0000 0.98270  0.54150  0.69010  Biso   1.000  C
  C960     1.0000 0.51730  0.45850  0.69010  Biso   1.000  C
  H721     1.0000 0.00000  0.04840  0.21720  Biso   1.000  H
  H722     1.0000 0.50000  0.95160  0.21720  Biso   1.000  H
  H723     1.0000 0.50000  0.95160  0.28280  Biso   1.000  H
  H724     1.0000 0.00000  0.04840  0.28280  Biso   1.000  H
  H725     1.0000 0.50000  0.54840  0.21720  Biso   1.000  H
  H726     1.0000 0.00000  0.45160  0.21720  Biso   1.000  H
  H727     1.0000 0.00000  0.45160  0.28280  Biso   1.000  H
  H728     1.0000 0.50000  0.54840  0.28280  Biso   1.000  H
  H729     1.0000 0.00000  0.95160  0.78280  Biso   1.000  H
  H730     1.0000 0.50000  0.04840  0.78280  Biso   1.000  H
  H731     1.0000 0.50000  0.04840  0.71720  Biso   1.000  H
  H732     1.0000 0.00000  0.95160  0.71720  Biso   1.000  H
  H733     1.0000 0.50000  0.45160  0.78280  Biso   1.000  H
  H734     1.0000 0.00000  0.54840  0.78280  Biso   1.000  H
  H735     1.0000 0.00000  0.54840  0.71720  Biso   1.000  H
  H736     1.0000 0.50000  0.45160  0.71720  Biso   1.000  H
  C961     1.0000 0.06320  0.01630  0.11280  Biso   1.000  C
  C962     1.0000 0.43680  0.98370  0.11280  Biso   1.000  C
  C963     1.0000 0.56320  0.98370  0.38720  Biso   1.000  C
  C964     1.0000 0.93680  0.01630  0.38720  Biso   1.000  C
  C965     1.0000 0.56320  0.51630  0.11280  Biso   1.000  C
  C966     1.0000 0.93680  0.48370  0.11280  Biso   1.000  C
  C967     1.0000 0.06320  0.48370  0.38720  Biso   1.000  C
  C968     1.0000 0.43680  0.51630  0.38720  Biso   1.000  C
  C969     1.0000 0.93680  0.98370  0.88720  Biso   1.000  C
  C970     1.0000 0.56320  0.01630  0.88720  Biso   1.000  C
  C971     1.0000 0.43680  0.01630  0.61280  Biso   1.000  C
  C972     1.0000 0.06320  0.98370  0.61280  Biso   1.000  C
  C973     1.0000 0.43680  0.48370  0.88720  Biso   1.000  C
  C974     1.0000 0.06320  0.51630  0.88720  Biso   1.000  C
  C975     1.0000 0.93680  0.51630  0.61280  Biso   1.000  C
  C976     1.0000 0.56320  0.48370  0.61280  Biso   1.000  C
  H737     1.0000 0.08070  0.00840  0.08630  Biso   1.000  H
  H738     1.0000 0.41930  0.99160  0.08630  Biso   1.000  H
  H739     1.0000 0.58070  0.99160  0.41370  Biso   1.000  H
  H740     1.0000 0.91930  0.00840  0.41370  Biso   1.000  H
  H741     1.0000 0.58070  0.50840  0.08630  Biso   1.000  H
  H742     1.0000 0.91930  0.49160  0.08630  Biso   1.000  H
  H743     1.0000 0.08070  0.49160  0.41370  Biso   1.000  H
  H744     1.0000 0.41930  0.50840  0.41370  Biso   1.000  H
  H745     1.0000 0.91930  0.99160  0.91370  Biso   1.000  H
  H746     1.0000 0.58070  0.00840  0.91370  Biso   1.000  H
  H747     1.0000 0.41930  0.00840  0.58630  Biso   1.000  H
  H748     1.0000 0.08070  0.99160  0.58630  Biso   1.000  H
  H749     1.0000 0.41930  0.49160  0.91370  Biso   1.000  H
  H750     1.0000 0.08070  0.50840  0.91370  Biso   1.000  H
  H751     1.0000 0.91930  0.50840  0.58630  Biso   1.000  H
  H752     1.0000 0.58070  0.49160  0.58630  Biso   1.000  H
  C977     1.0000 0.08570  0.02550  0.15640  Biso   1.000  C
  C978     1.0000 0.41430  0.97450  0.15640  Biso   1.000  C
  C979     1.0000 0.58570  0.97450  0.34360  Biso   1.000  C
  C980     1.0000 0.91430  0.02550  0.34360  Biso   1.000  C
  C981     1.0000 0.58570  0.52550  0.15640  Biso   1.000  C
  C982     1.0000 0.91430  0.47450  0.15640  Biso   1.000  C
  C983     1.0000 0.08570  0.47450  0.34360  Biso   1.000  C
  C984     1.0000 0.41430  0.52550  0.34360  Biso   1.000  C
  C985     1.0000 0.91430  0.97450  0.84360  Biso   1.000  C
  C986     1.0000 0.58570  0.02550  0.84360  Biso   1.000  C
  C987     1.0000 0.41430  0.02550  0.65640  Biso   1.000  C
  C988     1.0000 0.08570  0.97450  0.65640  Biso   1.000  C
  C989     1.0000 0.41430  0.47450  0.84360  Biso   1.000  C
  C990     1.0000 0.08570  0.52550  0.84360  Biso   1.000  C
  C991     1.0000 0.91430  0.52550  0.65640  Biso   1.000  C
  C992     1.0000 0.58570  0.47450  0.65640  Biso   1.000  C
  H753     1.0000 0.11560  0.01800  0.16130  Biso   1.000  H
  H754     1.0000 0.38440  0.98200  0.16130  Biso   1.000  H
  H755     1.0000 0.61560  0.98200  0.33870  Biso   1.000  H
  H756     1.0000 0.88440  0.01800  0.33870  Biso   1.000  H
  H757     1.0000 0.61560  0.51800  0.16130  Biso   1.000  H
  H758     1.0000 0.88440  0.48200  0.16130  Biso   1.000  H
  H759     1.0000 0.11560  0.48200  0.33870  Biso   1.000  H
  H760     1.0000 0.38440  0.51800  0.33870  Biso   1.000  H
  H761     1.0000 0.88440  0.98200  0.83870  Biso   1.000  H
  H762     1.0000 0.61560  0.01800  0.83870  Biso   1.000  H
  H763     1.0000 0.38440  0.01800  0.66130  Biso   1.000  H
  H764     1.0000 0.11560  0.98200  0.66130  Biso   1.000  H
  H765     1.0000 0.38440  0.48200  0.83870  Biso   1.000  H
  H766     1.0000 0.11560  0.51800  0.83870  Biso   1.000  H
  H767     1.0000 0.88440  0.51800  0.66130  Biso   1.000  H
  H768     1.0000 0.61560  0.48200  0.66130  Biso   1.000  H
  C993     1.0000 0.07160  0.05170  0.28390  Biso   1.000  C
  C994     1.0000 0.42840  0.94830  0.28390  Biso   1.000  C
  C995     1.0000 0.57160  0.94830  0.21610  Biso   1.000  C
  C996     1.0000 0.92840  0.05170  0.21610  Biso   1.000  C
  C997     1.0000 0.57160  0.55170  0.28390  Biso   1.000  C
  C998     1.0000 0.92840  0.44830  0.28390  Biso   1.000  C
  C999     1.0000 0.07160  0.44830  0.21610  Biso   1.000  C
  C1000    1.0000 0.42840  0.55170  0.21610  Biso   1.000  C
  C1001    1.0000 0.92840  0.94830  0.71610  Biso   1.000  C
  C1002    1.0000 0.57160  0.05170  0.71610  Biso   1.000  C
  C1003    1.0000 0.42840  0.05170  0.78390  Biso   1.000  C
  C1004    1.0000 0.07160  0.94830  0.78390  Biso   1.000  C
  C1005    1.0000 0.42840  0.44830  0.71610  Biso   1.000  C
  C1006    1.0000 0.07160  0.55170  0.71610  Biso   1.000  C
  C1007    1.0000 0.92840  0.55170  0.78390  Biso   1.000  C
  C1008    1.0000 0.57160  0.44830  0.78390  Biso   1.000  C
  H769     1.0000 0.04610  0.03670  0.28760  Biso   1.000  H
  H770     1.0000 0.45390  0.96330  0.28760  Biso   1.000  H
  H771     1.0000 0.54610  0.96330  0.21240  Biso   1.000  H
  H772     1.0000 0.95390  0.03670  0.21240  Biso   1.000  H
  H773     1.0000 0.54610  0.53670  0.28760  Biso   1.000  H
  H774     1.0000 0.95390  0.46330  0.28760  Biso   1.000  H
  H775     1.0000 0.04610  0.46330  0.21240  Biso   1.000  H
  H776     1.0000 0.45390  0.53670  0.21240  Biso   1.000  H
  H777     1.0000 0.95390  0.96330  0.71240  Biso   1.000  H
  H778     1.0000 0.54610  0.03670  0.71240  Biso   1.000  H
  H779     1.0000 0.45390  0.03670  0.78760  Biso   1.000  H
  H780     1.0000 0.04610  0.96330  0.78760  Biso   1.000  H
  H781     1.0000 0.45390  0.46330  0.71240  Biso   1.000  H
  H782     1.0000 0.04610  0.53670  0.71240  Biso   1.000  H
  H783     1.0000 0.95390  0.53670  0.78760  Biso   1.000  H
  H784     1.0000 0.54610  0.46330  0.78760  Biso   1.000  H
  C1009    1.0000 0.09240  0.06640  0.32500  Biso   1.000  C
  C1010    1.0000 0.40760  0.93360  0.32500  Biso   1.000  C
  C1011    1.0000 0.59240  0.93360  0.17500  Biso   1.000  C
  C1012    1.0000 0.90760  0.06640  0.17500  Biso   1.000  C
  C1013    1.0000 0.59240  0.56640  0.32500  Biso   1.000  C
  C1014    1.0000 0.90760  0.43360  0.32500  Biso   1.000  C
  C1015    1.0000 0.09240  0.43360  0.17500  Biso   1.000  C
  C1016    1.0000 0.40760  0.56640  0.17500  Biso   1.000  C
  C1017    1.0000 0.90760  0.93360  0.67500  Biso   1.000  C
  C1018    1.0000 0.59240  0.06640  0.67500  Biso   1.000  C
  C1019    1.0000 0.40760  0.06640  0.82500  Biso   1.000  C
  C1020    1.0000 0.09240  0.93360  0.82500  Biso   1.000  C
  C1021    1.0000 0.40760  0.43360  0.67500  Biso   1.000  C
  C1022    1.0000 0.09240  0.56640  0.67500  Biso   1.000  C
  C1023    1.0000 0.90760  0.56640  0.82500  Biso   1.000  C
  C1024    1.0000 0.59240  0.43360  0.82500  Biso   1.000  C
  H785     1.0000 0.07990  0.06260  0.35610  Biso   1.000  H
  H786     1.0000 0.42010  0.93740  0.35610  Biso   1.000  H
  H787     1.0000 0.57990  0.93740  0.14390  Biso   1.000  H
  H788     1.0000 0.92010  0.06260  0.14390  Biso   1.000  H
  H789     1.0000 0.57990  0.56260  0.35610  Biso   1.000  H
  H790     1.0000 0.92010  0.43740  0.35610  Biso   1.000  H
  H791     1.0000 0.07990  0.43740  0.14390  Biso   1.000  H
  H792     1.0000 0.42010  0.56260  0.14390  Biso   1.000  H
  H793     1.0000 0.92010  0.93740  0.64390  Biso   1.000  H
  H794     1.0000 0.57990  0.06260  0.64390  Biso   1.000  H
  H795     1.0000 0.42010  0.06260  0.85610  Biso   1.000  H
  H796     1.0000 0.07990  0.93740  0.85610  Biso   1.000  H
  H797     1.0000 0.42010  0.43740  0.64390  Biso   1.000  H
  H798     1.0000 0.07990  0.56260  0.64390  Biso   1.000  H
  H799     1.0000 0.92010  0.56260  0.85610  Biso   1.000  H
  H800     1.0000 0.57990  0.43740  0.85610  Biso   1.000  H
  C1025    1.0000 0.13030  0.07680  0.23130  Biso   1.000  C
  C1026    1.0000 0.36970  0.92320  0.23130  Biso   1.000  C
  C1027    1.0000 0.63030  0.92320  0.26870  Biso   1.000  C
  C1028    1.0000 0.86970  0.07680  0.26870  Biso   1.000  C
  C1029    1.0000 0.63030  0.57680  0.23130  Biso   1.000  C
  C1030    1.0000 0.86970  0.42320  0.23130  Biso   1.000  C
  C1031    1.0000 0.13030  0.42320  0.26870  Biso   1.000  C
  C1032    1.0000 0.36970  0.57680  0.26870  Biso   1.000  C
  C1033    1.0000 0.86970  0.92320  0.76870  Biso   1.000  C
  C1034    1.0000 0.63030  0.07680  0.76870  Biso   1.000  C
  C1035    1.0000 0.36970  0.07680  0.73130  Biso   1.000  C
  C1036    1.0000 0.13030  0.92320  0.73130  Biso   1.000  C
  C1037    1.0000 0.36970  0.42320  0.76870  Biso   1.000  C
  C1038    1.0000 0.13030  0.57680  0.76870  Biso   1.000  C
  C1039    1.0000 0.86970  0.57680  0.73130  Biso   1.000  C
  C1040    1.0000 0.63030  0.42320  0.73130  Biso   1.000  C
  H801     1.0000 0.14290  0.08060  0.20030  Biso   1.000  H
  H802     1.0000 0.35710  0.91940  0.20030  Biso   1.000  H
  H803     1.0000 0.64290  0.91940  0.29970  Biso   1.000  H
  H804     1.0000 0.85710  0.08060  0.29970  Biso   1.000  H
  H805     1.0000 0.64290  0.58060  0.20030  Biso   1.000  H
  H806     1.0000 0.85710  0.41940  0.20030  Biso   1.000  H
  H807     1.0000 0.14290  0.41940  0.29970  Biso   1.000  H
  H808     1.0000 0.35710  0.58060  0.29970  Biso   1.000  H
  H809     1.0000 0.85710  0.91940  0.79970  Biso   1.000  H
  H810     1.0000 0.64290  0.08060  0.79970  Biso   1.000  H
  H811     1.0000 0.35710  0.08060  0.70030  Biso   1.000  H
  H812     1.0000 0.14290  0.91940  0.70030  Biso   1.000  H
  H813     1.0000 0.35710  0.41940  0.79970  Biso   1.000  H
  H814     1.0000 0.14290  0.58060  0.79970  Biso   1.000  H
  H815     1.0000 0.85710  0.58060  0.70030  Biso   1.000  H
  H816     1.0000 0.64290  0.41940  0.70030  Biso   1.000  H
  C1041    1.0000 0.15380  0.08910  0.27170  Biso   1.000  C
  C1042    1.0000 0.34620  0.91090  0.27170  Biso   1.000  C
  C1043    1.0000 0.65380  0.91090  0.22830  Biso   1.000  C
  C1044    1.0000 0.84620  0.08910  0.22830  Biso   1.000  C
  C1045    1.0000 0.65380  0.58910  0.27170  Biso   1.000  C
  C1046    1.0000 0.84620  0.41090  0.27170  Biso   1.000  C
  C1047    1.0000 0.15380  0.41090  0.22830  Biso   1.000  C
  C1048    1.0000 0.34620  0.58910  0.22830  Biso   1.000  C
  C1049    1.0000 0.84620  0.91090  0.72830  Biso   1.000  C
  C1050    1.0000 0.65380  0.08910  0.72830  Biso   1.000  C
  C1051    1.0000 0.34620  0.08910  0.77170  Biso   1.000  C
  C1052    1.0000 0.15380  0.91090  0.77170  Biso   1.000  C
  C1053    1.0000 0.34620  0.41090  0.72830  Biso   1.000  C
  C1054    1.0000 0.15380  0.58910  0.72830  Biso   1.000  C
  C1055    1.0000 0.84620  0.58910  0.77170  Biso   1.000  C
  C1056    1.0000 0.65380  0.41090  0.77170  Biso   1.000  C
  H817     1.0000 0.18300  0.09850  0.26800  Biso   1.000  H
  H818     1.0000 0.31700  0.90150  0.26800  Biso   1.000  H
  H819     1.0000 0.68300  0.90150  0.23200  Biso   1.000  H
  H820     1.0000 0.81700  0.09850  0.23200  Biso   1.000  H
  H821     1.0000 0.68300  0.59850  0.26800  Biso   1.000  H
  H822     1.0000 0.81700  0.40150  0.26800  Biso   1.000  H
  H823     1.0000 0.18300  0.40150  0.23200  Biso   1.000  H
  H824     1.0000 0.31700  0.59850  0.23200  Biso   1.000  H
  H825     1.0000 0.81700  0.90150  0.73200  Biso   1.000  H
  H826     1.0000 0.68300  0.09850  0.73200  Biso   1.000  H
  H827     1.0000 0.31700  0.09850  0.76800  Biso   1.000  H
  H828     1.0000 0.18300  0.90150  0.76800  Biso   1.000  H
  H829     1.0000 0.31700  0.40150  0.73200  Biso   1.000  H
  H830     1.0000 0.18300  0.59850  0.73200  Biso   1.000  H
  H831     1.0000 0.81700  0.59850  0.76800  Biso   1.000  H
  H832     1.0000 0.68300  0.40150  0.76800  Biso   1.000  H
  C1057    1.0000 0.26900  0.23320  0.60940  Biso   1.000  C
  C1058    1.0000 0.23100  0.76680  0.60940  Biso   1.000  C
  C1059    1.0000 0.76900  0.76680  0.89060  Biso   1.000  C
  C1060    1.0000 0.73100  0.23320  0.89060  Biso   1.000  C
  C1061    1.0000 0.76900  0.73320  0.60940  Biso   1.000  C
  C1062    1.0000 0.73100  0.26680  0.60940  Biso   1.000  C
  C1063    1.0000 0.26900  0.26680  0.89060  Biso   1.000  C
  C1064    1.0000 0.23100  0.73320  0.89060  Biso   1.000  C
  C1065    1.0000 0.73100  0.76680  0.39060  Biso   1.000  C
  C1066    1.0000 0.76900  0.23320  0.39060  Biso   1.000  C
  C1067    1.0000 0.23100  0.23320  0.10940  Biso   1.000  C
  C1068    1.0000 0.26900  0.76680  0.10940  Biso   1.000  C
  C1069    1.0000 0.23100  0.26680  0.39060  Biso   1.000  C
  C1070    1.0000 0.26900  0.73320  0.39060  Biso   1.000  C
  C1071    1.0000 0.73100  0.73320  0.10940  Biso   1.000  C
  C1072    1.0000 0.76900  0.26680  0.10940  Biso   1.000  C
  H833     1.0000 0.28340  0.25620  0.60980  Biso   1.000  H
  H834     1.0000 0.21660  0.74380  0.60980  Biso   1.000  H
  H835     1.0000 0.78340  0.74380  0.89020  Biso   1.000  H
  H836     1.0000 0.71660  0.25620  0.89020  Biso   1.000  H
  H837     1.0000 0.78340  0.75620  0.60980  Biso   1.000  H
  H838     1.0000 0.71660  0.24380  0.60980  Biso   1.000  H
  H839     1.0000 0.28340  0.24380  0.89020  Biso   1.000  H
  H840     1.0000 0.21660  0.75620  0.89020  Biso   1.000  H
  H841     1.0000 0.71660  0.74380  0.39020  Biso   1.000  H
  H842     1.0000 0.78340  0.25620  0.39020  Biso   1.000  H
  H843     1.0000 0.21660  0.25620  0.10980  Biso   1.000  H
  H844     1.0000 0.28340  0.74380  0.10980  Biso   1.000  H
  H845     1.0000 0.21660  0.24380  0.39020  Biso   1.000  H
  H846     1.0000 0.28340  0.75620  0.39020  Biso   1.000  H
  H847     1.0000 0.71660  0.75620  0.10980  Biso   1.000  H
  H848     1.0000 0.78340  0.24380  0.10980  Biso   1.000  H
  C1073    1.0000 0.24660  0.21970  0.56120  Biso   1.000  C
  C1074    1.0000 0.25340  0.78030  0.56120  Biso   1.000  C
  C1075    1.0000 0.74660  0.78030  0.93880  Biso   1.000  C
  C1076    1.0000 0.75340  0.21970  0.93880  Biso   1.000  C
  C1077    1.0000 0.74660  0.71970  0.56120  Biso   1.000  C
  C1078    1.0000 0.75340  0.28030  0.56120  Biso   1.000  C
  C1079    1.0000 0.24660  0.28030  0.93880  Biso   1.000  C
  C1080    1.0000 0.25340  0.71970  0.93880  Biso   1.000  C
  C1081    1.0000 0.75340  0.78030  0.43880  Biso   1.000  C
  C1082    1.0000 0.74660  0.21970  0.43880  Biso   1.000  C
  C1083    1.0000 0.25340  0.21970  0.06120  Biso   1.000  C
  C1084    1.0000 0.24660  0.78030  0.06120  Biso   1.000  C
  C1085    1.0000 0.25340  0.28030  0.43880  Biso   1.000  C
  C1086    1.0000 0.24660  0.71970  0.43880  Biso   1.000  C
  C1087    1.0000 0.75340  0.71970  0.06120  Biso   1.000  C
  C1088    1.0000 0.74660  0.28030  0.06120  Biso   1.000  C
  H849     1.0000 0.24980  0.23220  0.53150  Biso   1.000  H
  H850     1.0000 0.25020  0.76780  0.53150  Biso   1.000  H
  H851     1.0000 0.74980  0.76780  0.96850  Biso   1.000  H
  H852     1.0000 0.75020  0.23220  0.96850  Biso   1.000  H
  H853     1.0000 0.74980  0.73220  0.53150  Biso   1.000  H
  H854     1.0000 0.75020  0.26780  0.53150  Biso   1.000  H
  H855     1.0000 0.24980  0.26780  0.96850  Biso   1.000  H
  H856     1.0000 0.25020  0.73220  0.96850  Biso   1.000  H
  H857     1.0000 0.75020  0.76780  0.46850  Biso   1.000  H
  H858     1.0000 0.74980  0.23220  0.46850  Biso   1.000  H
  H859     1.0000 0.25020  0.23220  0.03150  Biso   1.000  H
  H860     1.0000 0.24980  0.76780  0.03150  Biso   1.000  H
  H861     1.0000 0.25020  0.26780  0.46850  Biso   1.000  H
  H862     1.0000 0.24980  0.73220  0.46850  Biso   1.000  H
  H863     1.0000 0.75020  0.73220  0.03150  Biso   1.000  H
  H864     1.0000 0.74980  0.26780  0.03150  Biso   1.000  H
  C1089    1.0000 0.21490  0.17190  0.61190  Biso   1.000  C
  C1090    1.0000 0.28510  0.82810  0.61190  Biso   1.000  C
  C1091    1.0000 0.71490  0.82810  0.88810  Biso   1.000  C
  C1092    1.0000 0.78510  0.17190  0.88810  Biso   1.000  C
  C1093    1.0000 0.71490  0.67190  0.61190  Biso   1.000  C
  C1094    1.0000 0.78510  0.32810  0.61190  Biso   1.000  C
  C1095    1.0000 0.21490  0.32810  0.88810  Biso   1.000  C
  C1096    1.0000 0.28510  0.67190  0.88810  Biso   1.000  C
  C1097    1.0000 0.78510  0.82810  0.38810  Biso   1.000  C
  C1098    1.0000 0.71490  0.17190  0.38810  Biso   1.000  C
  C1099    1.0000 0.28510  0.17190  0.11190  Biso   1.000  C
  C1100    1.0000 0.21490  0.82810  0.11190  Biso   1.000  C
  C1101    1.0000 0.28510  0.32810  0.38810  Biso   1.000  C
  C1102    1.0000 0.21490  0.67190  0.38810  Biso   1.000  C
  C1103    1.0000 0.78510  0.67190  0.11190  Biso   1.000  C
  C1104    1.0000 0.71490  0.32810  0.11190  Biso   1.000  C
  H865     1.0000 0.19510  0.15200  0.61550  Biso   1.000  H
  H866     1.0000 0.30490  0.84800  0.61550  Biso   1.000  H
  H867     1.0000 0.69510  0.84800  0.88450  Biso   1.000  H
  H868     1.0000 0.80490  0.15200  0.88450  Biso   1.000  H
  H869     1.0000 0.69510  0.65200  0.61550  Biso   1.000  H
  H870     1.0000 0.80490  0.34800  0.61550  Biso   1.000  H
  H871     1.0000 0.19510  0.34800  0.88450  Biso   1.000  H
  H872     1.0000 0.30490  0.65200  0.88450  Biso   1.000  H
  H873     1.0000 0.80490  0.84800  0.38450  Biso   1.000  H
  H874     1.0000 0.69510  0.15200  0.38450  Biso   1.000  H
  H875     1.0000 0.30490  0.15200  0.11550  Biso   1.000  H
  H876     1.0000 0.19510  0.84800  0.11550  Biso   1.000  H
  H877     1.0000 0.30490  0.34800  0.38450  Biso   1.000  H
  H878     1.0000 0.19510  0.65200  0.38450  Biso   1.000  H
  H879     1.0000 0.80490  0.65200  0.11550  Biso   1.000  H
  H880     1.0000 0.69510  0.34800  0.11550  Biso   1.000  H
  C1105    1.0000 0.23790  0.18620  0.65240  Biso   1.000  C
  C1106    1.0000 0.26210  0.81380  0.65240  Biso   1.000  C
  C1107    1.0000 0.73790  0.81380  0.84760  Biso   1.000  C
  C1108    1.0000 0.76210  0.18620  0.84760  Biso   1.000  C
  C1109    1.0000 0.73790  0.68620  0.65240  Biso   1.000  C
  C1110    1.0000 0.76210  0.31380  0.65240  Biso   1.000  C
  C1111    1.0000 0.23790  0.31380  0.84760  Biso   1.000  C
  C1112    1.0000 0.26210  0.68620  0.84760  Biso   1.000  C
  C1113    1.0000 0.76210  0.81380  0.34760  Biso   1.000  C
  C1114    1.0000 0.73790  0.18620  0.34760  Biso   1.000  C
  C1115    1.0000 0.26210  0.18620  0.15240  Biso   1.000  C
  C1116    1.0000 0.23790  0.81380  0.15240  Biso   1.000  C
  C1117    1.0000 0.26210  0.31380  0.34760  Biso   1.000  C
  C1118    1.0000 0.23790  0.68620  0.34760  Biso   1.000  C
  C1119    1.0000 0.76210  0.68620  0.15240  Biso   1.000  C
  C1120    1.0000 0.73790  0.31380  0.15240  Biso   1.000  C
  H881     1.0000 0.23240  0.17630  0.68350  Biso   1.000  H
  H882     1.0000 0.26760  0.82370  0.68350  Biso   1.000  H
  H883     1.0000 0.73240  0.82370  0.81650  Biso   1.000  H
  H884     1.0000 0.76760  0.17630  0.81650  Biso   1.000  H
  H885     1.0000 0.73240  0.67630  0.68350  Biso   1.000  H
  H886     1.0000 0.76760  0.32370  0.68350  Biso   1.000  H
  H887     1.0000 0.23240  0.32370  0.81650  Biso   1.000  H
  H888     1.0000 0.26760  0.67630  0.81650  Biso   1.000  H
  H889     1.0000 0.76760  0.82370  0.31650  Biso   1.000  H
  H890     1.0000 0.73240  0.17630  0.31650  Biso   1.000  H
  H891     1.0000 0.26760  0.17630  0.18350  Biso   1.000  H
  H892     1.0000 0.23240  0.82370  0.18350  Biso   1.000  H
  H893     1.0000 0.26760  0.32370  0.31650  Biso   1.000  H
  H894     1.0000 0.23240  0.67630  0.31650  Biso   1.000  H
  H895     1.0000 0.76760  0.67630  0.18350  Biso   1.000  H
  H896     1.0000 0.73240  0.32370  0.18350  Biso   1.000  H
  C1121    1.0000 0.18340  0.13710  0.51610  Biso   1.000  C
  C1122    1.0000 0.31660  0.86290  0.51610  Biso   1.000  C
  C1123    1.0000 0.68340  0.86290  0.98390  Biso   1.000  C
  C1124    1.0000 0.81660  0.13710  0.98390  Biso   1.000  C
  C1125    1.0000 0.68340  0.63710  0.51610  Biso   1.000  C
  C1126    1.0000 0.81660  0.36290  0.51610  Biso   1.000  C
  C1127    1.0000 0.18340  0.36290  0.98390  Biso   1.000  C
  C1128    1.0000 0.31660  0.63710  0.98390  Biso   1.000  C
  C1129    1.0000 0.81660  0.86290  0.48390  Biso   1.000  C
  C1130    1.0000 0.68340  0.13710  0.48390  Biso   1.000  C
  C1131    1.0000 0.31660  0.13710  0.01610  Biso   1.000  C
  C1132    1.0000 0.18340  0.86290  0.01610  Biso   1.000  C
  C1133    1.0000 0.31660  0.36290  0.48390  Biso   1.000  C
  C1134    1.0000 0.18340  0.63710  0.48390  Biso   1.000  C
  C1135    1.0000 0.81660  0.63710  0.01610  Biso   1.000  C
  C1136    1.0000 0.68340  0.36290  0.01610  Biso   1.000  C
  H897     1.0000 0.18460  0.12240  0.54420  Biso   1.000  H
  H898     1.0000 0.31540  0.87760  0.54420  Biso   1.000  H
  H899     1.0000 0.68460  0.87760  0.95580  Biso   1.000  H
  H900     1.0000 0.81540  0.12240  0.95580  Biso   1.000  H
  H901     1.0000 0.68460  0.62240  0.54420  Biso   1.000  H
  H902     1.0000 0.81540  0.37760  0.54420  Biso   1.000  H
  H903     1.0000 0.18460  0.37760  0.95580  Biso   1.000  H
  H904     1.0000 0.31540  0.62240  0.95580  Biso   1.000  H
  H905     1.0000 0.81540  0.87760  0.45580  Biso   1.000  H
  H906     1.0000 0.68460  0.12240  0.45580  Biso   1.000  H
  H907     1.0000 0.31540  0.12240  0.04420  Biso   1.000  H
  H908     1.0000 0.18460  0.87760  0.04420  Biso   1.000  H
  H909     1.0000 0.31540  0.37760  0.45580  Biso   1.000  H
  H910     1.0000 0.18460  0.62240  0.45580  Biso   1.000  H
  H911     1.0000 0.81540  0.62240  0.04420  Biso   1.000  H
  H912     1.0000 0.68460  0.37760  0.04420  Biso   1.000  H
  C1137    1.0000 0.16730  0.12230  0.47480  Biso   1.000  C
  C1138    1.0000 0.33270  0.87770  0.47480  Biso   1.000  C
  C1139    1.0000 0.66730  0.87770  0.02520  Biso   1.000  C
  C1140    1.0000 0.83270  0.12230  0.02520  Biso   1.000  C
  C1141    1.0000 0.66730  0.62230  0.47480  Biso   1.000  C
  C1142    1.0000 0.83270  0.37770  0.47480  Biso   1.000  C
  C1143    1.0000 0.16730  0.37770  0.02520  Biso   1.000  C
  C1144    1.0000 0.33270  0.62230  0.02520  Biso   1.000  C
  C1145    1.0000 0.83270  0.87770  0.52520  Biso   1.000  C
  C1146    1.0000 0.66730  0.12230  0.52520  Biso   1.000  C
  C1147    1.0000 0.33270  0.12230  0.97480  Biso   1.000  C
  C1148    1.0000 0.16730  0.87770  0.97480  Biso   1.000  C
  C1149    1.0000 0.33270  0.37770  0.52520  Biso   1.000  C
  C1150    1.0000 0.16730  0.62230  0.52520  Biso   1.000  C
  C1151    1.0000 0.83270  0.62230  0.97480  Biso   1.000  C
  C1152    1.0000 0.66730  0.37770  0.97480  Biso   1.000  C
  H913     1.0000 0.16340  0.09680  0.47200  Biso   1.000  H
  H914     1.0000 0.33660  0.90320  0.47200  Biso   1.000  H
  H915     1.0000 0.66340  0.90320  0.02800  Biso   1.000  H
  H916     1.0000 0.83660  0.09680  0.02800  Biso   1.000  H
  H917     1.0000 0.66340  0.59680  0.47200  Biso   1.000  H
  H918     1.0000 0.83660  0.40320  0.47200  Biso   1.000  H
  H919     1.0000 0.16340  0.40320  0.02800  Biso   1.000  H
  H920     1.0000 0.33660  0.59680  0.02800  Biso   1.000  H
  H921     1.0000 0.83660  0.90320  0.52800  Biso   1.000  H
  H922     1.0000 0.66340  0.09680  0.52800  Biso   1.000  H
  H923     1.0000 0.33660  0.09680  0.97200  Biso   1.000  H
  H924     1.0000 0.16340  0.90320  0.97200  Biso   1.000  H
  H925     1.0000 0.33660  0.40320  0.52800  Biso   1.000  H
  H926     1.0000 0.16340  0.59680  0.52800  Biso   1.000  H
  H927     1.0000 0.83660  0.59680  0.97200  Biso   1.000  H
  H928     1.0000 0.66340  0.40320  0.97200  Biso   1.000  H
  C1153    1.0000 0.18360  0.19540  0.48190  Biso   1.000  C
  C1154    1.0000 0.31640  0.80460  0.48190  Biso   1.000  C
  C1155    1.0000 0.68360  0.80460  0.01810  Biso   1.000  C
  C1156    1.0000 0.81640  0.19540  0.01810  Biso   1.000  C
  C1157    1.0000 0.68360  0.69540  0.48190  Biso   1.000  C
  C1158    1.0000 0.81640  0.30460  0.48190  Biso   1.000  C
  C1159    1.0000 0.18360  0.30460  0.01810  Biso   1.000  C
  C1160    1.0000 0.31640  0.69540  0.01810  Biso   1.000  C
  C1161    1.0000 0.81640  0.80460  0.51810  Biso   1.000  C
  C1162    1.0000 0.68360  0.19540  0.51810  Biso   1.000  C
  C1163    1.0000 0.31640  0.19540  0.98190  Biso   1.000  C
  C1164    1.0000 0.18360  0.80460  0.98190  Biso   1.000  C
  C1165    1.0000 0.31640  0.30460  0.51810  Biso   1.000  C
  C1166    1.0000 0.18360  0.69540  0.51810  Biso   1.000  C
  C1167    1.0000 0.81640  0.69540  0.98190  Biso   1.000  C
  C1168    1.0000 0.68360  0.30460  0.98190  Biso   1.000  C
  H929     1.0000 0.18730  0.22090  0.48400  Biso   1.000  H
  H930     1.0000 0.31270  0.77910  0.48400  Biso   1.000  H
  H931     1.0000 0.68730  0.77910  0.01600  Biso   1.000  H
  H932     1.0000 0.81270  0.22090  0.01600  Biso   1.000  H
  H933     1.0000 0.68730  0.72090  0.48400  Biso   1.000  H
  H934     1.0000 0.81270  0.27910  0.48400  Biso   1.000  H
  H935     1.0000 0.18730  0.27910  0.01600  Biso   1.000  H
  H936     1.0000 0.31270  0.72090  0.01600  Biso   1.000  H
  H937     1.0000 0.81270  0.77910  0.51600  Biso   1.000  H
  H938     1.0000 0.68730  0.22090  0.51600  Biso   1.000  H
  H939     1.0000 0.31270  0.22090  0.98400  Biso   1.000  H
  H940     1.0000 0.18730  0.77910  0.98400  Biso   1.000  H
  H941     1.0000 0.31270  0.27910  0.51600  Biso   1.000  H
  H942     1.0000 0.18730  0.72090  0.51600  Biso   1.000  H
  H943     1.0000 0.81270  0.72090  0.98400  Biso   1.000  H
  H944     1.0000 0.68730  0.27910  0.98400  Biso   1.000  H
  C1169    1.0000 0.16310  0.18150  0.44110  Biso   1.000  C
  C1170    1.0000 0.33690  0.81850  0.44110  Biso   1.000  C
  C1171    1.0000 0.66310  0.81850  0.05890  Biso   1.000  C
  C1172    1.0000 0.83690  0.18150  0.05890  Biso   1.000  C
  C1173    1.0000 0.66310  0.68150  0.44110  Biso   1.000  C
  C1174    1.0000 0.83690  0.31850  0.44110  Biso   1.000  C
  C1175    1.0000 0.16310  0.31850  0.05890  Biso   1.000  C
  C1176    1.0000 0.33690  0.68150  0.05890  Biso   1.000  C
  C1177    1.0000 0.83690  0.81850  0.55890  Biso   1.000  C
  C1178    1.0000 0.66310  0.18150  0.55890  Biso   1.000  C
  C1179    1.0000 0.33690  0.18150  0.94110  Biso   1.000  C
  C1180    1.0000 0.16310  0.81850  0.94110  Biso   1.000  C
  C1181    1.0000 0.33690  0.31850  0.55890  Biso   1.000  C
  C1182    1.0000 0.16310  0.68150  0.55890  Biso   1.000  C
  C1183    1.0000 0.83690  0.68150  0.94110  Biso   1.000  C
  C1184    1.0000 0.66310  0.31850  0.94110  Biso   1.000  C
  H945     1.0000 0.15360  0.19750  0.41620  Biso   1.000  H
  H946     1.0000 0.34640  0.80250  0.41620  Biso   1.000  H
  H947     1.0000 0.65360  0.80250  0.08380  Biso   1.000  H
  H948     1.0000 0.84640  0.19750  0.08380  Biso   1.000  H
  H949     1.0000 0.65360  0.69750  0.41620  Biso   1.000  H
  H950     1.0000 0.84640  0.30250  0.41620  Biso   1.000  H
  H951     1.0000 0.15360  0.30250  0.08380  Biso   1.000  H
  H952     1.0000 0.34640  0.69750  0.08380  Biso   1.000  H
  H953     1.0000 0.84640  0.80250  0.58380  Biso   1.000  H
  H954     1.0000 0.65360  0.19750  0.58380  Biso   1.000  H
  H955     1.0000 0.34640  0.19750  0.91620  Biso   1.000  H
  H956     1.0000 0.15360  0.80250  0.91620  Biso   1.000  H
  H957     1.0000 0.34640  0.30250  0.58380  Biso   1.000  H
  H958     1.0000 0.15360  0.69750  0.58380  Biso   1.000  H
  H959     1.0000 0.84640  0.69750  0.91620  Biso   1.000  H
  H960     1.0000 0.65360  0.30250  0.91620  Biso   1.000  H
