data_image0
_cell_length_a       21.253
_cell_length_b       21.792
_cell_length_c       27.105
_cell_angle_alpha    90
_cell_angle_beta     101.79
_cell_angle_gamma    90

_symmetry_space_group_name_H-M    "P 1"
_symmetry_int_tables_number       1

loop_
  _symmetry_equiv_pos_as_xyz
  'x, y, z'

loop_
  _atom_site_label
  _atom_site_occupancy
  _atom_site_fract_x
  _atom_site_fract_y
  _atom_site_fract_z
  _atom_site_thermal_displace_type
  _atom_site_B_iso_or_equiv
  _atom_site_type_symbol
  Cu1      1.0000 0.33430  0.08378  0.37779  Biso   1.000  Cu
  Cu2      1.0000 0.16570  0.58378  0.62221  Biso   1.000  Cu
  Cu3      1.0000 0.66570  0.91622  0.62221  Biso   1.000  Cu
  Cu4      1.0000 0.83430  0.41622  0.37779  Biso   1.000  Cu
  Cu5      1.0000 0.33025  0.23527  0.33767  Biso   1.000  Cu
  Cu6      1.0000 0.16975  0.73527  0.66233  Biso   1.000  Cu
  Cu7      1.0000 0.66975  0.76473  0.66233  Biso   1.000  Cu
  Cu8      1.0000 0.83025  0.26473  0.33767  Biso   1.000  Cu
  Cu9      1.0000 0.34012  0.49897  0.20039  Biso   1.000  Cu
  Cu10     1.0000 0.15988  0.99897  0.79961  Biso   1.000  Cu
  Cu11     1.0000 0.65988  0.50103  0.79961  Biso   1.000  Cu
  Cu12     1.0000 0.84012  0.00103  0.20039  Biso   1.000  Cu
  W1       1.0000 0.17384  0.00057  0.17341  Biso   1.000  W
  W2       1.0000 0.32616  0.50057  0.82659  Biso   1.000  W
  W3       1.0000 0.82616  0.99943  0.82659  Biso   1.000  W
  W4       1.0000 0.67384  0.49943  0.17341  Biso   1.000  W
  Cu13     1.0000 0.42124  0.60522  0.28348  Biso   1.000  Cu
  Cu14     1.0000 0.07876  0.10522  0.71652  Biso   1.000  Cu
  Cu15     1.0000 0.57876  0.39478  0.71652  Biso   1.000  Cu
  Cu16     1.0000 0.92124  0.89478  0.28348  Biso   1.000  Cu
  Cu17     1.0000 0.33490  0.73184  0.33018  Biso   1.000  Cu
  Cu18     1.0000 0.16510  0.23184  0.66982  Biso   1.000  Cu
  Cu19     1.0000 0.66510  0.26816  0.66982  Biso   1.000  Cu
  Cu20     1.0000 0.83490  0.76816  0.33018  Biso   1.000  Cu
  Cu21     1.0000 0.24370  0.27341  0.20986  Biso   1.000  Cu
  Cu22     1.0000 0.25630  0.77341  0.79014  Biso   1.000  Cu
  Cu23     1.0000 0.75630  0.72659  0.79014  Biso   1.000  Cu
  Cu24     1.0000 0.74370  0.22659  0.20986  Biso   1.000  Cu
  Cu25     1.0000 0.26427  0.77202  0.20923  Biso   1.000  Cu
  Cu26     1.0000 0.23573  0.27202  0.79077  Biso   1.000  Cu
  Cu27     1.0000 0.73573  0.22798  0.79077  Biso   1.000  Cu
  Cu28     1.0000 0.76427  0.72798  0.20923  Biso   1.000  Cu
  Cu29     1.0000 0.24111  0.46565  0.29244  Biso   1.000  Cu
  Cu30     1.0000 0.25889  0.96565  0.70756  Biso   1.000  Cu
  Cu31     1.0000 0.75889  0.53435  0.70756  Biso   1.000  Cu
  Cu32     1.0000 0.74111  0.03435  0.29244  Biso   1.000  Cu
  Cu33     1.0000 0.25329  0.96498  0.29288  Biso   1.000  Cu
  Cu34     1.0000 0.24671  0.46498  0.70712  Biso   1.000  Cu
  Cu35     1.0000 0.74671  0.03502  0.70712  Biso   1.000  Cu
  Cu36     1.0000 0.75329  0.53502  0.29288  Biso   1.000  Cu
  W5       1.0000 0.34494  0.07871  0.66544  Biso   1.000  W
  W6       1.0000 0.15506  0.57871  0.33456  Biso   1.000  W
  W7       1.0000 0.65506  0.92129  0.33456  Biso   1.000  W
  W8       1.0000 0.84494  0.42129  0.66544  Biso   1.000  W
  W9       1.0000 0.32089  0.15696  0.87833  Biso   1.000  W
  W10      1.0000 0.17911  0.65696  0.12167  Biso   1.000  W
  W11      1.0000 0.67911  0.84304  0.12167  Biso   1.000  W
  W12      1.0000 0.82089  0.34304  0.87833  Biso   1.000  W
  W13      1.0000 0.33402  0.16736  0.16126  Biso   1.000  W
  W14      1.0000 0.16598  0.66736  0.83874  Biso   1.000  W
  W15      1.0000 0.66598  0.83264  0.83874  Biso   1.000  W
  W16      1.0000 0.83402  0.33264  0.16126  Biso   1.000  W
  W17      1.0000 0.16837  0.16194  0.13040  Biso   1.000  W
  W18      1.0000 0.33163  0.66194  0.86960  Biso   1.000  W
  W19      1.0000 0.83163  0.83806  0.86960  Biso   1.000  W
  W20      1.0000 0.66837  0.33806  0.13040  Biso   1.000  W
  W21      1.0000 0.18018  0.07333  0.62605  Biso   1.000  W
  W22      1.0000 0.31982  0.57333  0.37395  Biso   1.000  W
  W23      1.0000 0.81982  0.92667  0.37395  Biso   1.000  W
  W24      1.0000 0.68018  0.42667  0.62605  Biso   1.000  W
  W25      1.0000 0.14506  0.15017  0.83730  Biso   1.000  W
  W26      1.0000 0.35494  0.65017  0.16270  Biso   1.000  W
  W27      1.0000 0.85494  0.84983  0.16270  Biso   1.000  W
  W28      1.0000 0.64506  0.34983  0.83730  Biso   1.000  W
  W29      1.0000 0.32903  0.23901  0.70517  Biso   1.000  W
  W30      1.0000 0.17097  0.73901  0.29483  Biso   1.000  W
  W31      1.0000 0.67097  0.76099  0.29483  Biso   1.000  W
  W32      1.0000 0.82903  0.26099  0.70517  Biso   1.000  W
  W33      1.0000 0.15777  0.07670  0.34557  Biso   1.000  W
  W34      1.0000 0.34223  0.57670  0.65443  Biso   1.000  W
  W35      1.0000 0.84223  0.92330  0.65443  Biso   1.000  W
  W36      1.0000 0.65777  0.42330  0.34557  Biso   1.000  W
  W37      1.0000 0.33451  0.00736  0.83711  Biso   1.000  W
  W38      1.0000 0.16549  0.50736  0.16289  Biso   1.000  W
  W39      1.0000 0.66549  0.99264  0.16289  Biso   1.000  W
  W40      1.0000 0.83451  0.49264  0.83711  Biso   1.000  W
  W41      1.0000 0.15465  0.22802  0.30583  Biso   1.000  W
  W42      1.0000 0.34535  0.72802  0.69417  Biso   1.000  W
  W43      1.0000 0.84535  0.77198  0.69417  Biso   1.000  W
  W44      1.0000 0.65465  0.27198  0.30583  Biso   1.000  W
  W45      1.0000 0.41889  0.12751  0.28947  Biso   1.000  W
  W46      1.0000 0.08111  0.62751  0.71053  Biso   1.000  W
  W47      1.0000 0.58111  0.87249  0.71053  Biso   1.000  W
  W48      1.0000 0.91889  0.37249  0.28947  Biso   1.000  W
  W49      1.0000 0.41635  0.12627  0.79426  Biso   1.000  W
  W50      1.0000 0.08365  0.62627  0.20574  Biso   1.000  W
  W51      1.0000 0.58365  0.87373  0.20574  Biso   1.000  W
  W52      1.0000 0.91635  0.37373  0.79426  Biso   1.000  W
  W53      1.0000 0.07952  0.11477  0.22620  Biso   1.000  W
  W54      1.0000 0.42048  0.61477  0.77380  Biso   1.000  W
  W55      1.0000 0.92048  0.88523  0.77380  Biso   1.000  W
  W56      1.0000 0.57952  0.38523  0.22620  Biso   1.000  W
  W57      1.0000 0.33725  0.00658  0.20420  Biso   1.000  W
  W58      1.0000 0.16275  0.50658  0.79580  Biso   1.000  W
  W59      1.0000 0.66275  0.99342  0.79580  Biso   1.000  W
  W60      1.0000 0.83725  0.49342  0.20420  Biso   1.000  W
  Cu37     1.0000 0.24560  0.15988  0.00830  Biso   1.000  Cu
  Cu38     1.0000 0.25440  0.65988  0.99170  Biso   1.000  Cu
  Cu39     1.0000 0.75440  0.84012  0.99170  Biso   1.000  Cu
  Cu40     1.0000 0.74560  0.34012  0.00830  Biso   1.000  Cu
  Cu41     1.0000 0.43110  0.06470  0.55002  Biso   1.000  Cu
  Cu42     1.0000 0.06890  0.56470  0.44998  Biso   1.000  Cu
  Cu43     1.0000 0.56890  0.93530  0.44998  Biso   1.000  Cu
  Cu44     1.0000 0.93110  0.43530  0.55002  Biso   1.000  Cu
  Cu45     1.0000 0.25990  0.08083  0.50950  Biso   1.000  Cu
  Cu46     1.0000 0.24010  0.58083  0.49050  Biso   1.000  Cu
  Cu47     1.0000 0.74010  0.91917  0.49050  Biso   1.000  Cu
  Cu48     1.0000 0.75990  0.41917  0.50950  Biso   1.000  Cu
  Cu49     1.0000 0.07260  0.67515  0.95432  Biso   1.000  Cu
  Cu50     1.0000 0.42740  0.17515  0.04568  Biso   1.000  Cu
  Cu51     1.0000 0.92740  0.32485  0.04568  Biso   1.000  Cu
  Cu52     1.0000 0.57260  0.82485  0.95432  Biso   1.000  Cu
  Cu53     1.0000 0.07180  0.06460  0.47060  Biso   1.000  Cu
  Cu54     1.0000 0.42820  0.56460  0.52940  Biso   1.000  Cu
  Cu55     1.0000 0.92820  0.93540  0.52940  Biso   1.000  Cu
  Cu56     1.0000 0.57180  0.43540  0.47060  Biso   1.000  Cu
  Cu57     1.0000 0.07120  0.17500  0.97010  Biso   1.000  Cu
  Cu58     1.0000 0.42880  0.67500  0.02990  Biso   1.000  Cu
  Cu59     1.0000 0.92880  0.82500  0.02990  Biso   1.000  Cu
  Cu60     1.0000 0.57120  0.32500  0.97010  Biso   1.000  Cu
  P1       1.0000 0.24640  0.11770  0.75240  Biso   1.000  P
  P2       1.0000 0.25360  0.61770  0.24760  Biso   1.000  P
  P3       1.0000 0.75360  0.88230  0.24760  Biso   1.000  P
  P4       1.0000 0.74640  0.38230  0.75240  Biso   1.000  P
  P5       1.0000 0.24830  0.11920  0.25430  Biso   1.000  P
  P6       1.0000 0.25170  0.61920  0.74570  Biso   1.000  P
  P7       1.0000 0.75170  0.88080  0.74570  Biso   1.000  P
  P8       1.0000 0.74830  0.38080  0.25430  Biso   1.000  P
  Na1      1.0000 0.41100  0.86330  0.25280  Biso   1.000  Na
  Na2      1.0000 0.08900  0.36330  0.74720  Biso   1.000  Na
  Na3      1.0000 0.58900  0.13670  0.74720  Biso   1.000  Na
  Na4      1.0000 0.91100  0.63670  0.25280  Biso   1.000  Na
  Na5      1.0000 0.60050  0.12430  0.24980  Biso   1.000  Na
  Na6      1.0000 0.89950  0.62430  0.75020  Biso   1.000  Na
  Na7      1.0000 0.39950  0.87570  0.75020  Biso   1.000  Na
  Na8      1.0000 0.10050  0.37570  0.24980  Biso   1.000  Na
  Na9      1.0000 0.10250  0.89600  0.26620  Biso   1.000  Na
  Na10     1.0000 0.39750  0.39600  0.73380  Biso   1.000  Na
  Na11     1.0000 0.89750  0.10400  0.73380  Biso   1.000  Na
  Na12     1.0000 0.60250  0.60400  0.26620  Biso   1.000  Na
  Na13     1.0000 0.42010  0.30700  0.24220  Biso   1.000  Na
  Na14     1.0000 0.07990  0.80700  0.75780  Biso   1.000  Na
  Na15     1.0000 0.57990  0.69300  0.75780  Biso   1.000  Na
  Na16     1.0000 0.92010  0.19300  0.24220  Biso   1.000  Na
  O1       1.0000 0.19970  0.99130  0.64770  Biso   1.000  O
  O2       1.0000 0.30030  0.49130  0.35230  Biso   1.000  O
  O3       1.0000 0.80030  0.00870  0.35230  Biso   1.000  O
  O4       1.0000 0.69970  0.50870  0.64770  Biso   1.000  O
  O5       1.0000 0.31650  0.97320  0.77250  Biso   1.000  O
  O6       1.0000 0.18350  0.47320  0.22750  Biso   1.000  O
  O7       1.0000 0.68350  0.02680  0.22750  Biso   1.000  O
  O8       1.0000 0.81650  0.52680  0.77250  Biso   1.000  O
  O9       1.0000 0.24630  0.00500  0.83790  Biso   1.000  O
  O10      1.0000 0.25370  0.50500  0.16210  Biso   1.000  O
  O11      1.0000 0.75370  0.99500  0.16210  Biso   1.000  O
  O12      1.0000 0.74630  0.49500  0.83790  Biso   1.000  O
  O13      1.0000 0.26360  0.88630  0.69370  Biso   1.000  O
  O14      1.0000 0.23640  0.38630  0.30630  Biso   1.000  O
  O15      1.0000 0.73640  0.11370  0.30630  Biso   1.000  O
  O16      1.0000 0.76360  0.61370  0.69370  Biso   1.000  O
  O17      1.0000 0.13880  0.06090  0.84230  Biso   1.000  O
  O18      1.0000 0.36120  0.56090  0.15770  Biso   1.000  O
  O19      1.0000 0.86120  0.93910  0.15770  Biso   1.000  O
  O20      1.0000 0.63880  0.43910  0.84230  Biso   1.000  O
  O21      1.0000 0.23250  0.14120  0.87550  Biso   1.000  O
  O22      1.0000 0.26750  0.64120  0.12450  Biso   1.000  O
  O23      1.0000 0.76750  0.85880  0.12450  Biso   1.000  O
  O24      1.0000 0.73250  0.35880  0.87550  Biso   1.000  O
  O25      1.0000 0.40990  0.04410  0.82370  Biso   1.000  O
  O26      1.0000 0.09010  0.54410  0.17630  Biso   1.000  O
  O27      1.0000 0.59010  0.95590  0.17630  Biso   1.000  O
  O28      1.0000 0.90990  0.45590  0.82370  Biso   1.000  O
  O29      1.0000 0.14050  0.06510  0.56480  Biso   1.000  O
  O30      1.0000 0.35950  0.56510  0.43520  Biso   1.000  O
  O31      1.0000 0.85950  0.93490  0.43520  Biso   1.000  O
  O32      1.0000 0.64050  0.43490  0.56480  Biso   1.000  O
  O33      1.0000 0.26790  0.08140  0.61530  Biso   1.000  O
  O34      1.0000 0.23210  0.58140  0.38470  Biso   1.000  O
  O35      1.0000 0.73210  0.91860  0.38470  Biso   1.000  O
  O36      1.0000 0.76790  0.41860  0.61530  Biso   1.000  O
  O37      1.0000 0.16990  0.22190  0.81200  Biso   1.000  O
  O38      1.0000 0.33010  0.72190  0.18800  Biso   1.000  O
  O39      1.0000 0.83010  0.77810  0.18800  Biso   1.000  O
  O40      1.0000 0.66990  0.27810  0.81200  Biso   1.000  O
  O41      1.0000 0.29720  0.23040  0.84570  Biso   1.000  O
  O42      1.0000 0.20280  0.73040  0.15430  Biso   1.000  O
  O43      1.0000 0.70280  0.76960  0.15430  Biso   1.000  O
  O44      1.0000 0.79720  0.26960  0.84570  Biso   1.000  O
  O45      1.0000 0.30230  0.28950  0.75590  Biso   1.000  O
  O46      1.0000 0.19770  0.78950  0.24410  Biso   1.000  O
  O47      1.0000 0.69770  0.71050  0.24410  Biso   1.000  O
  O48      1.0000 0.80230  0.21050  0.75590  Biso   1.000  O
  O49      1.0000 0.24700  0.25950  0.66090  Biso   1.000  O
  O50      1.0000 0.25300  0.75950  0.33910  Biso   1.000  O
  O51      1.0000 0.75300  0.74050  0.33910  Biso   1.000  O
  O52      1.0000 0.74700  0.24050  0.66090  Biso   1.000  O
  O53      1.0000 0.37490  0.28860  0.68050  Biso   1.000  O
  O54      1.0000 0.12510  0.78860  0.31950  Biso   1.000  O
  O55      1.0000 0.62510  0.71140  0.31950  Biso   1.000  O
  O56      1.0000 0.87490  0.21140  0.68050  Biso   1.000  O
  O57      1.0000 0.18270  0.00470  0.31750  Biso   1.000  O
  O58      1.0000 0.31730  0.50470  0.68250  Biso   1.000  O
  O59      1.0000 0.81730  0.99530  0.68250  Biso   1.000  O
  O60      1.0000 0.68270  0.49530  0.31750  Biso   1.000  O
  O61      1.0000 0.31850  0.01330  0.34230  Biso   1.000  O
  O62      1.0000 0.18150  0.51330  0.65770  Biso   1.000  O
  O63      1.0000 0.68150  0.98670  0.65770  Biso   1.000  O
  O64      1.0000 0.81850  0.48670  0.34230  Biso   1.000  O
  O65      1.0000 0.24520  0.09480  0.37720  Biso   1.000  O
  O66      1.0000 0.25480  0.59480  0.62280  Biso   1.000  O
  O67      1.0000 0.75480  0.90520  0.62280  Biso   1.000  O
  O68      1.0000 0.74520  0.40520  0.37720  Biso   1.000  O
  O69      1.0000 0.14790  0.16210  0.35380  Biso   1.000  O
  O70      1.0000 0.35210  0.66210  0.64620  Biso   1.000  O
  O71      1.0000 0.85210  0.83790  0.64620  Biso   1.000  O
  O72      1.0000 0.64790  0.33790  0.35380  Biso   1.000  O
  O73      1.0000 0.34390  0.17260  0.38800  Biso   1.000  O
  O74      1.0000 0.15610  0.67260  0.61200  Biso   1.000  O
  O75      1.0000 0.65610  0.82740  0.61200  Biso   1.000  O
  O76      1.0000 0.84390  0.32740  0.38800  Biso   1.000  O
  O77      1.0000 0.24370  0.23500  0.33930  Biso   1.000  O
  O78      1.0000 0.25630  0.73500  0.66070  Biso   1.000  O
  O79      1.0000 0.75630  0.76500  0.66070  Biso   1.000  O
  O80      1.0000 0.74370  0.26500  0.33930  Biso   1.000  O
  O81      1.0000 0.40880  0.20450  0.32080  Biso   1.000  O
  O82      1.0000 0.09120  0.70450  0.67920  Biso   1.000  O
  O83      1.0000 0.59120  0.79550  0.67920  Biso   1.000  O
  O84      1.0000 0.90880  0.29550  0.32080  Biso   1.000  O
  O85      1.0000 0.25730  0.98590  0.16150  Biso   1.000  O
  O86      1.0000 0.24270  0.48590  0.83850  Biso   1.000  O
  O87      1.0000 0.74270  0.01410  0.83850  Biso   1.000  O
  O88      1.0000 0.75730  0.51410  0.16150  Biso   1.000  O
  O89      1.0000 0.33340  0.08270  0.16540  Biso   1.000  O
  O90      1.0000 0.16660  0.58270  0.83460  Biso   1.000  O
  O91      1.0000 0.66660  0.91730  0.83460  Biso   1.000  O
  O92      1.0000 0.83340  0.41730  0.16540  Biso   1.000  O
  O93      1.0000 0.39340  0.96310  0.18090  Biso   1.000  O
  O94      1.0000 0.10660  0.46310  0.81910  Biso   1.000  O
  O95      1.0000 0.60660  0.03690  0.81910  Biso   1.000  O
  O96      1.0000 0.89340  0.53690  0.18090  Biso   1.000  O
  O97      1.0000 0.12120  0.17250  0.07290  Biso   1.000  O
  O98      1.0000 0.37880  0.67250  0.92710  Biso   1.000  O
  O99      1.0000 0.87880  0.82750  0.92710  Biso   1.000  O
  O100     1.0000 0.62120  0.32750  0.07290  Biso   1.000  O
  O101     1.0000 0.25290  0.16100  0.11290  Biso   1.000  O
  O102     1.0000 0.24710  0.66100  0.88710  Biso   1.000  O
  O103     1.0000 0.74710  0.83900  0.88710  Biso   1.000  O
  O104     1.0000 0.75290  0.33900  0.11290  Biso   1.000  O
  O105     1.0000 0.11440  0.67960  0.87810  Biso   1.000  O
  O106     1.0000 0.38560  0.17960  0.12190  Biso   1.000  O
  O107     1.0000 0.88560  0.32040  0.12190  Biso   1.000  O
  O108     1.0000 0.61440  0.82040  0.87810  Biso   1.000  O
  O109     1.0000 0.32730  0.99580  0.67570  Biso   1.000  O
  O110     1.0000 0.17270  0.49580  0.32430  Biso   1.000  O
  O111     1.0000 0.67270  0.00420  0.32430  Biso   1.000  O
  O112     1.0000 0.82730  0.50420  0.67570  Biso   1.000  O
  O113     1.0000 0.19090  0.96780  0.74510  Biso   1.000  O
  O114     1.0000 0.30910  0.46780  0.25490  Biso   1.000  O
  O115     1.0000 0.80910  0.03220  0.25490  Biso   1.000  O
  O116     1.0000 0.69090  0.53220  0.74510  Biso   1.000  O
  O117     1.0000 0.10690  0.17280  0.88170  Biso   1.000  O
  O118     1.0000 0.39310  0.67280  0.11830  Biso   1.000  O
  O119     1.0000 0.89310  0.82720  0.11830  Biso   1.000  O
  O120     1.0000 0.60690  0.32720  0.88170  Biso   1.000  O
  O121     1.0000 0.07910  0.14460  0.78140  Biso   1.000  O
  O122     1.0000 0.42090  0.64460  0.21860  Biso   1.000  O
  O123     1.0000 0.92090  0.85540  0.21860  Biso   1.000  O
  O124     1.0000 0.57910  0.35540  0.78140  Biso   1.000  O
  O125     1.0000 0.40200  0.07280  0.62920  Biso   1.000  O
  O126     1.0000 0.09800  0.57280  0.37080  Biso   1.000  O
  O127     1.0000 0.59800  0.92720  0.37080  Biso   1.000  O
  O128     1.0000 0.90200  0.42720  0.62920  Biso   1.000  O
  O129     1.0000 0.17420  0.15540  0.63040  Biso   1.000  O
  O130     1.0000 0.32580  0.65540  0.36960  Biso   1.000  O
  O131     1.0000 0.82580  0.84460  0.36960  Biso   1.000  O
  O132     1.0000 0.67420  0.34460  0.63040  Biso   1.000  O
  O133     1.0000 0.32070  0.95360  0.25470  Biso   1.000  O
  O134     1.0000 0.17930  0.45360  0.74530  Biso   1.000  O
  O135     1.0000 0.67930  0.04640  0.74530  Biso   1.000  O
  O136     1.0000 0.82070  0.54640  0.25470  Biso   1.000  O
  O137     1.0000 0.08470  0.07770  0.29090  Biso   1.000  O
  O138     1.0000 0.41530  0.57770  0.70910  Biso   1.000  O
  O139     1.0000 0.91530  0.92230  0.70910  Biso   1.000  O
  O140     1.0000 0.58470  0.42230  0.29090  Biso   1.000  O
  O141     1.0000 0.12930  0.05150  0.39460  Biso   1.000  O
  O142     1.0000 0.37070  0.55150  0.60540  Biso   1.000  O
  O143     1.0000 0.87070  0.94850  0.60540  Biso   1.000  O
  O144     1.0000 0.62930  0.44850  0.39460  Biso   1.000  O
  O145     1.0000 0.30740  0.27100  0.27370  Biso   1.000  O
  O146     1.0000 0.19260  0.77100  0.72630  Biso   1.000  O
  O147     1.0000 0.69260  0.72900  0.72630  Biso   1.000  O
  O148     1.0000 0.80740  0.22900  0.27370  Biso   1.000  O
  O149     1.0000 0.17910  0.26530  0.24890  Biso   1.000  O
  O150     1.0000 0.32090  0.76530  0.75110  Biso   1.000  O
  O151     1.0000 0.82090  0.73470  0.75110  Biso   1.000  O
  O152     1.0000 0.67910  0.23470  0.24890  Biso   1.000  O
  O153     1.0000 0.39400  0.16400  0.22680  Biso   1.000  O
  O154     1.0000 0.10600  0.66400  0.77320  Biso   1.000  O
  O155     1.0000 0.60600  0.83600  0.77320  Biso   1.000  O
  O156     1.0000 0.89400  0.33600  0.22680  Biso   1.000  O
  O157     1.0000 0.17510  0.07570  0.13750  Biso   1.000  O
  O158     1.0000 0.32490  0.57570  0.86250  Biso   1.000  O
  O159     1.0000 0.82490  0.92430  0.86250  Biso   1.000  O
  O160     1.0000 0.67510  0.42430  0.13750  Biso   1.000  O
  O161     1.0000 0.24970  0.16060  0.20920  Biso   1.000  O
  O162     1.0000 0.25030  0.66060  0.79080  Biso   1.000  O
  O163     1.0000 0.75030  0.83940  0.79080  Biso   1.000  O
  O164     1.0000 0.74970  0.33940  0.20920  Biso   1.000  O
  O165     1.0000 0.25210  0.05160  0.23900  Biso   1.000  O
  O166     1.0000 0.24790  0.55160  0.76100  Biso   1.000  O
  O167     1.0000 0.74790  0.94840  0.76100  Biso   1.000  O
  O168     1.0000 0.75210  0.44840  0.23900  Biso   1.000  O
  O169     1.0000 0.24520  0.18580  0.73480  Biso   1.000  O
  O170     1.0000 0.25480  0.68580  0.26520  Biso   1.000  O
  O171     1.0000 0.75480  0.81420  0.26520  Biso   1.000  O
  O172     1.0000 0.74520  0.31420  0.73480  Biso   1.000  O
  O173     1.0000 0.25250  0.07500  0.70590  Biso   1.000  O
  O174     1.0000 0.24750  0.57500  0.29410  Biso   1.000  O
  O175     1.0000 0.74750  0.92500  0.29410  Biso   1.000  O
  O176     1.0000 0.75250  0.42500  0.70590  Biso   1.000  O
  O177     1.0000 0.36720  0.94940  0.87450  Biso   1.000  O
  O178     1.0000 0.13280  0.44940  0.12550  Biso   1.000  O
  O179     1.0000 0.63280  0.05060  0.12550  Biso   1.000  O
  O180     1.0000 0.86720  0.55060  0.87450  Biso   1.000  O
  O181     1.0000 0.33170  0.07100  0.88610  Biso   1.000  O
  O182     1.0000 0.16830  0.57100  0.11390  Biso   1.000  O
  O183     1.0000 0.66830  0.92900  0.11390  Biso   1.000  O
  O184     1.0000 0.83170  0.42900  0.88610  Biso   1.000  O
  O185     1.0000 0.00260  0.10890  0.69190  Biso   1.000  O
  O186     1.0000 0.49740  0.60890  0.30810  Biso   1.000  O
  O187     1.0000 0.99740  0.89110  0.30810  Biso   1.000  O
  O188     1.0000 0.50260  0.39110  0.69190  Biso   1.000  O
  O189     1.0000 0.38730  0.19570  0.76070  Biso   1.000  O
  O190     1.0000 0.11270  0.69570  0.23930  Biso   1.000  O
  O191     1.0000 0.61270  0.80430  0.23930  Biso   1.000  O
  O192     1.0000 0.88730  0.30430  0.76070  Biso   1.000  O
  O193     1.0000 0.10270  0.17910  0.69450  Biso   1.000  O
  O194     1.0000 0.39730  0.67910  0.30550  Biso   1.000  O
  O195     1.0000 0.89730  0.82090  0.30550  Biso   1.000  O
  O196     1.0000 0.60270  0.32090  0.69450  Biso   1.000  O
  O197     1.0000 0.18480  0.10240  0.76990  Biso   1.000  O
  O198     1.0000 0.31520  0.60240  0.23010  Biso   1.000  O
  O199     1.0000 0.81520  0.89760  0.23010  Biso   1.000  O
  O200     1.0000 0.68480  0.39760  0.76990  Biso   1.000  O
  O201     1.0000 0.25700  0.89330  0.32750  Biso   1.000  O
  O202     1.0000 0.24300  0.39330  0.67250  Biso   1.000  O
  O203     1.0000 0.74300  0.10670  0.67250  Biso   1.000  O
  O204     1.0000 0.75700  0.60670  0.32750  Biso   1.000  O
  O205     1.0000 0.19300  0.95080  0.23230  Biso   1.000  O
  O206     1.0000 0.30700  0.45080  0.76770  Biso   1.000  O
  O207     1.0000 0.80700  0.04920  0.76770  Biso   1.000  O
  O208     1.0000 0.69300  0.54920  0.23230  Biso   1.000  O
  O209     1.0000 0.36380  0.05740  0.43750  Biso   1.000  O
  O210     1.0000 0.13620  0.55740  0.56250  Biso   1.000  O
  O211     1.0000 0.63620  0.94260  0.56250  Biso   1.000  O
  O212     1.0000 0.86380  0.44260  0.43750  Biso   1.000  O
  O213     1.0000 0.08030  0.19040  0.26100  Biso   1.000  O
  O214     1.0000 0.41970  0.69040  0.73900  Biso   1.000  O
  O215     1.0000 0.91970  0.80960  0.73900  Biso   1.000  O
  O216     1.0000 0.58030  0.30960  0.26100  Biso   1.000  O
  O217     1.0000 0.18190  0.24420  0.14900  Biso   1.000  O
  O218     1.0000 0.31810  0.74420  0.85100  Biso   1.000  O
  O219     1.0000 0.81810  0.75580  0.85100  Biso   1.000  O
  O220     1.0000 0.68190  0.25580  0.14900  Biso   1.000  O
  O221     1.0000 0.23940  0.35330  0.19470  Biso   1.000  O
  O222     1.0000 0.26060  0.85330  0.80530  Biso   1.000  O
  O223     1.0000 0.76060  0.64670  0.80530  Biso   1.000  O
  O224     1.0000 0.73940  0.14670  0.19470  Biso   1.000  O
  O225     1.0000 0.35640  0.29920  0.37330  Biso   1.000  O
  O226     1.0000 0.14360  0.79920  0.62670  Biso   1.000  O
  O227     1.0000 0.64360  0.70080  0.62670  Biso   1.000  O
  O228     1.0000 0.85640  0.20080  0.37330  Biso   1.000  O
  O229     1.0000 0.30630  0.13770  0.29470  Biso   1.000  O
  O230     1.0000 0.19370  0.63770  0.70530  Biso   1.000  O
  O231     1.0000 0.69370  0.86230  0.70530  Biso   1.000  O
  O232     1.0000 0.80630  0.36230  0.29470  Biso   1.000  O
  O233     1.0000 0.18500  0.13180  0.27420  Biso   1.000  O
  O234     1.0000 0.31500  0.63180  0.72580  Biso   1.000  O
  O235     1.0000 0.81500  0.86820  0.72580  Biso   1.000  O
  O236     1.0000 0.68500  0.36820  0.27420  Biso   1.000  O
  O237     1.0000 0.50070  0.13610  0.80420  Biso   1.000  O
  O238     1.0000 0.99930  0.63610  0.19580  Biso   1.000  O
  O239     1.0000 0.49930  0.86390  0.19580  Biso   1.000  O
  O240     1.0000 0.00070  0.36390  0.80420  Biso   1.000  O
  O241     1.0000 0.39700  0.16150  0.85690  Biso   1.000  O
  O242     1.0000 0.10300  0.66150  0.14310  Biso   1.000  O
  O243     1.0000 0.60300  0.83850  0.14310  Biso   1.000  O
  O244     1.0000 0.89700  0.33850  0.85690  Biso   1.000  O
  O245     1.0000 0.41280  0.09080  0.35020  Biso   1.000  O
  O246     1.0000 0.08720  0.59080  0.64980  Biso   1.000  O
  O247     1.0000 0.58720  0.90920  0.64980  Biso   1.000  O
  O248     1.0000 0.91280  0.40920  0.35020  Biso   1.000  O
  O249     1.0000 0.12100  0.28700  0.32930  Biso   1.000  O
  O250     1.0000 0.37900  0.78700  0.67070  Biso   1.000  O
  O251     1.0000 0.87900  0.71300  0.67070  Biso   1.000  O
  O252     1.0000 0.62100  0.21300  0.32930  Biso   1.000  O
  O253     1.0000 0.33620  0.16600  0.66740  Biso   1.000  O
  O254     1.0000 0.16380  0.66600  0.33260  Biso   1.000  O
  O255     1.0000 0.66380  0.83400  0.33260  Biso   1.000  O
  O256     1.0000 0.83620  0.33400  0.66740  Biso   1.000  O
  O257     1.0000 0.17220  0.28020  0.72600  Biso   1.000  O
  O258     1.0000 0.32780  0.78020  0.27400  Biso   1.000  O
  O259     1.0000 0.82780  0.71980  0.27400  Biso   1.000  O
  O260     1.0000 0.67220  0.21980  0.72600  Biso   1.000  O
  O261     1.0000 0.13290  0.93390  0.82400  Biso   1.000  O
  O262     1.0000 0.36710  0.43390  0.17600  Biso   1.000  O
  O263     1.0000 0.86710  0.06610  0.17600  Biso   1.000  O
  O264     1.0000 0.63290  0.56610  0.82400  Biso   1.000  O
  O265     1.0000 0.34210  0.18090  0.94000  Biso   1.000  O
  O266     1.0000 0.15790  0.68090  0.06000  Biso   1.000  O
  O267     1.0000 0.65790  0.81910  0.06000  Biso   1.000  O
  O268     1.0000 0.84210  0.31910  0.94000  Biso   1.000  O
  O269     1.0000 0.22500  0.34400  0.82200  Biso   1.000  O
  O270     1.0000 0.27500  0.84400  0.17800  Biso   1.000  O
  O271     1.0000 0.77500  0.65600  0.17800  Biso   1.000  O
  O272     1.0000 0.72500  0.15600  0.82200  Biso   1.000  O
  O273     1.0000 0.11860  0.28190  0.62610  Biso   1.000  O
  O274     1.0000 0.38140  0.78190  0.37390  Biso   1.000  O
  O275     1.0000 0.88140  0.71810  0.37390  Biso   1.000  O
  O276     1.0000 0.61860  0.21810  0.62610  Biso   1.000  O
  O277     1.0000 0.39580  0.08460  0.73180  Biso   1.000  O
  O278     1.0000 0.10420  0.58460  0.26820  Biso   1.000  O
  O279     1.0000 0.60420  0.91540  0.26820  Biso   1.000  O
  O280     1.0000 0.89580  0.41540  0.73180  Biso   1.000  O
  O281     1.0000 0.30370  0.10600  0.79730  Biso   1.000  O
  O282     1.0000 0.19630  0.60600  0.20270  Biso   1.000  O
  O283     1.0000 0.69630  0.89400  0.20270  Biso   1.000  O
  O284     1.0000 0.80370  0.39400  0.79730  Biso   1.000  O
  O285     1.0000 0.11540  0.07400  0.66330  Biso   1.000  O
  O286     1.0000 0.38460  0.57400  0.33670  Biso   1.000  O
  O287     1.0000 0.88460  0.92600  0.33670  Biso   1.000  O
  O288     1.0000 0.61540  0.42600  0.66330  Biso   1.000  O
  O289     1.0000 0.10870  0.04320  0.20210  Biso   1.000  O
  O290     1.0000 0.39130  0.54320  0.79790  Biso   1.000  O
  O291     1.0000 0.89130  0.95680  0.79790  Biso   1.000  O
  O292     1.0000 0.60870  0.45680  0.20210  Biso   1.000  O
  O293     1.0000 0.39570  0.05340  0.25680  Biso   1.000  O
  O294     1.0000 0.10430  0.55340  0.74320  Biso   1.000  O
  O295     1.0000 0.60430  0.94660  0.74320  Biso   1.000  O
  O296     1.0000 0.89570  0.44660  0.25680  Biso   1.000  O
  O297     1.0000 0.49830  0.13160  0.29200  Biso   1.000  O
  O298     1.0000 0.00170  0.63160  0.70800  Biso   1.000  O
  O299     1.0000 0.50170  0.86840  0.70800  Biso   1.000  O
  O300     1.0000 0.99830  0.36840  0.29200  Biso   1.000  O
  O301     1.0000 0.99880  0.11060  0.20340  Biso   1.000  O
  O302     1.0000 0.50120  0.61060  0.79660  Biso   1.000  O
  O303     1.0000 0.00120  0.88940  0.79660  Biso   1.000  O
  O304     1.0000 0.49880  0.38940  0.20340  Biso   1.000  O
  O305     1.0000 0.30890  0.24840  0.17450  Biso   1.000  O
  O306     1.0000 0.19110  0.74840  0.82550  Biso   1.000  O
  O307     1.0000 0.69110  0.75160  0.82550  Biso   1.000  O
  O308     1.0000 0.80890  0.25160  0.17450  Biso   1.000  O
  O309     1.0000 0.12850  0.95220  0.13220  Biso   1.000  O
  O310     1.0000 0.37150  0.45220  0.86780  Biso   1.000  O
  O311     1.0000 0.87150  0.04780  0.86780  Biso   1.000  O
  O312     1.0000 0.62850  0.54780  0.13220  Biso   1.000  O
  O313     1.0000 0.08850  0.02870  0.75150  Biso   1.000  O
  O314     1.0000 0.41150  0.52870  0.24850  Biso   1.000  O
  O315     1.0000 0.91150  0.97130  0.24850  Biso   1.000  O
  O316     1.0000 0.58850  0.47130  0.75150  Biso   1.000  O
  O317     1.0000 0.11120  0.15820  0.17590  Biso   1.000  O
  O318     1.0000 0.38880  0.65820  0.82410  Biso   1.000  O
  O319     1.0000 0.88880  0.84180  0.82410  Biso   1.000  O
  O320     1.0000 0.61120  0.34180  0.17590  Biso   1.000  O
  O321     1.0000 0.01800  0.46360  0.21390  Biso   1.000  O
  O322     1.0000 0.48200  0.96360  0.78610  Biso   1.000  O
  O323     1.0000 0.98200  0.53640  0.78610  Biso   1.000  O
  O324     1.0000 0.51800  0.03640  0.21390  Biso   1.000  O
  O325     1.0000 0.07420  0.32770  0.13540  Biso   1.000  O
  O326     1.0000 0.42580  0.82770  0.86460  Biso   1.000  O
  O327     1.0000 0.92580  0.67230  0.86460  Biso   1.000  O
  O328     1.0000 0.57420  0.17230  0.13540  Biso   1.000  O
  O329     1.0000 0.48380  0.77180  0.27260  Biso   1.000  O
  O330     1.0000 0.01620  0.27180  0.72740  Biso   1.000  O
  O331     1.0000 0.51620  0.22820  0.72740  Biso   1.000  O
  O332     1.0000 0.98380  0.72820  0.27260  Biso   1.000  O
  O333     1.0000 0.46100  0.93800  0.30450  Biso   1.000  O
  O334     1.0000 0.03900  0.43800  0.69550  Biso   1.000  O
  O335     1.0000 0.53900  0.06200  0.69550  Biso   1.000  O
  O336     1.0000 0.96100  0.56200  0.30450  Biso   1.000  O
  O337     1.0000 0.09250  0.82400  0.13110  Biso   1.000  O
  O338     1.0000 0.40750  0.32400  0.86890  Biso   1.000  O
  O339     1.0000 0.90750  0.17600  0.86890  Biso   1.000  O
  O340     1.0000 0.59250  0.67600  0.13110  Biso   1.000  O
  O341     1.0000 0.42800  0.39100  0.30410  Biso   1.000  O
  O342     1.0000 0.07200  0.89100  0.69590  Biso   1.000  O
  O343     1.0000 0.57200  0.60900  0.69590  Biso   1.000  O
  O344     1.0000 0.92800  0.10900  0.30410  Biso   1.000  O
  O345     1.0000 0.00500  0.26840  0.20170  Biso   1.000  O
  O346     1.0000 0.49500  0.76840  0.79830  Biso   1.000  O
  O347     1.0000 0.99500  0.73160  0.79830  Biso   1.000  O
  O348     1.0000 0.50500  0.23160  0.20170  Biso   1.000  O
  O349     1.0000 0.01800  0.95000  0.19700  Biso   1.000  O
  O350     1.0000 0.48200  0.45000  0.80300  Biso   1.000  O
  O351     1.0000 0.98200  0.05000  0.80300  Biso   1.000  O
  O352     1.0000 0.51800  0.55000  0.19700  Biso   1.000  O
  N1       1.0000 0.24480  0.06970  0.00660  Biso   1.000  N
  N2       1.0000 0.25520  0.56970  0.99340  Biso   1.000  N
  N3       1.0000 0.75520  0.93030  0.99340  Biso   1.000  N
  N4       1.0000 0.74480  0.43030  0.00660  Biso   1.000  N
  N5       1.0000 0.06750  0.58750  0.95920  Biso   1.000  N
  N6       1.0000 0.43250  0.08750  0.04080  Biso   1.000  N
  N7       1.0000 0.93250  0.41250  0.04080  Biso   1.000  N
  N8       1.0000 0.56750  0.91250  0.95920  Biso   1.000  N
  N9       1.0000 0.06370  0.97850  0.47170  Biso   1.000  N
  N10      1.0000 0.43630  0.47850  0.52830  Biso   1.000  N
  N11      1.0000 0.93630  0.02150  0.52830  Biso   1.000  N
  N12      1.0000 0.56370  0.52150  0.47170  Biso   1.000  N
  N13      1.0000 0.43760  0.15140  0.54670  Biso   1.000  N
  N14      1.0000 0.06240  0.65140  0.45330  Biso   1.000  N
  N15      1.0000 0.56240  0.84860  0.45330  Biso   1.000  N
  N16      1.0000 0.93760  0.34860  0.54670  Biso   1.000  N
  N17      1.0000 0.25860  0.16530  0.50800  Biso   1.000  N
  N18      1.0000 0.24140  0.66530  0.49200  Biso   1.000  N
  N19      1.0000 0.74140  0.83470  0.49200  Biso   1.000  N
  N20      1.0000 0.75860  0.33470  0.50800  Biso   1.000  N
  N21      1.0000 0.43610  0.97590  0.54870  Biso   1.000  N
  N22      1.0000 0.06390  0.47590  0.45130  Biso   1.000  N
  N23      1.0000 0.56390  0.02410  0.45130  Biso   1.000  N
  N24      1.0000 0.93610  0.52410  0.54870  Biso   1.000  N
  N25      1.0000 0.06580  0.15210  0.46610  Biso   1.000  N
  N26      1.0000 0.43420  0.65210  0.53390  Biso   1.000  N
  N27      1.0000 0.93420  0.84790  0.53390  Biso   1.000  N
  N28      1.0000 0.56580  0.34790  0.46610  Biso   1.000  N
  N29      1.0000 0.26050  0.99410  0.50810  Biso   1.000  N
  N30      1.0000 0.23950  0.49410  0.49190  Biso   1.000  N
  N31      1.0000 0.73950  0.00590  0.49190  Biso   1.000  N
  N32      1.0000 0.76050  0.50590  0.50810  Biso   1.000  N
  N33      1.0000 0.07120  0.76310  0.95910  Biso   1.000  N
  N34      1.0000 0.42880  0.26310  0.04090  Biso   1.000  N
  N35      1.0000 0.92880  0.23690  0.04090  Biso   1.000  N
  N36      1.0000 0.57120  0.73690  0.95910  Biso   1.000  N
  N37      1.0000 0.24440  0.24580  0.00250  Biso   1.000  N
  N38      1.0000 0.25560  0.74580  0.99750  Biso   1.000  N
  N39      1.0000 0.75560  0.75420  0.99750  Biso   1.000  N
  N40      1.0000 0.74440  0.25420  0.00250  Biso   1.000  N
  N41      1.0000 0.06450  0.26160  0.96830  Biso   1.000  N
  N42      1.0000 0.43550  0.76160  0.03170  Biso   1.000  N
  N43      1.0000 0.93550  0.73840  0.03170  Biso   1.000  N
  N44      1.0000 0.56450  0.23840  0.96830  Biso   1.000  N
  N45      1.0000 0.07040  0.08530  0.97220  Biso   1.000  N
  N46      1.0000 0.42960  0.58530  0.02780  Biso   1.000  N
  N47      1.0000 0.92960  0.91470  0.02780  Biso   1.000  N
  N48      1.0000 0.57040  0.41470  0.97220  Biso   1.000  N
  C1       1.0000 0.25300  0.96500  0.45990  Biso   1.000  C
  C2       1.0000 0.24700  0.46500  0.54010  Biso   1.000  C
  C3       1.0000 0.74700  0.03500  0.54010  Biso   1.000  C
  C4       1.0000 0.75300  0.53500  0.45990  Biso   1.000  C
  H1       1.0000 0.25050  0.98800  0.43060  Biso   1.000  H
  H2       1.0000 0.24950  0.48800  0.56940  Biso   1.000  H
  H3       1.0000 0.74950  0.01200  0.56940  Biso   1.000  H
  H4       1.0000 0.75050  0.51200  0.43060  Biso   1.000  H
  C5       1.0000 0.26150  0.34470  0.04470  Biso   1.000  C
  C6       1.0000 0.23850  0.84470  0.95530  Biso   1.000  C
  C7       1.0000 0.73850  0.65530  0.95530  Biso   1.000  C
  C8       1.0000 0.76150  0.15530  0.04470  Biso   1.000  C
  H5       1.0000 0.27490  0.36460  0.07540  Biso   1.000  H
  H6       1.0000 0.22510  0.86460  0.92460  Biso   1.000  H
  H7       1.0000 0.72510  0.63540  0.92460  Biso   1.000  H
  H8       1.0000 0.77490  0.13540  0.07540  Biso   1.000  H
  C9       1.0000 0.25600  0.28590  0.04420  Biso   1.000  C
  C10      1.0000 0.24400  0.78590  0.95580  Biso   1.000  C
  C11      1.0000 0.74400  0.71410  0.95580  Biso   1.000  C
  C12      1.0000 0.75600  0.21410  0.04420  Biso   1.000  C
  H9       1.0000 0.26040  0.26740  0.07560  Biso   1.000  H
  H10      1.0000 0.23960  0.76740  0.92440  Biso   1.000  H
  H11      1.0000 0.73960  0.73260  0.92440  Biso   1.000  H
  H12      1.0000 0.76040  0.23260  0.07560  Biso   1.000  H
  C13      1.0000 0.23960  0.27490  0.96120  Biso   1.000  C
  C14      1.0000 0.26040  0.77490  0.03880  Biso   1.000  C
  C15      1.0000 0.76040  0.72510  0.03880  Biso   1.000  C
  C16      1.0000 0.73960  0.22510  0.96120  Biso   1.000  C
  H13      1.0000 0.23870  0.25260  0.93180  Biso   1.000  H
  H14      1.0000 0.26130  0.75260  0.06820  Biso   1.000  H
  H15      1.0000 0.76130  0.74740  0.06820  Biso   1.000  H
  H16      1.0000 0.73870  0.24740  0.93180  Biso   1.000  H
  C17      1.0000 0.23900  0.47950  0.95500  Biso   1.000  C
  C18      1.0000 0.26100  0.97950  0.04500  Biso   1.000  C
  C19      1.0000 0.76100  0.52050  0.04500  Biso   1.000  C
  C20      1.0000 0.73900  0.02050  0.95500  Biso   1.000  C
  H17      1.0000 0.22900  0.45760  0.92500  Biso   1.000  H
  H18      1.0000 0.27100  0.95760  0.07500  Biso   1.000  H
  H19      1.0000 0.77100  0.54240  0.07500  Biso   1.000  H
  H20      1.0000 0.72900  0.04240  0.92500  Biso   1.000  H
  C21      1.0000 0.25080  0.44290  0.99750  Biso   1.000  C
  C22      1.0000 0.24920  0.94290  0.00250  Biso   1.000  C
  C23      1.0000 0.74920  0.55710  0.00250  Biso   1.000  C
  C24      1.0000 0.75080  0.05710  0.99750  Biso   1.000  C
  C25      1.0000 0.26820  0.47760  0.04030  Biso   1.000  C
  C26      1.0000 0.23180  0.97760  0.95970  Biso   1.000  C
  C27      1.0000 0.73180  0.52240  0.95970  Biso   1.000  C
  C28      1.0000 0.76820  0.02240  0.04030  Biso   1.000  C
  H21      1.0000 0.28090  0.45850  0.07140  Biso   1.000  H
  H22      1.0000 0.21910  0.95850  0.92860  Biso   1.000  H
  H23      1.0000 0.71910  0.54150  0.92860  Biso   1.000  H
  H24      1.0000 0.78090  0.04150  0.07140  Biso   1.000  H
  C29      1.0000 0.24840  0.37840  0.00210  Biso   1.000  C
  C30      1.0000 0.25160  0.87840  0.99790  Biso   1.000  C
  C31      1.0000 0.75160  0.62160  0.99790  Biso   1.000  C
  C32      1.0000 0.74840  0.12160  0.00210  Biso   1.000  C
  C33      1.0000 0.23560  0.33950  0.95800  Biso   1.000  C
  C34      1.0000 0.26440  0.83950  0.04200  Biso   1.000  C
  C35      1.0000 0.76440  0.66050  0.04200  Biso   1.000  C
  C36      1.0000 0.73560  0.16050  0.95800  Biso   1.000  C
  H25      1.0000 0.22430  0.35770  0.92640  Biso   1.000  H
  H26      1.0000 0.27570  0.85770  0.07360  Biso   1.000  H
  H27      1.0000 0.77570  0.64230  0.07360  Biso   1.000  H
  H28      1.0000 0.72430  0.14230  0.92640  Biso   1.000  H
  C37      1.0000 0.08500  0.55610  0.00050  Biso   1.000  C
  C38      1.0000 0.41500  0.05610  0.99950  Biso   1.000  C
  C39      1.0000 0.91500  0.44390  0.99950  Biso   1.000  C
  C40      1.0000 0.58500  0.94390  0.00050  Biso   1.000  C
  H29      1.0000 0.40190  0.07830  0.96980  Biso   1.000  H
  H30      1.0000 0.09810  0.57830  0.03020  Biso   1.000  H
  H31      1.0000 0.59810  0.92170  0.03020  Biso   1.000  H
  H32      1.0000 0.90190  0.42170  0.96980  Biso   1.000  H
  C41      1.0000 0.41430  0.99460  0.99550  Biso   1.000  C
  C42      1.0000 0.08570  0.49460  0.00450  Biso   1.000  C
  C43      1.0000 0.58570  0.00540  0.00450  Biso   1.000  C
  C44      1.0000 0.91430  0.50540  0.99550  Biso   1.000  C
  H33      1.0000 0.40000  0.97640  0.96420  Biso   1.000  H
  H34      1.0000 0.10000  0.47640  0.03580  Biso   1.000  H
  H35      1.0000 0.60000  0.02360  0.03580  Biso   1.000  H
  H36      1.0000 0.90000  0.52360  0.96420  Biso   1.000  H
  C45      1.0000 0.43440  0.95800  0.03740  Biso   1.000  C
  C46      1.0000 0.06560  0.45800  0.96260  Biso   1.000  C
  C47      1.0000 0.56560  0.04200  0.96260  Biso   1.000  C
  C48      1.0000 0.93440  0.54200  0.03740  Biso   1.000  C
  C49      1.0000 0.45800  0.98850  0.08290  Biso   1.000  C
  C50      1.0000 0.04200  0.48850  0.91710  Biso   1.000  C
  C51      1.0000 0.54200  0.01150  0.91710  Biso   1.000  C
  C52      1.0000 0.95800  0.51150  0.08290  Biso   1.000  C
  H37      1.0000 0.47840  0.96730  0.11160  Biso   1.000  H
  H38      1.0000 0.02160  0.46730  0.88840  Biso   1.000  H
  H39      1.0000 0.52160  0.03270  0.88840  Biso   1.000  H
  H40      1.0000 0.97840  0.53270  0.11160  Biso   1.000  H
  C53      1.0000 0.23690  0.39680  0.45220  Biso   1.000  C
  C54      1.0000 0.26310  0.89680  0.54780  Biso   1.000  C
  C55      1.0000 0.76310  0.60320  0.54780  Biso   1.000  C
  C56      1.0000 0.73690  0.10320  0.45220  Biso   1.000  C
  H41      1.0000 0.23480  0.37620  0.42180  Biso   1.000  H
  H42      1.0000 0.26520  0.87620  0.57820  Biso   1.000  H
  H43      1.0000 0.76520  0.62380  0.57820  Biso   1.000  H
  H44      1.0000 0.73480  0.12380  0.42180  Biso   1.000  H
  C57      1.0000 0.24440  0.36370  0.49860  Biso   1.000  C
  C58      1.0000 0.25560  0.86370  0.50140  Biso   1.000  C
  C59      1.0000 0.75560  0.63630  0.50140  Biso   1.000  C
  C60      1.0000 0.74440  0.13630  0.49860  Biso   1.000  C
  C61      1.0000 0.26920  0.26700  0.54730  Biso   1.000  C
  C62      1.0000 0.23080  0.76700  0.45270  Biso   1.000  C
  C63      1.0000 0.73080  0.73300  0.45270  Biso   1.000  C
  C64      1.0000 0.76920  0.23300  0.54730  Biso   1.000  C
  H45      1.0000 0.28310  0.28800  0.57740  Biso   1.000  H
  H46      1.0000 0.21690  0.78800  0.42260  Biso   1.000  H
  H47      1.0000 0.71690  0.71200  0.42260  Biso   1.000  H
  H48      1.0000 0.78310  0.21200  0.57740  Biso   1.000  H
  C65      1.0000 0.24610  0.29430  0.49990  Biso   1.000  C
  C66      1.0000 0.25390  0.79430  0.50010  Biso   1.000  C
  C67      1.0000 0.75390  0.70570  0.50010  Biso   1.000  C
  C68      1.0000 0.74610  0.20570  0.49990  Biso   1.000  C
  C69      1.0000 0.23680  0.25900  0.45900  Biso   1.000  C
  C70      1.0000 0.26320  0.75900  0.54100  Biso   1.000  C
  C71      1.0000 0.76320  0.74100  0.54100  Biso   1.000  C
  C72      1.0000 0.73680  0.24100  0.45900  Biso   1.000  C
  H49      1.0000 0.22750  0.27680  0.42720  Biso   1.000  H
  H50      1.0000 0.27250  0.77680  0.57280  Biso   1.000  H
  H51      1.0000 0.77250  0.72320  0.57280  Biso   1.000  H
  H52      1.0000 0.72750  0.22320  0.42720  Biso   1.000  H
  C73      1.0000 0.05940  0.85020  0.46610  Biso   1.000  C
  C74      1.0000 0.44060  0.35020  0.53390  Biso   1.000  C
  C75      1.0000 0.94060  0.14980  0.53390  Biso   1.000  C
  C76      1.0000 0.55940  0.64980  0.46610  Biso   1.000  C
  C77      1.0000 0.05760  0.78090  0.46330  Biso   1.000  C
  C78      1.0000 0.44240  0.28090  0.53670  Biso   1.000  C
  C79      1.0000 0.94240  0.21910  0.53670  Biso   1.000  C
  C80      1.0000 0.55760  0.71910  0.46330  Biso   1.000  C
  C81      1.0000 0.07900  0.74270  0.50300  Biso   1.000  C
  C82      1.0000 0.42100  0.24270  0.49700  Biso   1.000  C
  C83      1.0000 0.92100  0.25730  0.49700  Biso   1.000  C
  C84      1.0000 0.57900  0.75730  0.50300  Biso   1.000  C
  H53      1.0000 0.09560  0.75940  0.53460  Biso   1.000  H
  H54      1.0000 0.40440  0.25940  0.46540  Biso   1.000  H
  H55      1.0000 0.90440  0.24060  0.46540  Biso   1.000  H
  H56      1.0000 0.59560  0.74060  0.53460  Biso   1.000  H
  C85      1.0000 0.26100  0.03910  0.05130  Biso   1.000  C
  C86      1.0000 0.23900  0.53910  0.94870  Biso   1.000  C
  C87      1.0000 0.73900  0.96090  0.94870  Biso   1.000  C
  C88      1.0000 0.76100  0.46090  0.05130  Biso   1.000  C
  H57      1.0000 0.27030  0.05830  0.08260  Biso   1.000  H
  H58      1.0000 0.22970  0.55830  0.91740  Biso   1.000  H
  H59      1.0000 0.72970  0.94170  0.91740  Biso   1.000  H
  H60      1.0000 0.77030  0.44170  0.08260  Biso   1.000  H
  C89      1.0000 0.43560  0.88990  0.03280  Biso   1.000  C
  C90      1.0000 0.06440  0.38990  0.96720  Biso   1.000  C
  C91      1.0000 0.56440  0.11010  0.96720  Biso   1.000  C
  C92      1.0000 0.93560  0.61010  0.03280  Biso   1.000  C
  C93      1.0000 0.41910  0.86110  0.98720  Biso   1.000  C
  C94      1.0000 0.08090  0.36110  0.01280  Biso   1.000  C
  C95      1.0000 0.58090  0.13890  0.01280  Biso   1.000  C
  C96      1.0000 0.91910  0.63890  0.98720  Biso   1.000  C
  H61      1.0000 0.40700  0.88240  0.95700  Biso   1.000  H
  H62      1.0000 0.09300  0.38240  0.04300  Biso   1.000  H
  H63      1.0000 0.59300  0.11760  0.04300  Biso   1.000  H
  H64      1.0000 0.90700  0.61760  0.95700  Biso   1.000  H
  C97      1.0000 0.08990  0.94170  0.51160  Biso   1.000  C
  C98      1.0000 0.41010  0.44170  0.48840  Biso   1.000  C
  C99      1.0000 0.91010  0.05830  0.48840  Biso   1.000  C
  C100     1.0000 0.58990  0.55830  0.51160  Biso   1.000  C
  H65      1.0000 0.10820  0.96070  0.54180  Biso   1.000  H
  H66      1.0000 0.39180  0.46070  0.45820  Biso   1.000  H
  H67      1.0000 0.89180  0.03930  0.45820  Biso   1.000  H
  H68      1.0000 0.60820  0.53930  0.54180  Biso   1.000  H
  C101     1.0000 0.09100  0.87950  0.50990  Biso   1.000  C
  C102     1.0000 0.40900  0.37950  0.49010  Biso   1.000  C
  C103     1.0000 0.90900  0.12050  0.49010  Biso   1.000  C
  C104     1.0000 0.59100  0.62050  0.50990  Biso   1.000  C
  H69      1.0000 0.11230  0.85690  0.53740  Biso   1.000  H
  H70      1.0000 0.38770  0.35690  0.46260  Biso   1.000  H
  H71      1.0000 0.88770  0.14310  0.46260  Biso   1.000  H
  H72      1.0000 0.61230  0.64310  0.53740  Biso   1.000  H
  C105     1.0000 0.09080  0.18510  0.50520  Biso   1.000  C
  C106     1.0000 0.40920  0.68510  0.49480  Biso   1.000  C
  C107     1.0000 0.90920  0.81490  0.49480  Biso   1.000  C
  C108     1.0000 0.59080  0.31490  0.50520  Biso   1.000  C
  H73      1.0000 0.10910  0.16540  0.53510  Biso   1.000  H
  H74      1.0000 0.39090  0.66540  0.46490  Biso   1.000  H
  H75      1.0000 0.89090  0.83460  0.46490  Biso   1.000  H
  H76      1.0000 0.60910  0.33460  0.53510  Biso   1.000  H
  C109     1.0000 0.26780  0.20810  0.54210  Biso   1.000  C
  C110     1.0000 0.23220  0.70810  0.45790  Biso   1.000  C
  C111     1.0000 0.73220  0.79190  0.45790  Biso   1.000  C
  C112     1.0000 0.76780  0.29190  0.54210  Biso   1.000  C
  H77      1.0000 0.27640  0.19000  0.57380  Biso   1.000  H
  H78      1.0000 0.22360  0.69000  0.42620  Biso   1.000  H
  H79      1.0000 0.72360  0.81000  0.42620  Biso   1.000  H
  H80      1.0000 0.77640  0.31000  0.57380  Biso   1.000  H
  C113     1.0000 0.24080  0.19580  0.46360  Biso   1.000  C
  C114     1.0000 0.25920  0.69580  0.53640  Biso   1.000  C
  C115     1.0000 0.75920  0.80420  0.53640  Biso   1.000  C
  C116     1.0000 0.74080  0.30420  0.46360  Biso   1.000  C
  H81      1.0000 0.23070  0.17250  0.43420  Biso   1.000  H
  H82      1.0000 0.26930  0.67250  0.56580  Biso   1.000  H
  H83      1.0000 0.76930  0.82750  0.56580  Biso   1.000  H
  H84      1.0000 0.73070  0.32750  0.43420  Biso   1.000  H
  C117     1.0000 0.42920  0.94600  0.50280  Biso   1.000  C
  C118     1.0000 0.07080  0.44600  0.49720  Biso   1.000  C
  C119     1.0000 0.57080  0.05400  0.49720  Biso   1.000  C
  C120     1.0000 0.92920  0.55400  0.50280  Biso   1.000  C
  H85      1.0000 0.42140  0.96930  0.47340  Biso   1.000  H
  H86      1.0000 0.07860  0.46930  0.52660  Biso   1.000  H
  H87      1.0000 0.57860  0.03070  0.52660  Biso   1.000  H
  H88      1.0000 0.92140  0.53070  0.47340  Biso   1.000  H
  C121     1.0000 0.43340  0.88420  0.49910  Biso   1.000  C
  C122     1.0000 0.06660  0.38420  0.50090  Biso   1.000  C
  C123     1.0000 0.56660  0.11580  0.50090  Biso   1.000  C
  C124     1.0000 0.93340  0.61580  0.49910  Biso   1.000  C
  H89      1.0000 0.43330  0.86590  0.46810  Biso   1.000  H
  H90      1.0000 0.06670  0.36590  0.53190  Biso   1.000  H
  H91      1.0000 0.56670  0.13410  0.53190  Biso   1.000  H
  H92      1.0000 0.93330  0.63410  0.46810  Biso   1.000  H
  C125     1.0000 0.43780  0.84900  0.54140  Biso   1.000  C
  C126     1.0000 0.06220  0.34900  0.45860  Biso   1.000  C
  C127     1.0000 0.56220  0.15100  0.45860  Biso   1.000  C
  C128     1.0000 0.93780  0.65100  0.54140  Biso   1.000  C
  C129     1.0000 0.25090  0.90000  0.45840  Biso   1.000  C
  C130     1.0000 0.24910  0.40000  0.54160  Biso   1.000  C
  C131     1.0000 0.74910  0.10000  0.54160  Biso   1.000  C
  C132     1.0000 0.75090  0.60000  0.45840  Biso   1.000  C
  H93      1.0000 0.24600  0.88060  0.42720  Biso   1.000  H
  H94      1.0000 0.25400  0.38060  0.57280  Biso   1.000  H
  H95      1.0000 0.75400  0.11940  0.57280  Biso   1.000  H
  H96      1.0000 0.74600  0.61940  0.42720  Biso   1.000  H
  C133     1.0000 0.45350  0.19140  0.58460  Biso   1.000  C
  C134     1.0000 0.04650  0.69140  0.41540  Biso   1.000  C
  C135     1.0000 0.54650  0.80860  0.41540  Biso   1.000  C
  C136     1.0000 0.95350  0.30860  0.58460  Biso   1.000  C
  H97      1.0000 0.46360  0.17370  0.61640  Biso   1.000  H
  H98      1.0000 0.03640  0.67370  0.38360  Biso   1.000  H
  H99      1.0000 0.53640  0.82630  0.38360  Biso   1.000  H
  H100     1.0000 0.96360  0.32630  0.61640  Biso   1.000  H
  C137     1.0000 0.42340  0.18030  0.50240  Biso   1.000  C
  C138     1.0000 0.07660  0.68030  0.49760  Biso   1.000  C
  C139     1.0000 0.57660  0.81970  0.49760  Biso   1.000  C
  C140     1.0000 0.92340  0.31970  0.50240  Biso   1.000  C
  H101     1.0000 0.41460  0.15650  0.47330  Biso   1.000  H
  H102     1.0000 0.08540  0.65650  0.52670  Biso   1.000  H
  H103     1.0000 0.58540  0.84350  0.52670  Biso   1.000  H
  H104     1.0000 0.91460  0.34350  0.47330  Biso   1.000  H
  C141     1.0000 0.43330  0.94470  0.59080  Biso   1.000  C
  C142     1.0000 0.06670  0.44470  0.40920  Biso   1.000  C
  C143     1.0000 0.56670  0.05530  0.40920  Biso   1.000  C
  C144     1.0000 0.93330  0.55530  0.59080  Biso   1.000  C
  H105     1.0000 0.42840  0.96390  0.62040  Biso   1.000  H
  H106     1.0000 0.07160  0.46390  0.37960  Biso   1.000  H
  H107     1.0000 0.57160  0.03610  0.37960  Biso   1.000  H
  H108     1.0000 0.92840  0.53610  0.62040  Biso   1.000  H
  C145     1.0000 0.43840  0.87800  0.58660  Biso   1.000  C
  C146     1.0000 0.06160  0.37800  0.41340  Biso   1.000  C
  C147     1.0000 0.56160  0.12200  0.41340  Biso   1.000  C
  C148     1.0000 0.93840  0.62200  0.58660  Biso   1.000  C
  H109     1.0000 0.44210  0.85430  0.61560  Biso   1.000  H
  H110     1.0000 0.05790  0.35430  0.38440  Biso   1.000  H
  H111     1.0000 0.55790  0.14570  0.38440  Biso   1.000  H
  H112     1.0000 0.94210  0.64570  0.61560  Biso   1.000  H
  C149     1.0000 0.43560  0.77960  0.54110  Biso   1.000  C
  C150     1.0000 0.06440  0.27960  0.45890  Biso   1.000  C
  C151     1.0000 0.56440  0.22040  0.45890  Biso   1.000  C
  C152     1.0000 0.93560  0.72040  0.54110  Biso   1.000  C
  C153     1.0000 0.45710  0.74630  0.57860  Biso   1.000  C
  C154     1.0000 0.04290  0.24630  0.42140  Biso   1.000  C
  C155     1.0000 0.54290  0.25370  0.42140  Biso   1.000  C
  C156     1.0000 0.95710  0.75370  0.57860  Biso   1.000  C
  H113     1.0000 0.47210  0.76440  0.60980  Biso   1.000  H
  H114     1.0000 0.02790  0.26440  0.39020  Biso   1.000  H
  H115     1.0000 0.52790  0.23560  0.39020  Biso   1.000  H
  H116     1.0000 0.97210  0.73560  0.60980  Biso   1.000  H
  C157     1.0000 0.02960  0.94890  0.43020  Biso   1.000  C
  C158     1.0000 0.47040  0.44890  0.56980  Biso   1.000  C
  C159     1.0000 0.97040  0.05110  0.56980  Biso   1.000  C
  C160     1.0000 0.52960  0.55110  0.43020  Biso   1.000  C
  H117     1.0000 0.00700  0.97120  0.40300  Biso   1.000  H
  H118     1.0000 0.49300  0.47120  0.59700  Biso   1.000  H
  H119     1.0000 0.99300  0.02880  0.59700  Biso   1.000  H
  H120     1.0000 0.50700  0.52880  0.40300  Biso   1.000  H
  C161     1.0000 0.09110  0.24800  0.50380  Biso   1.000  C
  C162     1.0000 0.40890  0.74800  0.49620  Biso   1.000  C
  C163     1.0000 0.90890  0.75200  0.49620  Biso   1.000  C
  C164     1.0000 0.59110  0.25200  0.50380  Biso   1.000  C
  H121     1.0000 0.10900  0.27000  0.53260  Biso   1.000  H
  H122     1.0000 0.39100  0.77000  0.46740  Biso   1.000  H
  H123     1.0000 0.89100  0.73000  0.46740  Biso   1.000  H
  H124     1.0000 0.60900  0.23000  0.53260  Biso   1.000  H
  C165     1.0000 0.05080  0.55510  0.91650  Biso   1.000  C
  C166     1.0000 0.44920  0.05510  0.08350  Biso   1.000  C
  C167     1.0000 0.94920  0.44490  0.08350  Biso   1.000  C
  C168     1.0000 0.55080  0.94490  0.91650  Biso   1.000  C
  H125     1.0000 0.45530  0.07550  0.11420  Biso   1.000  H
  H126     1.0000 0.04470  0.57550  0.88580  Biso   1.000  H
  H127     1.0000 0.54470  0.92450  0.88580  Biso   1.000  H
  H128     1.0000 0.95530  0.42450  0.11420  Biso   1.000  H
  C169     1.0000 0.44610  0.36020  0.08290  Biso   1.000  C
  C170     1.0000 0.05390  0.86020  0.91710  Biso   1.000  C
  C171     1.0000 0.55390  0.63980  0.91710  Biso   1.000  C
  C172     1.0000 0.94610  0.13980  0.08290  Biso   1.000  C
  H129     1.0000 0.45390  0.38190  0.11310  Biso   1.000  H
  H130     1.0000 0.04610  0.88190  0.88690  Biso   1.000  H
  H131     1.0000 0.54610  0.61810  0.88690  Biso   1.000  H
  H132     1.0000 0.95390  0.11810  0.11310  Biso   1.000  H
  C173     1.0000 0.43320  0.39120  0.03920  Biso   1.000  C
  C174     1.0000 0.06680  0.89120  0.96080  Biso   1.000  C
  C175     1.0000 0.56680  0.60880  0.96080  Biso   1.000  C
  C176     1.0000 0.93320  0.10880  0.03920  Biso   1.000  C
  C177     1.0000 0.04260  0.75170  0.41560  Biso   1.000  C
  C178     1.0000 0.45740  0.25170  0.58440  Biso   1.000  C
  C179     1.0000 0.95740  0.24830  0.58440  Biso   1.000  C
  C180     1.0000 0.54260  0.74830  0.41560  Biso   1.000  C
  H133     1.0000 0.03070  0.77410  0.38590  Biso   1.000  H
  H134     1.0000 0.46930  0.27410  0.61410  Biso   1.000  H
  H135     1.0000 0.96930  0.22590  0.61410  Biso   1.000  H
  H136     1.0000 0.53070  0.72590  0.38590  Biso   1.000  H
  C181     1.0000 0.43800  0.85840  0.07750  Biso   1.000  C
  C182     1.0000 0.06200  0.35840  0.92250  Biso   1.000  C
  C183     1.0000 0.56200  0.14160  0.92250  Biso   1.000  C
  C184     1.0000 0.93800  0.64160  0.07750  Biso   1.000  C
  H137     1.0000 0.43570  0.87730  0.10780  Biso   1.000  H
  H138     1.0000 0.06430  0.37730  0.89220  Biso   1.000  H
  H139     1.0000 0.56430  0.12270  0.89220  Biso   1.000  H
  H140     1.0000 0.93570  0.62270  0.10780  Biso   1.000  H
  C185     1.0000 0.05700  0.29300  0.92830  Biso   1.000  C
  C186     1.0000 0.44300  0.79300  0.07170  Biso   1.000  C
  C187     1.0000 0.94300  0.70700  0.07170  Biso   1.000  C
  C188     1.0000 0.55700  0.20700  0.92830  Biso   1.000  C
  H141     1.0000 0.04580  0.27080  0.89850  Biso   1.000  H
  H142     1.0000 0.45420  0.77080  0.10150  Biso   1.000  H
  H143     1.0000 0.95420  0.72920  0.10150  Biso   1.000  H
  H144     1.0000 0.54580  0.22920  0.89850  Biso   1.000  H
  C189     1.0000 0.07850  0.30120  0.01060  Biso   1.000  C
  C190     1.0000 0.42150  0.80120  0.98940  Biso   1.000  C
  C191     1.0000 0.92150  0.69880  0.98940  Biso   1.000  C
  C192     1.0000 0.57850  0.19880  0.01060  Biso   1.000  C
  H145     1.0000 0.08730  0.28150  0.04170  Biso   1.000  H
  H146     1.0000 0.41270  0.78150  0.95830  Biso   1.000  H
  H147     1.0000 0.91270  0.71850  0.95830  Biso   1.000  H
  H148     1.0000 0.58730  0.21850  0.04170  Biso   1.000  H
  C193     1.0000 0.42390  0.29140  0.99850  Biso   1.000  C
  C194     1.0000 0.07610  0.79140  0.00150  Biso   1.000  C
  C195     1.0000 0.57610  0.70860  0.00150  Biso   1.000  C
  C196     1.0000 0.92390  0.20860  0.99850  Biso   1.000  C
  H149     1.0000 0.42000  0.26870  0.96890  Biso   1.000  H
  H150     1.0000 0.08000  0.76870  0.03110  Biso   1.000  H
  H151     1.0000 0.58000  0.73130  0.03110  Biso   1.000  H
  H152     1.0000 0.92000  0.23130  0.96890  Biso   1.000  H
  C197     1.0000 0.42420  0.35370  0.99620  Biso   1.000  C
  C198     1.0000 0.07580  0.85370  0.00380  Biso   1.000  C
  C199     1.0000 0.57580  0.64630  0.00380  Biso   1.000  C
  C200     1.0000 0.92420  0.14630  0.99620  Biso   1.000  C
  H153     1.0000 0.41820  0.37230  0.96470  Biso   1.000  H
  H154     1.0000 0.08180  0.87230  0.03530  Biso   1.000  H
  H155     1.0000 0.58180  0.62770  0.03530  Biso   1.000  H
  H156     1.0000 0.91820  0.12770  0.96470  Biso   1.000  H
  C201     1.0000 0.45650  0.49700  0.07660  Biso   1.000  C
  C202     1.0000 0.04350  0.99700  0.92340  Biso   1.000  C
  C203     1.0000 0.54350  0.50300  0.92340  Biso   1.000  C
  C204     1.0000 0.95650  0.00300  0.07660  Biso   1.000  C
  H157     1.0000 0.47500  0.47990  0.10760  Biso   1.000  H
  H158     1.0000 0.02500  0.97990  0.89240  Biso   1.000  H
  H159     1.0000 0.52500  0.52010  0.89240  Biso   1.000  H
  H160     1.0000 0.97500  0.02010  0.10760  Biso   1.000  H
  C205     1.0000 0.43270  0.45750  0.03650  Biso   1.000  C
  C206     1.0000 0.06730  0.95750  0.96350  Biso   1.000  C
  C207     1.0000 0.56730  0.54250  0.96350  Biso   1.000  C
  C208     1.0000 0.93270  0.04250  0.03650  Biso   1.000  C
  C209     1.0000 0.41390  0.49060  0.99270  Biso   1.000  C
  C210     1.0000 0.08610  0.99060  0.00730  Biso   1.000  C
  C211     1.0000 0.58610  0.50940  0.00730  Biso   1.000  C
  C212     1.0000 0.91390  0.00940  0.99270  Biso   1.000  C
  H161     1.0000 0.40370  0.46940  0.96240  Biso   1.000  H
  H162     1.0000 0.09630  0.96940  0.03760  Biso   1.000  H
  H163     1.0000 0.59630  0.53060  0.03760  Biso   1.000  H
  H164     1.0000 0.90370  0.03060  0.96240  Biso   1.000  H
  C213     1.0000 0.04610  0.06030  0.92730  Biso   1.000  C
  C214     1.0000 0.45390  0.56030  0.07270  Biso   1.000  C
  C215     1.0000 0.95390  0.93970  0.07270  Biso   1.000  C
  C216     1.0000 0.54610  0.43970  0.92730  Biso   1.000  C
  H165     1.0000 0.03120  0.08490  0.89940  Biso   1.000  H
  H166     1.0000 0.46880  0.58490  0.10060  Biso   1.000  H
  H167     1.0000 0.96880  0.91510  0.10060  Biso   1.000  H
  H168     1.0000 0.53120  0.41510  0.89940  Biso   1.000  H
  C217     1.0000 0.09040  0.05200  0.00830  Biso   1.000  C
  C218     1.0000 0.40960  0.55200  0.99170  Biso   1.000  C
  C219     1.0000 0.90960  0.94800  0.99170  Biso   1.000  C
  C220     1.0000 0.59040  0.44800  0.00830  Biso   1.000  C
  H169     1.0000 0.10980  0.07040  0.03860  Biso   1.000  H
  H170     1.0000 0.39020  0.57040  0.96140  Biso   1.000  H
  H171     1.0000 0.89020  0.92960  0.96140  Biso   1.000  H
  H172     1.0000 0.60980  0.42960  0.03860  Biso   1.000  H
  C221     1.0000 0.26710  0.95880  0.54660  Biso   1.000  C
  C222     1.0000 0.23290  0.45880  0.45340  Biso   1.000  C
  C223     1.0000 0.73290  0.04120  0.45340  Biso   1.000  C
  C224     1.0000 0.76710  0.54120  0.54660  Biso   1.000  C
  H173     1.0000 0.27580  0.97820  0.57780  Biso   1.000  H
  H174     1.0000 0.22420  0.47820  0.42220  Biso   1.000  H
  H175     1.0000 0.72420  0.02180  0.42220  Biso   1.000  H
  H176     1.0000 0.77580  0.52180  0.57780  Biso   1.000  H
  C225     1.0000 0.04100  0.18240  0.42610  Biso   1.000  C
  C226     1.0000 0.45900  0.68240  0.57390  Biso   1.000  C
  C227     1.0000 0.95900  0.81760  0.57390  Biso   1.000  C
  C228     1.0000 0.54100  0.31760  0.42610  Biso   1.000  C
  H177     1.0000 0.02040  0.16020  0.39820  Biso   1.000  H
  H178     1.0000 0.47960  0.66020  0.60180  Biso   1.000  H
  H179     1.0000 0.97960  0.83980  0.60180  Biso   1.000  H
  H180     1.0000 0.52040  0.33980  0.39820  Biso   1.000  H
  C229     1.0000 0.02920  0.88370  0.42910  Biso   1.000  C
  C230     1.0000 0.47080  0.38370  0.57090  Biso   1.000  C
  C231     1.0000 0.97080  0.11630  0.57090  Biso   1.000  C
  C232     1.0000 0.52920  0.61630  0.42910  Biso   1.000  C
  H181     1.0000 0.00620  0.86410  0.40060  Biso   1.000  H
  H182     1.0000 0.49380  0.36410  0.59940  Biso   1.000  H
  H183     1.0000 0.99380  0.13590  0.59940  Biso   1.000  H
  H184     1.0000 0.50620  0.63590  0.40060  Biso   1.000  H
  C233     1.0000 0.23300  0.04200  0.96290  Biso   1.000  C
  C234     1.0000 0.26700  0.54200  0.03710  Biso   1.000  C
  C235     1.0000 0.76700  0.95800  0.03710  Biso   1.000  C
  C236     1.0000 0.73300  0.45800  0.96290  Biso   1.000  C
  H185     1.0000 0.22610  0.06520  0.93350  Biso   1.000  H
  H186     1.0000 0.27390  0.56520  0.06650  Biso   1.000  H
  H187     1.0000 0.77390  0.93480  0.06650  Biso   1.000  H
  H188     1.0000 0.72610  0.43480  0.93350  Biso   1.000  H
  C237     1.0000 0.44800  0.29240  0.08390  Biso   1.000  C
  C238     1.0000 0.05200  0.79240  0.91610  Biso   1.000  C
  C239     1.0000 0.55200  0.70760  0.91610  Biso   1.000  C
  C240     1.0000 0.94800  0.20760  0.08390  Biso   1.000  C
  H189     1.0000 0.46230  0.27120  0.11390  Biso   1.000  H
  H190     1.0000 0.03770  0.77120  0.88610  Biso   1.000  H
  H191     1.0000 0.53770  0.72880  0.88610  Biso   1.000  H
  H192     1.0000 0.96230  0.22880  0.11390  Biso   1.000  H
