data_image0
_cell_length_a       26.0266
_cell_length_b       26.0266
_cell_length_c       26.0266
_cell_angle_alpha    90
_cell_angle_beta     90
_cell_angle_gamma    90

_symmetry_space_group_name_H-M    "P 1"
_symmetry_int_tables_number       1

loop_
  _symmetry_equiv_pos_as_xyz
  'x, y, z'

loop_
  _atom_site_label
  _atom_site_occupancy
  _atom_site_fract_x
  _atom_site_fract_y
  _atom_site_fract_z
  _atom_site_thermal_displace_type
  _atom_site_B_iso_or_equiv
  _atom_site_type_symbol
  C1       1.0000 0.28520  0.97610  0.90450  Biso   1.000  C
  C2       1.0000 0.21480  0.02390  0.40450  Biso   1.000  C
  C3       1.0000 0.71480  0.47610  0.59550  Biso   1.000  C
  C4       1.0000 0.78520  0.52390  0.09550  Biso   1.000  C
  C5       1.0000 0.90450  0.28520  0.97610  Biso   1.000  C
  C6       1.0000 0.40450  0.21480  0.02390  Biso   1.000  C
  C7       1.0000 0.59550  0.71480  0.47610  Biso   1.000  C
  C8       1.0000 0.09550  0.78520  0.52390  Biso   1.000  C
  C9       1.0000 0.97610  0.90450  0.28520  Biso   1.000  C
  C10      1.0000 0.02390  0.40450  0.21480  Biso   1.000  C
  C11      1.0000 0.47610  0.59550  0.71480  Biso   1.000  C
  C12      1.0000 0.52390  0.09550  0.78520  Biso   1.000  C
  C13      1.0000 0.72610  0.53520  0.34550  Biso   1.000  C
  C14      1.0000 0.77390  0.46480  0.84550  Biso   1.000  C
  C15      1.0000 0.22610  0.96480  0.65450  Biso   1.000  C
  C16      1.0000 0.27390  0.03520  0.15450  Biso   1.000  C
  C17      1.0000 0.03520  0.15450  0.27390  Biso   1.000  C
  C18      1.0000 0.96480  0.65450  0.22610  Biso   1.000  C
  C19      1.0000 0.46480  0.84550  0.77390  Biso   1.000  C
  C20      1.0000 0.53520  0.34550  0.72610  Biso   1.000  C
  C21      1.0000 0.65450  0.22610  0.96480  Biso   1.000  C
  C22      1.0000 0.15450  0.27390  0.03520  Biso   1.000  C
  C23      1.0000 0.34550  0.72610  0.53520  Biso   1.000  C
  C24      1.0000 0.84550  0.77390  0.46480  Biso   1.000  C
  C25      1.0000 0.78520  0.47610  0.40450  Biso   1.000  C
  C26      1.0000 0.71480  0.52390  0.90450  Biso   1.000  C
  C27      1.0000 0.21480  0.97610  0.09550  Biso   1.000  C
  C28      1.0000 0.28520  0.02390  0.59550  Biso   1.000  C
  C29      1.0000 0.40450  0.78520  0.47610  Biso   1.000  C
  C30      1.0000 0.90450  0.71480  0.52390  Biso   1.000  C
  C31      1.0000 0.09550  0.21480  0.97610  Biso   1.000  C
  C32      1.0000 0.59550  0.28520  0.02390  Biso   1.000  C
  C33      1.0000 0.47610  0.40450  0.78520  Biso   1.000  C
  C34      1.0000 0.52390  0.90450  0.71480  Biso   1.000  C
  C35      1.0000 0.97610  0.09550  0.21480  Biso   1.000  C
  C36      1.0000 0.02390  0.59550  0.28520  Biso   1.000  C
  C37      1.0000 0.22610  0.03520  0.84550  Biso   1.000  C
  C38      1.0000 0.27390  0.96480  0.34550  Biso   1.000  C
  C39      1.0000 0.72610  0.46480  0.15450  Biso   1.000  C
  C40      1.0000 0.77390  0.53520  0.65450  Biso   1.000  C
  C41      1.0000 0.53520  0.65450  0.77390  Biso   1.000  C
  C42      1.0000 0.46480  0.15450  0.72610  Biso   1.000  C
  C43      1.0000 0.96480  0.34550  0.27390  Biso   1.000  C
  C44      1.0000 0.03520  0.84550  0.22610  Biso   1.000  C
  C45      1.0000 0.15450  0.72610  0.46480  Biso   1.000  C
  C46      1.0000 0.65450  0.77390  0.53520  Biso   1.000  C
  C47      1.0000 0.84550  0.22610  0.03520  Biso   1.000  C
  C48      1.0000 0.34550  0.27390  0.96480  Biso   1.000  C
  C49      1.0000 0.71480  0.02390  0.09550  Biso   1.000  C
  C50      1.0000 0.78520  0.97610  0.59550  Biso   1.000  C
  C51      1.0000 0.28520  0.52390  0.40450  Biso   1.000  C
  C52      1.0000 0.21480  0.47610  0.90450  Biso   1.000  C
  C53      1.0000 0.09550  0.71480  0.02390  Biso   1.000  C
  C54      1.0000 0.59550  0.78520  0.97610  Biso   1.000  C
  C55      1.0000 0.40450  0.28520  0.52390  Biso   1.000  C
  C56      1.0000 0.90450  0.21480  0.47610  Biso   1.000  C
  C57      1.0000 0.02390  0.09550  0.71480  Biso   1.000  C
  C58      1.0000 0.97610  0.59550  0.78520  Biso   1.000  C
  C59      1.0000 0.52390  0.40450  0.28520  Biso   1.000  C
  C60      1.0000 0.47610  0.90450  0.21480  Biso   1.000  C
  C61      1.0000 0.77390  0.96480  0.15450  Biso   1.000  C
  C62      1.0000 0.72610  0.03520  0.65450  Biso   1.000  C
  C63      1.0000 0.27390  0.53520  0.84550  Biso   1.000  C
  C64      1.0000 0.22610  0.46480  0.34550  Biso   1.000  C
  C65      1.0000 0.46480  0.34550  0.22610  Biso   1.000  C
  C66      1.0000 0.53520  0.84550  0.27390  Biso   1.000  C
  C67      1.0000 0.03520  0.65450  0.72610  Biso   1.000  C
  C68      1.0000 0.96480  0.15450  0.77390  Biso   1.000  C
  C69      1.0000 0.84550  0.27390  0.53520  Biso   1.000  C
  C70      1.0000 0.34550  0.22610  0.46480  Biso   1.000  C
  C71      1.0000 0.15450  0.77390  0.96480  Biso   1.000  C
  C72      1.0000 0.65450  0.72610  0.03520  Biso   1.000  C
  C73      1.0000 0.21480  0.52390  0.59550  Biso   1.000  C
  C74      1.0000 0.28520  0.47610  0.09550  Biso   1.000  C
  C75      1.0000 0.78520  0.02390  0.90450  Biso   1.000  C
  C76      1.0000 0.71480  0.97610  0.40450  Biso   1.000  C
  C77      1.0000 0.59550  0.21480  0.52390  Biso   1.000  C
  C78      1.0000 0.09550  0.28520  0.47610  Biso   1.000  C
  C79      1.0000 0.90450  0.78520  0.02390  Biso   1.000  C
  C80      1.0000 0.40450  0.71480  0.97610  Biso   1.000  C
  C81      1.0000 0.52390  0.59550  0.21480  Biso   1.000  C
  C82      1.0000 0.47610  0.09550  0.28520  Biso   1.000  C
  C83      1.0000 0.02390  0.90450  0.78520  Biso   1.000  C
  C84      1.0000 0.97610  0.40450  0.71480  Biso   1.000  C
  C85      1.0000 0.27390  0.46480  0.65450  Biso   1.000  C
  C86      1.0000 0.22610  0.53520  0.15450  Biso   1.000  C
  C87      1.0000 0.77390  0.03520  0.34550  Biso   1.000  C
  C88      1.0000 0.72610  0.96480  0.84550  Biso   1.000  C
  C89      1.0000 0.96480  0.84550  0.72610  Biso   1.000  C
  C90      1.0000 0.03520  0.34550  0.77390  Biso   1.000  C
  C91      1.0000 0.53520  0.15450  0.22610  Biso   1.000  C
  C92      1.0000 0.46480  0.65450  0.27390  Biso   1.000  C
  C93      1.0000 0.34550  0.77390  0.03520  Biso   1.000  C
  C94      1.0000 0.84550  0.72610  0.96480  Biso   1.000  C
  C95      1.0000 0.65450  0.27390  0.46480  Biso   1.000  C
  C96      1.0000 0.15450  0.22610  0.53520  Biso   1.000  C
  C97      1.0000 0.28830  0.97450  0.85150  Biso   1.000  C
  C98      1.0000 0.21170  0.02550  0.35150  Biso   1.000  C
  C99      1.0000 0.71170  0.47450  0.64850  Biso   1.000  C
  C100     1.0000 0.78830  0.52550  0.14850  Biso   1.000  C
  C101     1.0000 0.85150  0.28830  0.97450  Biso   1.000  C
  C102     1.0000 0.35150  0.21170  0.02550  Biso   1.000  C
  C103     1.0000 0.64850  0.71170  0.47450  Biso   1.000  C
  C104     1.0000 0.14850  0.78830  0.52550  Biso   1.000  C
  C105     1.0000 0.97450  0.85150  0.28830  Biso   1.000  C
  C106     1.0000 0.02550  0.35150  0.21170  Biso   1.000  C
  C107     1.0000 0.47450  0.64850  0.71170  Biso   1.000  C
  C108     1.0000 0.52550  0.14850  0.78830  Biso   1.000  C
  C109     1.0000 0.72450  0.53830  0.39850  Biso   1.000  C
  C110     1.0000 0.77550  0.46170  0.89850  Biso   1.000  C
  C111     1.0000 0.22450  0.96170  0.60150  Biso   1.000  C
  C112     1.0000 0.27550  0.03830  0.10150  Biso   1.000  C
  C113     1.0000 0.03830  0.10150  0.27550  Biso   1.000  C
  C114     1.0000 0.96170  0.60150  0.22450  Biso   1.000  C
  C115     1.0000 0.46170  0.89850  0.77550  Biso   1.000  C
  C116     1.0000 0.53830  0.39850  0.72450  Biso   1.000  C
  C117     1.0000 0.60150  0.22450  0.96170  Biso   1.000  C
  C118     1.0000 0.10150  0.27550  0.03830  Biso   1.000  C
  C119     1.0000 0.39850  0.72450  0.53830  Biso   1.000  C
  C120     1.0000 0.89850  0.77550  0.46170  Biso   1.000  C
  C121     1.0000 0.78830  0.47450  0.35150  Biso   1.000  C
  C122     1.0000 0.71170  0.52550  0.85150  Biso   1.000  C
  C123     1.0000 0.21170  0.97450  0.14850  Biso   1.000  C
  C124     1.0000 0.28830  0.02550  0.64850  Biso   1.000  C
  C125     1.0000 0.35150  0.78830  0.47450  Biso   1.000  C
  C126     1.0000 0.85150  0.71170  0.52550  Biso   1.000  C
  C127     1.0000 0.14850  0.21170  0.97450  Biso   1.000  C
  C128     1.0000 0.64850  0.28830  0.02550  Biso   1.000  C
  C129     1.0000 0.47450  0.35150  0.78830  Biso   1.000  C
  C130     1.0000 0.52550  0.85150  0.71170  Biso   1.000  C
  C131     1.0000 0.97450  0.14850  0.21170  Biso   1.000  C
  C132     1.0000 0.02550  0.64850  0.28830  Biso   1.000  C
  C133     1.0000 0.22450  0.03830  0.89850  Biso   1.000  C
  C134     1.0000 0.27550  0.96170  0.39850  Biso   1.000  C
  C135     1.0000 0.72450  0.46170  0.10150  Biso   1.000  C
  C136     1.0000 0.77550  0.53830  0.60150  Biso   1.000  C
  C137     1.0000 0.53830  0.60150  0.77550  Biso   1.000  C
  C138     1.0000 0.46170  0.10150  0.72450  Biso   1.000  C
  C139     1.0000 0.96170  0.39850  0.27550  Biso   1.000  C
  C140     1.0000 0.03830  0.89850  0.22450  Biso   1.000  C
  C141     1.0000 0.10150  0.72450  0.46170  Biso   1.000  C
  C142     1.0000 0.60150  0.77550  0.53830  Biso   1.000  C
  C143     1.0000 0.89850  0.22450  0.03830  Biso   1.000  C
  C144     1.0000 0.39850  0.27550  0.96170  Biso   1.000  C
  C145     1.0000 0.71170  0.02550  0.14850  Biso   1.000  C
  C146     1.0000 0.78830  0.97450  0.64850  Biso   1.000  C
  C147     1.0000 0.28830  0.52550  0.35150  Biso   1.000  C
  C148     1.0000 0.21170  0.47450  0.85150  Biso   1.000  C
  C149     1.0000 0.14850  0.71170  0.02550  Biso   1.000  C
  C150     1.0000 0.64850  0.78830  0.97450  Biso   1.000  C
  C151     1.0000 0.35150  0.28830  0.52550  Biso   1.000  C
  C152     1.0000 0.85150  0.21170  0.47450  Biso   1.000  C
  C153     1.0000 0.02550  0.14850  0.71170  Biso   1.000  C
  C154     1.0000 0.97450  0.64850  0.78830  Biso   1.000  C
  C155     1.0000 0.52550  0.35150  0.28830  Biso   1.000  C
  C156     1.0000 0.47450  0.85150  0.21170  Biso   1.000  C
  C157     1.0000 0.77550  0.96170  0.10150  Biso   1.000  C
  C158     1.0000 0.72450  0.03830  0.60150  Biso   1.000  C
  C159     1.0000 0.27550  0.53830  0.89850  Biso   1.000  C
  C160     1.0000 0.22450  0.46170  0.39850  Biso   1.000  C
  C161     1.0000 0.46170  0.39850  0.22450  Biso   1.000  C
  C162     1.0000 0.53830  0.89850  0.27550  Biso   1.000  C
  C163     1.0000 0.03830  0.60150  0.72450  Biso   1.000  C
  C164     1.0000 0.96170  0.10150  0.77550  Biso   1.000  C
  C165     1.0000 0.89850  0.27550  0.53830  Biso   1.000  C
  C166     1.0000 0.39850  0.22450  0.46170  Biso   1.000  C
  C167     1.0000 0.10150  0.77550  0.96170  Biso   1.000  C
  C168     1.0000 0.60150  0.72450  0.03830  Biso   1.000  C
  C169     1.0000 0.21170  0.52550  0.64850  Biso   1.000  C
  C170     1.0000 0.28830  0.47450  0.14850  Biso   1.000  C
  C171     1.0000 0.78830  0.02550  0.85150  Biso   1.000  C
  C172     1.0000 0.71170  0.97450  0.35150  Biso   1.000  C
  C173     1.0000 0.64850  0.21170  0.52550  Biso   1.000  C
  C174     1.0000 0.14850  0.28830  0.47450  Biso   1.000  C
  C175     1.0000 0.85150  0.78830  0.02550  Biso   1.000  C
  C176     1.0000 0.35150  0.71170  0.97450  Biso   1.000  C
  C177     1.0000 0.52550  0.64850  0.21170  Biso   1.000  C
  C178     1.0000 0.47450  0.14850  0.28830  Biso   1.000  C
  C179     1.0000 0.02550  0.85150  0.78830  Biso   1.000  C
  C180     1.0000 0.97450  0.35150  0.71170  Biso   1.000  C
  C181     1.0000 0.27550  0.46170  0.60150  Biso   1.000  C
  C182     1.0000 0.22450  0.53830  0.10150  Biso   1.000  C
  C183     1.0000 0.77550  0.03830  0.39850  Biso   1.000  C
  C184     1.0000 0.72450  0.96170  0.89850  Biso   1.000  C
  C185     1.0000 0.96170  0.89850  0.72450  Biso   1.000  C
  C186     1.0000 0.03830  0.39850  0.77550  Biso   1.000  C
  C187     1.0000 0.53830  0.10150  0.22450  Biso   1.000  C
  C188     1.0000 0.46170  0.60150  0.27550  Biso   1.000  C
  C189     1.0000 0.39850  0.77550  0.03830  Biso   1.000  C
  C190     1.0000 0.89850  0.72450  0.96170  Biso   1.000  C
  C191     1.0000 0.60150  0.27550  0.46170  Biso   1.000  C
  C192     1.0000 0.10150  0.22450  0.53830  Biso   1.000  C
  Cu1      1.0000 0.25000  0.01017  0.00000  Biso   1.000  Cu
  Cu2      1.0000 0.25000  0.98983  0.50000  Biso   1.000  Cu
  Cu3      1.0000 0.75000  0.51017  0.50000  Biso   1.000  Cu
  Cu4      1.0000 0.75000  0.48983  0.00000  Biso   1.000  Cu
  Cu5      1.0000 0.00000  0.25000  0.01017  Biso   1.000  Cu
  Cu6      1.0000 0.50000  0.25000  0.98983  Biso   1.000  Cu
  Cu7      1.0000 0.50000  0.75000  0.51017  Biso   1.000  Cu
  Cu8      1.0000 0.00000  0.75000  0.48983  Biso   1.000  Cu
  Cu9      1.0000 0.01017  0.00000  0.25000  Biso   1.000  Cu
  Cu10     1.0000 0.98983  0.50000  0.25000  Biso   1.000  Cu
  Cu11     1.0000 0.51017  0.50000  0.75000  Biso   1.000  Cu
  Cu12     1.0000 0.48983  0.00000  0.75000  Biso   1.000  Cu
  Cu13     1.0000 0.76017  0.50000  0.25000  Biso   1.000  Cu
  Cu14     1.0000 0.73983  0.50000  0.75000  Biso   1.000  Cu
  Cu15     1.0000 0.26017  0.00000  0.75000  Biso   1.000  Cu
  Cu16     1.0000 0.23983  0.00000  0.25000  Biso   1.000  Cu
  Cu17     1.0000 0.00000  0.25000  0.23983  Biso   1.000  Cu
  Cu18     1.0000 0.00000  0.75000  0.26017  Biso   1.000  Cu
  Cu19     1.0000 0.50000  0.75000  0.73983  Biso   1.000  Cu
  Cu20     1.0000 0.50000  0.25000  0.76017  Biso   1.000  Cu
  Cu21     1.0000 0.75000  0.26017  0.00000  Biso   1.000  Cu
  Cu22     1.0000 0.25000  0.23983  0.00000  Biso   1.000  Cu
  Cu23     1.0000 0.25000  0.76017  0.50000  Biso   1.000  Cu
  Cu24     1.0000 0.75000  0.73983  0.50000  Biso   1.000  Cu
  Cu25     1.0000 0.75000  0.98983  0.00000  Biso   1.000  Cu
  Cu26     1.0000 0.75000  0.01017  0.50000  Biso   1.000  Cu
  Cu27     1.0000 0.25000  0.48983  0.50000  Biso   1.000  Cu
  Cu28     1.0000 0.25000  0.51017  0.00000  Biso   1.000  Cu
  Cu29     1.0000 0.00000  0.75000  0.98983  Biso   1.000  Cu
  Cu30     1.0000 0.50000  0.75000  0.01017  Biso   1.000  Cu
  Cu31     1.0000 0.50000  0.25000  0.48983  Biso   1.000  Cu
  Cu32     1.0000 0.00000  0.25000  0.51017  Biso   1.000  Cu
  Cu33     1.0000 0.98983  0.00000  0.75000  Biso   1.000  Cu
  Cu34     1.0000 0.01017  0.50000  0.75000  Biso   1.000  Cu
  Cu35     1.0000 0.48983  0.50000  0.25000  Biso   1.000  Cu
  Cu36     1.0000 0.51017  0.00000  0.25000  Biso   1.000  Cu
  Cu37     1.0000 0.73983  0.00000  0.25000  Biso   1.000  Cu
  Cu38     1.0000 0.76017  0.00000  0.75000  Biso   1.000  Cu
  Cu39     1.0000 0.23983  0.50000  0.75000  Biso   1.000  Cu
  Cu40     1.0000 0.26017  0.50000  0.25000  Biso   1.000  Cu
  Cu41     1.0000 0.50000  0.25000  0.26017  Biso   1.000  Cu
  Cu42     1.0000 0.50000  0.75000  0.23983  Biso   1.000  Cu
  Cu43     1.0000 0.00000  0.75000  0.76017  Biso   1.000  Cu
  Cu44     1.0000 0.00000  0.25000  0.73983  Biso   1.000  Cu
  Cu45     1.0000 0.75000  0.23983  0.50000  Biso   1.000  Cu
  Cu46     1.0000 0.25000  0.26017  0.50000  Biso   1.000  Cu
  Cu47     1.0000 0.25000  0.73983  0.00000  Biso   1.000  Cu
  Cu48     1.0000 0.75000  0.76017  0.00000  Biso   1.000  Cu
  H1       1.0000 0.32300  0.94800  0.92700  Biso   1.000  H
  H2       1.0000 0.17700  0.05200  0.42700  Biso   1.000  H
  H3       1.0000 0.67700  0.44800  0.57300  Biso   1.000  H
  H4       1.0000 0.82300  0.55200  0.07300  Biso   1.000  H
  H5       1.0000 0.92700  0.32300  0.94800  Biso   1.000  H
  H6       1.0000 0.42700  0.17700  0.05200  Biso   1.000  H
  H7       1.0000 0.57300  0.67700  0.44800  Biso   1.000  H
  H8       1.0000 0.07300  0.82300  0.55200  Biso   1.000  H
  H9       1.0000 0.94800  0.92700  0.32300  Biso   1.000  H
  H10      1.0000 0.05200  0.42700  0.17700  Biso   1.000  H
  H11      1.0000 0.44800  0.57300  0.67700  Biso   1.000  H
  H12      1.0000 0.55200  0.07300  0.82300  Biso   1.000  H
  H13      1.0000 0.69800  0.57300  0.32300  Biso   1.000  H
  H14      1.0000 0.80200  0.42700  0.82300  Biso   1.000  H
  H15      1.0000 0.19800  0.92700  0.67700  Biso   1.000  H
  H16      1.0000 0.30200  0.07300  0.17700  Biso   1.000  H
  H17      1.0000 0.07300  0.17700  0.30200  Biso   1.000  H
  H18      1.0000 0.92700  0.67700  0.19800  Biso   1.000  H
  H19      1.0000 0.42700  0.82300  0.80200  Biso   1.000  H
  H20      1.0000 0.57300  0.32300  0.69800  Biso   1.000  H
  H21      1.0000 0.67700  0.19800  0.92700  Biso   1.000  H
  H22      1.0000 0.17700  0.30200  0.07300  Biso   1.000  H
  H23      1.0000 0.32300  0.69800  0.57300  Biso   1.000  H
  H24      1.0000 0.82300  0.80200  0.42700  Biso   1.000  H
  H25      1.0000 0.82300  0.44800  0.42700  Biso   1.000  H
  H26      1.0000 0.67700  0.55200  0.92700  Biso   1.000  H
  H27      1.0000 0.17700  0.94800  0.07300  Biso   1.000  H
  H28      1.0000 0.32300  0.05200  0.57300  Biso   1.000  H
  H29      1.0000 0.42700  0.82300  0.44800  Biso   1.000  H
  H30      1.0000 0.92700  0.67700  0.55200  Biso   1.000  H
  H31      1.0000 0.07300  0.17700  0.94800  Biso   1.000  H
  H32      1.0000 0.57300  0.32300  0.05200  Biso   1.000  H
  H33      1.0000 0.44800  0.42700  0.82300  Biso   1.000  H
  H34      1.0000 0.55200  0.92700  0.67700  Biso   1.000  H
  H35      1.0000 0.94800  0.07300  0.17700  Biso   1.000  H
  H36      1.0000 0.05200  0.57300  0.32300  Biso   1.000  H
  H37      1.0000 0.19800  0.07300  0.82300  Biso   1.000  H
  H38      1.0000 0.30200  0.92700  0.32300  Biso   1.000  H
  H39      1.0000 0.69800  0.42700  0.17700  Biso   1.000  H
  H40      1.0000 0.80200  0.57300  0.67700  Biso   1.000  H
  H41      1.0000 0.57300  0.67700  0.80200  Biso   1.000  H
  H42      1.0000 0.42700  0.17700  0.69800  Biso   1.000  H
  H43      1.0000 0.92700  0.32300  0.30200  Biso   1.000  H
  H44      1.0000 0.07300  0.82300  0.19800  Biso   1.000  H
  H45      1.0000 0.17700  0.69800  0.42700  Biso   1.000  H
  H46      1.0000 0.67700  0.80200  0.57300  Biso   1.000  H
  H47      1.0000 0.82300  0.19800  0.07300  Biso   1.000  H
  H48      1.0000 0.32300  0.30200  0.92700  Biso   1.000  H
  H49      1.0000 0.67700  0.05200  0.07300  Biso   1.000  H
  H50      1.0000 0.82300  0.94800  0.57300  Biso   1.000  H
  H51      1.0000 0.32300  0.55200  0.42700  Biso   1.000  H
  H52      1.0000 0.17700  0.44800  0.92700  Biso   1.000  H
  H53      1.0000 0.07300  0.67700  0.05200  Biso   1.000  H
  H54      1.0000 0.57300  0.82300  0.94800  Biso   1.000  H
  H55      1.0000 0.42700  0.32300  0.55200  Biso   1.000  H
  H56      1.0000 0.92700  0.17700  0.44800  Biso   1.000  H
  H57      1.0000 0.05200  0.07300  0.67700  Biso   1.000  H
  H58      1.0000 0.94800  0.57300  0.82300  Biso   1.000  H
  H59      1.0000 0.55200  0.42700  0.32300  Biso   1.000  H
  H60      1.0000 0.44800  0.92700  0.17700  Biso   1.000  H
  H61      1.0000 0.80200  0.92700  0.17700  Biso   1.000  H
  H62      1.0000 0.69800  0.07300  0.67700  Biso   1.000  H
  H63      1.0000 0.30200  0.57300  0.82300  Biso   1.000  H
  H64      1.0000 0.19800  0.42700  0.32300  Biso   1.000  H
  H65      1.0000 0.42700  0.32300  0.19800  Biso   1.000  H
  H66      1.0000 0.57300  0.82300  0.30200  Biso   1.000  H
  H67      1.0000 0.07300  0.67700  0.69800  Biso   1.000  H
  H68      1.0000 0.92700  0.17700  0.80200  Biso   1.000  H
  H69      1.0000 0.82300  0.30200  0.57300  Biso   1.000  H
  H70      1.0000 0.32300  0.19800  0.42700  Biso   1.000  H
  H71      1.0000 0.17700  0.80200  0.92700  Biso   1.000  H
  H72      1.0000 0.67700  0.69800  0.07300  Biso   1.000  H
  H73      1.0000 0.17700  0.55200  0.57300  Biso   1.000  H
  H74      1.0000 0.32300  0.44800  0.07300  Biso   1.000  H
  H75      1.0000 0.82300  0.05200  0.92700  Biso   1.000  H
  H76      1.0000 0.67700  0.94800  0.42700  Biso   1.000  H
  H77      1.0000 0.57300  0.17700  0.55200  Biso   1.000  H
  H78      1.0000 0.07300  0.32300  0.44800  Biso   1.000  H
  H79      1.0000 0.92700  0.82300  0.05200  Biso   1.000  H
  H80      1.0000 0.42700  0.67700  0.94800  Biso   1.000  H
  H81      1.0000 0.55200  0.57300  0.17700  Biso   1.000  H
  H82      1.0000 0.44800  0.07300  0.32300  Biso   1.000  H
  H83      1.0000 0.05200  0.92700  0.82300  Biso   1.000  H
  H84      1.0000 0.94800  0.42700  0.67700  Biso   1.000  H
  H85      1.0000 0.30200  0.42700  0.67700  Biso   1.000  H
  H86      1.0000 0.19800  0.57300  0.17700  Biso   1.000  H
  H87      1.0000 0.80200  0.07300  0.32300  Biso   1.000  H
  H88      1.0000 0.69800  0.92700  0.82300  Biso   1.000  H
  H89      1.0000 0.92700  0.82300  0.69800  Biso   1.000  H
  H90      1.0000 0.07300  0.32300  0.80200  Biso   1.000  H
  H91      1.0000 0.57300  0.17700  0.19800  Biso   1.000  H
  H92      1.0000 0.42700  0.67700  0.30200  Biso   1.000  H
  H93      1.0000 0.32300  0.80200  0.07300  Biso   1.000  H
  H94      1.0000 0.82300  0.69800  0.92700  Biso   1.000  H
  H95      1.0000 0.67700  0.30200  0.42700  Biso   1.000  H
  H96      1.0000 0.17700  0.19800  0.57300  Biso   1.000  H
  H97      1.0000 0.31800  0.96500  0.83900  Biso   1.000  H
  H98      1.0000 0.18200  0.03500  0.33900  Biso   1.000  H
  H99      1.0000 0.68200  0.46500  0.66100  Biso   1.000  H
  H100     1.0000 0.81800  0.53500  0.16100  Biso   1.000  H
  H101     1.0000 0.83900  0.31800  0.96500  Biso   1.000  H
  H102     1.0000 0.33900  0.18200  0.03500  Biso   1.000  H
  H103     1.0000 0.66100  0.68200  0.46500  Biso   1.000  H
  H104     1.0000 0.16100  0.81800  0.53500  Biso   1.000  H
  H105     1.0000 0.96500  0.83900  0.31800  Biso   1.000  H
  H106     1.0000 0.03500  0.33900  0.18200  Biso   1.000  H
  H107     1.0000 0.46500  0.66100  0.68200  Biso   1.000  H
  H108     1.0000 0.53500  0.16100  0.81800  Biso   1.000  H
  H109     1.0000 0.71500  0.56800  0.41100  Biso   1.000  H
  H110     1.0000 0.78500  0.43200  0.91100  Biso   1.000  H
  H111     1.0000 0.21500  0.93200  0.58900  Biso   1.000  H
  H112     1.0000 0.28500  0.06800  0.08900  Biso   1.000  H
  H113     1.0000 0.06800  0.08900  0.28500  Biso   1.000  H
  H114     1.0000 0.93200  0.58900  0.21500  Biso   1.000  H
  H115     1.0000 0.43200  0.91100  0.78500  Biso   1.000  H
  H116     1.0000 0.56800  0.41100  0.71500  Biso   1.000  H
  H117     1.0000 0.58900  0.21500  0.93200  Biso   1.000  H
  H118     1.0000 0.08900  0.28500  0.06800  Biso   1.000  H
  H119     1.0000 0.41100  0.71500  0.56800  Biso   1.000  H
  H120     1.0000 0.91100  0.78500  0.43200  Biso   1.000  H
  H121     1.0000 0.81800  0.46500  0.33900  Biso   1.000  H
  H122     1.0000 0.68200  0.53500  0.83900  Biso   1.000  H
  H123     1.0000 0.18200  0.96500  0.16100  Biso   1.000  H
  H124     1.0000 0.31800  0.03500  0.66100  Biso   1.000  H
  H125     1.0000 0.33900  0.81800  0.46500  Biso   1.000  H
  H126     1.0000 0.83900  0.68200  0.53500  Biso   1.000  H
  H127     1.0000 0.16100  0.18200  0.96500  Biso   1.000  H
  H128     1.0000 0.66100  0.31800  0.03500  Biso   1.000  H
  H129     1.0000 0.46500  0.33900  0.81800  Biso   1.000  H
  H130     1.0000 0.53500  0.83900  0.68200  Biso   1.000  H
  H131     1.0000 0.96500  0.16100  0.18200  Biso   1.000  H
  H132     1.0000 0.03500  0.66100  0.31800  Biso   1.000  H
  H133     1.0000 0.21500  0.06800  0.91100  Biso   1.000  H
  H134     1.0000 0.28500  0.93200  0.41100  Biso   1.000  H
  H135     1.0000 0.71500  0.43200  0.08900  Biso   1.000  H
  H136     1.0000 0.78500  0.56800  0.58900  Biso   1.000  H
  H137     1.0000 0.56800  0.58900  0.78500  Biso   1.000  H
  H138     1.0000 0.43200  0.08900  0.71500  Biso   1.000  H
  H139     1.0000 0.93200  0.41100  0.28500  Biso   1.000  H
  H140     1.0000 0.06800  0.91100  0.21500  Biso   1.000  H
  H141     1.0000 0.08900  0.71500  0.43200  Biso   1.000  H
  H142     1.0000 0.58900  0.78500  0.56800  Biso   1.000  H
  H143     1.0000 0.91100  0.21500  0.06800  Biso   1.000  H
  H144     1.0000 0.41100  0.28500  0.93200  Biso   1.000  H
  H145     1.0000 0.68200  0.03500  0.16100  Biso   1.000  H
  H146     1.0000 0.81800  0.96500  0.66100  Biso   1.000  H
  H147     1.0000 0.31800  0.53500  0.33900  Biso   1.000  H
  H148     1.0000 0.18200  0.46500  0.83900  Biso   1.000  H
  H149     1.0000 0.16100  0.68200  0.03500  Biso   1.000  H
  H150     1.0000 0.66100  0.81800  0.96500  Biso   1.000  H
  H151     1.0000 0.33900  0.31800  0.53500  Biso   1.000  H
  H152     1.0000 0.83900  0.18200  0.46500  Biso   1.000  H
  H153     1.0000 0.03500  0.16100  0.68200  Biso   1.000  H
  H154     1.0000 0.96500  0.66100  0.81800  Biso   1.000  H
  H155     1.0000 0.53500  0.33900  0.31800  Biso   1.000  H
  H156     1.0000 0.46500  0.83900  0.18200  Biso   1.000  H
  H157     1.0000 0.78500  0.93200  0.08900  Biso   1.000  H
  H158     1.0000 0.71500  0.06800  0.58900  Biso   1.000  H
  H159     1.0000 0.28500  0.56800  0.91100  Biso   1.000  H
  H160     1.0000 0.21500  0.43200  0.41100  Biso   1.000  H
  H161     1.0000 0.43200  0.41100  0.21500  Biso   1.000  H
  H162     1.0000 0.56800  0.91100  0.28500  Biso   1.000  H
  H163     1.0000 0.06800  0.58900  0.71500  Biso   1.000  H
  H164     1.0000 0.93200  0.08900  0.78500  Biso   1.000  H
  H165     1.0000 0.91100  0.28500  0.56800  Biso   1.000  H
  H166     1.0000 0.41100  0.21500  0.43200  Biso   1.000  H
  H167     1.0000 0.08900  0.78500  0.93200  Biso   1.000  H
  H168     1.0000 0.58900  0.71500  0.06800  Biso   1.000  H
  H169     1.0000 0.18200  0.53500  0.66100  Biso   1.000  H
  H170     1.0000 0.31800  0.46500  0.16100  Biso   1.000  H
  H171     1.0000 0.81800  0.03500  0.83900  Biso   1.000  H
  H172     1.0000 0.68200  0.96500  0.33900  Biso   1.000  H
  H173     1.0000 0.66100  0.18200  0.53500  Biso   1.000  H
  H174     1.0000 0.16100  0.31800  0.46500  Biso   1.000  H
  H175     1.0000 0.83900  0.81800  0.03500  Biso   1.000  H
  H176     1.0000 0.33900  0.68200  0.96500  Biso   1.000  H
  H177     1.0000 0.53500  0.66100  0.18200  Biso   1.000  H
  H178     1.0000 0.46500  0.16100  0.31800  Biso   1.000  H
  H179     1.0000 0.03500  0.83900  0.81800  Biso   1.000  H
  H180     1.0000 0.96500  0.33900  0.68200  Biso   1.000  H
  H181     1.0000 0.28500  0.43200  0.58900  Biso   1.000  H
  H182     1.0000 0.21500  0.56800  0.08900  Biso   1.000  H
  H183     1.0000 0.78500  0.06800  0.41100  Biso   1.000  H
  H184     1.0000 0.71500  0.93200  0.91100  Biso   1.000  H
  H185     1.0000 0.93200  0.91100  0.71500  Biso   1.000  H
  H186     1.0000 0.06800  0.41100  0.78500  Biso   1.000  H
  H187     1.0000 0.56800  0.08900  0.21500  Biso   1.000  H
  H188     1.0000 0.43200  0.58900  0.28500  Biso   1.000  H
  H189     1.0000 0.41100  0.78500  0.06800  Biso   1.000  H
  H190     1.0000 0.91100  0.71500  0.93200  Biso   1.000  H
  H191     1.0000 0.58900  0.28500  0.43200  Biso   1.000  H
  H192     1.0000 0.08900  0.21500  0.56800  Biso   1.000  H
  N1       1.0000 0.25410  0.00780  0.92680  Biso   1.000  N
  N2       1.0000 0.24590  0.99220  0.42680  Biso   1.000  N
  N3       1.0000 0.74590  0.50780  0.57320  Biso   1.000  N
  N4       1.0000 0.75410  0.49220  0.07320  Biso   1.000  N
  N5       1.0000 0.92680  0.25410  0.00780  Biso   1.000  N
  N6       1.0000 0.42680  0.24590  0.99220  Biso   1.000  N
  N7       1.0000 0.57320  0.74590  0.50780  Biso   1.000  N
  N8       1.0000 0.07320  0.75410  0.49220  Biso   1.000  N
  N9       1.0000 0.00780  0.92680  0.25410  Biso   1.000  N
  N10      1.0000 0.99220  0.42680  0.24590  Biso   1.000  N
  N11      1.0000 0.50780  0.57320  0.74590  Biso   1.000  N
  N12      1.0000 0.49220  0.07320  0.75410  Biso   1.000  N
  N13      1.0000 0.75780  0.50410  0.32320  Biso   1.000  N
  N14      1.0000 0.74220  0.49590  0.82320  Biso   1.000  N
  N15      1.0000 0.25780  0.99590  0.67680  Biso   1.000  N
  N16      1.0000 0.24220  0.00410  0.17680  Biso   1.000  N
  N17      1.0000 0.00410  0.17680  0.24220  Biso   1.000  N
  N18      1.0000 0.99590  0.67680  0.25780  Biso   1.000  N
  N19      1.0000 0.49590  0.82320  0.74220  Biso   1.000  N
  N20      1.0000 0.50410  0.32320  0.75780  Biso   1.000  N
  N21      1.0000 0.67680  0.25780  0.99590  Biso   1.000  N
  N22      1.0000 0.17680  0.24220  0.00410  Biso   1.000  N
  N23      1.0000 0.32320  0.75780  0.50410  Biso   1.000  N
  N24      1.0000 0.82320  0.74220  0.49590  Biso   1.000  N
  N25      1.0000 0.75410  0.50780  0.42680  Biso   1.000  N
  N26      1.0000 0.74590  0.49220  0.92680  Biso   1.000  N
  N27      1.0000 0.24590  0.00780  0.07320  Biso   1.000  N
  N28      1.0000 0.25410  0.99220  0.57320  Biso   1.000  N
  N29      1.0000 0.42680  0.75410  0.50780  Biso   1.000  N
  N30      1.0000 0.92680  0.74590  0.49220  Biso   1.000  N
  N31      1.0000 0.07320  0.24590  0.00780  Biso   1.000  N
  N32      1.0000 0.57320  0.25410  0.99220  Biso   1.000  N
  N33      1.0000 0.50780  0.42680  0.75410  Biso   1.000  N
  N34      1.0000 0.49220  0.92680  0.74590  Biso   1.000  N
  N35      1.0000 0.00780  0.07320  0.24590  Biso   1.000  N
  N36      1.0000 0.99220  0.57320  0.25410  Biso   1.000  N
  N37      1.0000 0.25780  0.00410  0.82320  Biso   1.000  N
  N38      1.0000 0.24220  0.99590  0.32320  Biso   1.000  N
  N39      1.0000 0.75780  0.49590  0.17680  Biso   1.000  N
  N40      1.0000 0.74220  0.50410  0.67680  Biso   1.000  N
  N41      1.0000 0.50410  0.67680  0.74220  Biso   1.000  N
  N42      1.0000 0.49590  0.17680  0.75780  Biso   1.000  N
  N43      1.0000 0.99590  0.32320  0.24220  Biso   1.000  N
  N44      1.0000 0.00410  0.82320  0.25780  Biso   1.000  N
  N45      1.0000 0.17680  0.75780  0.49590  Biso   1.000  N
  N46      1.0000 0.67680  0.74220  0.50410  Biso   1.000  N
  N47      1.0000 0.82320  0.25780  0.00410  Biso   1.000  N
  N48      1.0000 0.32320  0.24220  0.99590  Biso   1.000  N
  N49      1.0000 0.74590  0.99220  0.07320  Biso   1.000  N
  N50      1.0000 0.75410  0.00780  0.57320  Biso   1.000  N
  N51      1.0000 0.25410  0.49220  0.42680  Biso   1.000  N
  N52      1.0000 0.24590  0.50780  0.92680  Biso   1.000  N
  N53      1.0000 0.07320  0.74590  0.99220  Biso   1.000  N
  N54      1.0000 0.57320  0.75410  0.00780  Biso   1.000  N
  N55      1.0000 0.42680  0.25410  0.49220  Biso   1.000  N
  N56      1.0000 0.92680  0.24590  0.50780  Biso   1.000  N
  N57      1.0000 0.99220  0.07320  0.74590  Biso   1.000  N
  N58      1.0000 0.00780  0.57320  0.75410  Biso   1.000  N
  N59      1.0000 0.49220  0.42680  0.25410  Biso   1.000  N
  N60      1.0000 0.50780  0.92680  0.24590  Biso   1.000  N
  N61      1.0000 0.74220  0.99590  0.17680  Biso   1.000  N
  N62      1.0000 0.75780  0.00410  0.67680  Biso   1.000  N
  N63      1.0000 0.24220  0.50410  0.82320  Biso   1.000  N
  N64      1.0000 0.25780  0.49590  0.32320  Biso   1.000  N
  N65      1.0000 0.49590  0.32320  0.25780  Biso   1.000  N
  N66      1.0000 0.50410  0.82320  0.24220  Biso   1.000  N
  N67      1.0000 0.00410  0.67680  0.75780  Biso   1.000  N
  N68      1.0000 0.99590  0.17680  0.74220  Biso   1.000  N
  N69      1.0000 0.82320  0.24220  0.50410  Biso   1.000  N
  N70      1.0000 0.32320  0.25780  0.49590  Biso   1.000  N
  N71      1.0000 0.17680  0.74220  0.99590  Biso   1.000  N
  N72      1.0000 0.67680  0.75780  0.00410  Biso   1.000  N
  N73      1.0000 0.24590  0.49220  0.57320  Biso   1.000  N
  N74      1.0000 0.25410  0.50780  0.07320  Biso   1.000  N
  N75      1.0000 0.75410  0.99220  0.92680  Biso   1.000  N
  N76      1.0000 0.74590  0.00780  0.42680  Biso   1.000  N
  N77      1.0000 0.57320  0.24590  0.49220  Biso   1.000  N
  N78      1.0000 0.07320  0.25410  0.50780  Biso   1.000  N
  N79      1.0000 0.92680  0.75410  0.99220  Biso   1.000  N
  N80      1.0000 0.42680  0.74590  0.00780  Biso   1.000  N
  N81      1.0000 0.49220  0.57320  0.24590  Biso   1.000  N
  N82      1.0000 0.50780  0.07320  0.25410  Biso   1.000  N
  N83      1.0000 0.99220  0.92680  0.75410  Biso   1.000  N
  N84      1.0000 0.00780  0.42680  0.74590  Biso   1.000  N
  N85      1.0000 0.24220  0.49590  0.67680  Biso   1.000  N
  N86      1.0000 0.25780  0.50410  0.17680  Biso   1.000  N
  N87      1.0000 0.74220  0.00410  0.32320  Biso   1.000  N
  N88      1.0000 0.75780  0.99590  0.82320  Biso   1.000  N
  N89      1.0000 0.99590  0.82320  0.75780  Biso   1.000  N
  N90      1.0000 0.00410  0.32320  0.74220  Biso   1.000  N
  N91      1.0000 0.50410  0.17680  0.25780  Biso   1.000  N
  N92      1.0000 0.49590  0.67680  0.24220  Biso   1.000  N
  N93      1.0000 0.32320  0.74220  0.00410  Biso   1.000  N
  N94      1.0000 0.82320  0.75780  0.99590  Biso   1.000  N
  N95      1.0000 0.67680  0.24220  0.49590  Biso   1.000  N
  N96      1.0000 0.17680  0.25780  0.50410  Biso   1.000  N
  Mo1      1.0000 0.38591  0.93836  0.04401  Biso   1.000  Mo
  Mo2      1.0000 0.11409  0.06164  0.54401  Biso   1.000  Mo
  Mo3      1.0000 0.61409  0.43836  0.45599  Biso   1.000  Mo
  Mo4      1.0000 0.88591  0.56164  0.95599  Biso   1.000  Mo
  Mo5      1.0000 0.04401  0.38591  0.93836  Biso   1.000  Mo
  Mo6      1.0000 0.54401  0.11409  0.06164  Biso   1.000  Mo
  Mo7      1.0000 0.45599  0.61409  0.43836  Biso   1.000  Mo
  Mo8      1.0000 0.95599  0.88591  0.56164  Biso   1.000  Mo
  Mo9      1.0000 0.93836  0.04401  0.38591  Biso   1.000  Mo
  Mo10     1.0000 0.06164  0.54401  0.11409  Biso   1.000  Mo
  Mo11     1.0000 0.43836  0.45599  0.61409  Biso   1.000  Mo
  Mo12     1.0000 0.56164  0.95599  0.88591  Biso   1.000  Mo
  Mo13     1.0000 0.68836  0.63591  0.20599  Biso   1.000  Mo
  Mo14     1.0000 0.81164  0.36409  0.70599  Biso   1.000  Mo
  Mo15     1.0000 0.18836  0.86409  0.79401  Biso   1.000  Mo
  Mo16     1.0000 0.31164  0.13591  0.29401  Biso   1.000  Mo
  Mo17     1.0000 0.13591  0.29401  0.31164  Biso   1.000  Mo
  Mo18     1.0000 0.86409  0.79401  0.18836  Biso   1.000  Mo
  Mo19     1.0000 0.36409  0.70599  0.81164  Biso   1.000  Mo
  Mo20     1.0000 0.63591  0.20599  0.68836  Biso   1.000  Mo
  Mo21     1.0000 0.79401  0.18836  0.86409  Biso   1.000  Mo
  Mo22     1.0000 0.29401  0.31164  0.13591  Biso   1.000  Mo
  Mo23     1.0000 0.20599  0.68836  0.63591  Biso   1.000  Mo
  Mo24     1.0000 0.70599  0.81164  0.36409  Biso   1.000  Mo
  Mo25     1.0000 0.88591  0.43836  0.54401  Biso   1.000  Mo
  Mo26     1.0000 0.61409  0.56164  0.04401  Biso   1.000  Mo
  Mo27     1.0000 0.11409  0.93836  0.95599  Biso   1.000  Mo
  Mo28     1.0000 0.38591  0.06164  0.45599  Biso   1.000  Mo
  Mo29     1.0000 0.54401  0.88591  0.43836  Biso   1.000  Mo
  Mo30     1.0000 0.04401  0.61409  0.56164  Biso   1.000  Mo
  Mo31     1.0000 0.95599  0.11409  0.93836  Biso   1.000  Mo
  Mo32     1.0000 0.45599  0.38591  0.06164  Biso   1.000  Mo
  Mo33     1.0000 0.43836  0.54401  0.88591  Biso   1.000  Mo
  Mo34     1.0000 0.56164  0.04401  0.61409  Biso   1.000  Mo
  Mo35     1.0000 0.93836  0.95599  0.11409  Biso   1.000  Mo
  Mo36     1.0000 0.06164  0.45599  0.38591  Biso   1.000  Mo
  Mo37     1.0000 0.18836  0.13591  0.70599  Biso   1.000  Mo
  Mo38     1.0000 0.31164  0.86409  0.20599  Biso   1.000  Mo
  Mo39     1.0000 0.68836  0.36409  0.29401  Biso   1.000  Mo
  Mo40     1.0000 0.81164  0.63591  0.79401  Biso   1.000  Mo
  Mo41     1.0000 0.63591  0.79401  0.81164  Biso   1.000  Mo
  Mo42     1.0000 0.36409  0.29401  0.68836  Biso   1.000  Mo
  Mo43     1.0000 0.86409  0.20599  0.31164  Biso   1.000  Mo
  Mo44     1.0000 0.13591  0.70599  0.18836  Biso   1.000  Mo
  Mo45     1.0000 0.29401  0.68836  0.36409  Biso   1.000  Mo
  Mo46     1.0000 0.79401  0.81164  0.63591  Biso   1.000  Mo
  Mo47     1.0000 0.70599  0.18836  0.13591  Biso   1.000  Mo
  Mo48     1.0000 0.20599  0.31164  0.86409  Biso   1.000  Mo
  Mo49     1.0000 0.61409  0.06164  0.95599  Biso   1.000  Mo
  Mo50     1.0000 0.88591  0.93836  0.45599  Biso   1.000  Mo
  Mo51     1.0000 0.38591  0.56164  0.54401  Biso   1.000  Mo
  Mo52     1.0000 0.11409  0.43836  0.04401  Biso   1.000  Mo
  Mo53     1.0000 0.95599  0.61409  0.06164  Biso   1.000  Mo
  Mo54     1.0000 0.45599  0.88591  0.93836  Biso   1.000  Mo
  Mo55     1.0000 0.54401  0.38591  0.56164  Biso   1.000  Mo
  Mo56     1.0000 0.04401  0.11409  0.43836  Biso   1.000  Mo
  Mo57     1.0000 0.06164  0.95599  0.61409  Biso   1.000  Mo
  Mo58     1.0000 0.93836  0.45599  0.88591  Biso   1.000  Mo
  Mo59     1.0000 0.56164  0.54401  0.38591  Biso   1.000  Mo
  Mo60     1.0000 0.43836  0.04401  0.11409  Biso   1.000  Mo
  Mo61     1.0000 0.81164  0.86409  0.29401  Biso   1.000  Mo
  Mo62     1.0000 0.68836  0.13591  0.79401  Biso   1.000  Mo
  Mo63     1.0000 0.31164  0.63591  0.70599  Biso   1.000  Mo
  Mo64     1.0000 0.18836  0.36409  0.20599  Biso   1.000  Mo
  Mo65     1.0000 0.36409  0.20599  0.18836  Biso   1.000  Mo
  Mo66     1.0000 0.63591  0.70599  0.31164  Biso   1.000  Mo
  Mo67     1.0000 0.13591  0.79401  0.68836  Biso   1.000  Mo
  Mo68     1.0000 0.86409  0.29401  0.81164  Biso   1.000  Mo
  Mo69     1.0000 0.70599  0.31164  0.63591  Biso   1.000  Mo
  Mo70     1.0000 0.20599  0.18836  0.36409  Biso   1.000  Mo
  Mo71     1.0000 0.29401  0.81164  0.86409  Biso   1.000  Mo
  Mo72     1.0000 0.79401  0.68836  0.13591  Biso   1.000  Mo
  Mo73     1.0000 0.11409  0.56164  0.45599  Biso   1.000  Mo
  Mo74     1.0000 0.38591  0.43836  0.95599  Biso   1.000  Mo
  Mo75     1.0000 0.88591  0.06164  0.04401  Biso   1.000  Mo
  Mo76     1.0000 0.61409  0.93836  0.54401  Biso   1.000  Mo
  Mo77     1.0000 0.45599  0.11409  0.56164  Biso   1.000  Mo
  Mo78     1.0000 0.95599  0.38591  0.43836  Biso   1.000  Mo
  Mo79     1.0000 0.04401  0.88591  0.06164  Biso   1.000  Mo
  Mo80     1.0000 0.54401  0.61409  0.93836  Biso   1.000  Mo
  Mo81     1.0000 0.56164  0.45599  0.11409  Biso   1.000  Mo
  Mo82     1.0000 0.43836  0.95599  0.38591  Biso   1.000  Mo
  Mo83     1.0000 0.06164  0.04401  0.88591  Biso   1.000  Mo
  Mo84     1.0000 0.93836  0.54401  0.61409  Biso   1.000  Mo
  Mo85     1.0000 0.31164  0.36409  0.79401  Biso   1.000  Mo
  Mo86     1.0000 0.18836  0.63591  0.29401  Biso   1.000  Mo
  Mo87     1.0000 0.81164  0.13591  0.20599  Biso   1.000  Mo
  Mo88     1.0000 0.68836  0.86409  0.70599  Biso   1.000  Mo
  Mo89     1.0000 0.86409  0.70599  0.68836  Biso   1.000  Mo
  Mo90     1.0000 0.13591  0.20599  0.81164  Biso   1.000  Mo
  Mo91     1.0000 0.63591  0.29401  0.18836  Biso   1.000  Mo
  Mo92     1.0000 0.36409  0.79401  0.31164  Biso   1.000  Mo
  Mo93     1.0000 0.20599  0.81164  0.13591  Biso   1.000  Mo
  Mo94     1.0000 0.70599  0.68836  0.86409  Biso   1.000  Mo
  Mo95     1.0000 0.79401  0.31164  0.36409  Biso   1.000  Mo
  Mo96     1.0000 0.29401  0.18836  0.63591  Biso   1.000  Mo
  Mo97     1.0000 0.38062  0.06509  0.99169  Biso   1.000  Mo
  Mo98     1.0000 0.11938  0.93491  0.49169  Biso   1.000  Mo
  Mo99     1.0000 0.61938  0.56509  0.50831  Biso   1.000  Mo
  Mo100    1.0000 0.88062  0.43491  0.00831  Biso   1.000  Mo
  Mo101    1.0000 0.99169  0.38062  0.06509  Biso   1.000  Mo
  Mo102    1.0000 0.49169  0.11938  0.93491  Biso   1.000  Mo
  Mo103    1.0000 0.50831  0.61938  0.56509  Biso   1.000  Mo
  Mo104    1.0000 0.00831  0.88062  0.43491  Biso   1.000  Mo
  Mo105    1.0000 0.06509  0.99169  0.38062  Biso   1.000  Mo
  Mo106    1.0000 0.93491  0.49169  0.11938  Biso   1.000  Mo
  Mo107    1.0000 0.56509  0.50831  0.61938  Biso   1.000  Mo
  Mo108    1.0000 0.43491  0.00831  0.88062  Biso   1.000  Mo
  Mo109    1.0000 0.81509  0.63062  0.25831  Biso   1.000  Mo
  Mo110    1.0000 0.68491  0.36938  0.75831  Biso   1.000  Mo
  Mo111    1.0000 0.31509  0.86938  0.74169  Biso   1.000  Mo
  Mo112    1.0000 0.18491  0.13062  0.24169  Biso   1.000  Mo
  Mo113    1.0000 0.13062  0.24169  0.18491  Biso   1.000  Mo
  Mo114    1.0000 0.86938  0.74169  0.31509  Biso   1.000  Mo
  Mo115    1.0000 0.36938  0.75831  0.68491  Biso   1.000  Mo
  Mo116    1.0000 0.63062  0.25831  0.81509  Biso   1.000  Mo
  Mo117    1.0000 0.74169  0.31509  0.86938  Biso   1.000  Mo
  Mo118    1.0000 0.24169  0.18491  0.13062  Biso   1.000  Mo
  Mo119    1.0000 0.25831  0.81509  0.63062  Biso   1.000  Mo
  Mo120    1.0000 0.75831  0.68491  0.36938  Biso   1.000  Mo
  Mo121    1.0000 0.88062  0.56509  0.49169  Biso   1.000  Mo
  Mo122    1.0000 0.61938  0.43491  0.99169  Biso   1.000  Mo
  Mo123    1.0000 0.11938  0.06509  0.00831  Biso   1.000  Mo
  Mo124    1.0000 0.38062  0.93491  0.50831  Biso   1.000  Mo
  Mo125    1.0000 0.49169  0.88062  0.56509  Biso   1.000  Mo
  Mo126    1.0000 0.99169  0.61938  0.43491  Biso   1.000  Mo
  Mo127    1.0000 0.00831  0.11938  0.06509  Biso   1.000  Mo
  Mo128    1.0000 0.50831  0.38062  0.93491  Biso   1.000  Mo
  Mo129    1.0000 0.56509  0.49169  0.88062  Biso   1.000  Mo
  Mo130    1.0000 0.43491  0.99169  0.61938  Biso   1.000  Mo
  Mo131    1.0000 0.06509  0.00831  0.11938  Biso   1.000  Mo
  Mo132    1.0000 0.93491  0.50831  0.38062  Biso   1.000  Mo
  Mo133    1.0000 0.31509  0.13062  0.75831  Biso   1.000  Mo
  Mo134    1.0000 0.18491  0.86938  0.25831  Biso   1.000  Mo
  Mo135    1.0000 0.81509  0.36938  0.24169  Biso   1.000  Mo
  Mo136    1.0000 0.68491  0.63062  0.74169  Biso   1.000  Mo
  Mo137    1.0000 0.63062  0.74169  0.68491  Biso   1.000  Mo
  Mo138    1.0000 0.36938  0.24169  0.81509  Biso   1.000  Mo
  Mo139    1.0000 0.86938  0.25831  0.18491  Biso   1.000  Mo
  Mo140    1.0000 0.13062  0.75831  0.31509  Biso   1.000  Mo
  Mo141    1.0000 0.24169  0.81509  0.36938  Biso   1.000  Mo
  Mo142    1.0000 0.74169  0.68491  0.63062  Biso   1.000  Mo
  Mo143    1.0000 0.75831  0.31509  0.13062  Biso   1.000  Mo
  Mo144    1.0000 0.25831  0.18491  0.86938  Biso   1.000  Mo
  Mo145    1.0000 0.61938  0.93491  0.00831  Biso   1.000  Mo
  Mo146    1.0000 0.88062  0.06509  0.50831  Biso   1.000  Mo
  Mo147    1.0000 0.38062  0.43491  0.49169  Biso   1.000  Mo
  Mo148    1.0000 0.11938  0.56509  0.99169  Biso   1.000  Mo
  Mo149    1.0000 0.00831  0.61938  0.93491  Biso   1.000  Mo
  Mo150    1.0000 0.50831  0.88062  0.06509  Biso   1.000  Mo
  Mo151    1.0000 0.49169  0.38062  0.43491  Biso   1.000  Mo
  Mo152    1.0000 0.99169  0.11938  0.56509  Biso   1.000  Mo
  Mo153    1.0000 0.93491  0.00831  0.61938  Biso   1.000  Mo
  Mo154    1.0000 0.06509  0.50831  0.88062  Biso   1.000  Mo
  Mo155    1.0000 0.43491  0.49169  0.38062  Biso   1.000  Mo
  Mo156    1.0000 0.56509  0.99169  0.11938  Biso   1.000  Mo
  Mo157    1.0000 0.68491  0.86938  0.24169  Biso   1.000  Mo
  Mo158    1.0000 0.81509  0.13062  0.74169  Biso   1.000  Mo
  Mo159    1.0000 0.18491  0.63062  0.75831  Biso   1.000  Mo
  Mo160    1.0000 0.31509  0.36938  0.25831  Biso   1.000  Mo
  Mo161    1.0000 0.36938  0.25831  0.31509  Biso   1.000  Mo
  Mo162    1.0000 0.63062  0.75831  0.18491  Biso   1.000  Mo
  Mo163    1.0000 0.13062  0.74169  0.81509  Biso   1.000  Mo
  Mo164    1.0000 0.86938  0.24169  0.68491  Biso   1.000  Mo
  Mo165    1.0000 0.75831  0.18491  0.63062  Biso   1.000  Mo
  Mo166    1.0000 0.25831  0.31509  0.36938  Biso   1.000  Mo
  Mo167    1.0000 0.24169  0.68491  0.86938  Biso   1.000  Mo
  Mo168    1.0000 0.74169  0.81509  0.13062  Biso   1.000  Mo
  Mo169    1.0000 0.11938  0.43491  0.50831  Biso   1.000  Mo
  Mo170    1.0000 0.38062  0.56509  0.00831  Biso   1.000  Mo
  Mo171    1.0000 0.88062  0.93491  0.99169  Biso   1.000  Mo
  Mo172    1.0000 0.61938  0.06509  0.49169  Biso   1.000  Mo
  Mo173    1.0000 0.50831  0.11938  0.43491  Biso   1.000  Mo
  Mo174    1.0000 0.00831  0.38062  0.56509  Biso   1.000  Mo
  Mo175    1.0000 0.99169  0.88062  0.93491  Biso   1.000  Mo
  Mo176    1.0000 0.49169  0.61938  0.06509  Biso   1.000  Mo
  Mo177    1.0000 0.43491  0.50831  0.11938  Biso   1.000  Mo
  Mo178    1.0000 0.56509  0.00831  0.38062  Biso   1.000  Mo
  Mo179    1.0000 0.93491  0.99169  0.88062  Biso   1.000  Mo
  Mo180    1.0000 0.06509  0.49169  0.61938  Biso   1.000  Mo
  Mo181    1.0000 0.18491  0.36938  0.74169  Biso   1.000  Mo
  Mo182    1.0000 0.31509  0.63062  0.24169  Biso   1.000  Mo
  Mo183    1.0000 0.68491  0.13062  0.25831  Biso   1.000  Mo
  Mo184    1.0000 0.81509  0.86938  0.75831  Biso   1.000  Mo
  Mo185    1.0000 0.86938  0.75831  0.81509  Biso   1.000  Mo
  Mo186    1.0000 0.13062  0.25831  0.68491  Biso   1.000  Mo
  Mo187    1.0000 0.63062  0.24169  0.31509  Biso   1.000  Mo
  Mo188    1.0000 0.36938  0.74169  0.18491  Biso   1.000  Mo
  Mo189    1.0000 0.25831  0.68491  0.13062  Biso   1.000  Mo
  Mo190    1.0000 0.75831  0.81509  0.86938  Biso   1.000  Mo
  Mo191    1.0000 0.74169  0.18491  0.36938  Biso   1.000  Mo
  Mo192    1.0000 0.24169  0.31509  0.63062  Biso   1.000  Mo
  O1       1.0000 0.38400  0.03340  0.92300  Biso   1.000  O
  O2       1.0000 0.11600  0.96660  0.42300  Biso   1.000  O
  O3       1.0000 0.61600  0.53340  0.57700  Biso   1.000  O
  O4       1.0000 0.88400  0.46660  0.07700  Biso   1.000  O
  O5       1.0000 0.92300  0.38400  0.03340  Biso   1.000  O
  O6       1.0000 0.42300  0.11600  0.96660  Biso   1.000  O
  O7       1.0000 0.57700  0.61600  0.53340  Biso   1.000  O
  O8       1.0000 0.07700  0.88400  0.46660  Biso   1.000  O
  O9       1.0000 0.03340  0.92300  0.38400  Biso   1.000  O
  O10      1.0000 0.96660  0.42300  0.11600  Biso   1.000  O
  O11      1.0000 0.53340  0.57700  0.61600  Biso   1.000  O
  O12      1.0000 0.46660  0.07700  0.88400  Biso   1.000  O
  O13      1.0000 0.78340  0.63400  0.32700  Biso   1.000  O
  O14      1.0000 0.71660  0.36600  0.82700  Biso   1.000  O
  O15      1.0000 0.28340  0.86600  0.67300  Biso   1.000  O
  O16      1.0000 0.21660  0.13400  0.17300  Biso   1.000  O
  O17      1.0000 0.13400  0.17300  0.21660  Biso   1.000  O
  O18      1.0000 0.86600  0.67300  0.28340  Biso   1.000  O
  O19      1.0000 0.36600  0.82700  0.71660  Biso   1.000  O
  O20      1.0000 0.63400  0.32700  0.78340  Biso   1.000  O
  O21      1.0000 0.67300  0.28340  0.86600  Biso   1.000  O
  O22      1.0000 0.17300  0.21660  0.13400  Biso   1.000  O
  O23      1.0000 0.32700  0.78340  0.63400  Biso   1.000  O
  O24      1.0000 0.82700  0.71660  0.36600  Biso   1.000  O
  O25      1.0000 0.88400  0.53340  0.42300  Biso   1.000  O
  O26      1.0000 0.61600  0.46660  0.92300  Biso   1.000  O
  O27      1.0000 0.11600  0.03340  0.07700  Biso   1.000  O
  O28      1.0000 0.38400  0.96660  0.57700  Biso   1.000  O
  O29      1.0000 0.42300  0.88400  0.53340  Biso   1.000  O
  O30      1.0000 0.92300  0.61600  0.46660  Biso   1.000  O
  O31      1.0000 0.07700  0.11600  0.03340  Biso   1.000  O
  O32      1.0000 0.57700  0.38400  0.96660  Biso   1.000  O
  O33      1.0000 0.53340  0.42300  0.88400  Biso   1.000  O
  O34      1.0000 0.46660  0.92300  0.61600  Biso   1.000  O
  O35      1.0000 0.03340  0.07700  0.11600  Biso   1.000  O
  O36      1.0000 0.96660  0.57700  0.38400  Biso   1.000  O
  O37      1.0000 0.28340  0.13400  0.82700  Biso   1.000  O
  O38      1.0000 0.21660  0.86600  0.32700  Biso   1.000  O
  O39      1.0000 0.78340  0.36600  0.17300  Biso   1.000  O
  O40      1.0000 0.71660  0.63400  0.67300  Biso   1.000  O
  O41      1.0000 0.63400  0.67300  0.71660  Biso   1.000  O
  O42      1.0000 0.36600  0.17300  0.78340  Biso   1.000  O
  O43      1.0000 0.86600  0.32700  0.21660  Biso   1.000  O
  O44      1.0000 0.13400  0.82700  0.28340  Biso   1.000  O
  O45      1.0000 0.17300  0.78340  0.36600  Biso   1.000  O
  O46      1.0000 0.67300  0.71660  0.63400  Biso   1.000  O
  O47      1.0000 0.82700  0.28340  0.13400  Biso   1.000  O
  O48      1.0000 0.32700  0.21660  0.86600  Biso   1.000  O
  O49      1.0000 0.61600  0.96660  0.07700  Biso   1.000  O
  O50      1.0000 0.88400  0.03340  0.57700  Biso   1.000  O
  O51      1.0000 0.38400  0.46660  0.42300  Biso   1.000  O
  O52      1.0000 0.11600  0.53340  0.92300  Biso   1.000  O
  O53      1.0000 0.07700  0.61600  0.96660  Biso   1.000  O
  O54      1.0000 0.57700  0.88400  0.03340  Biso   1.000  O
  O55      1.0000 0.42300  0.38400  0.46660  Biso   1.000  O
  O56      1.0000 0.92300  0.11600  0.53340  Biso   1.000  O
  O57      1.0000 0.96660  0.07700  0.61600  Biso   1.000  O
  O58      1.0000 0.03340  0.57700  0.88400  Biso   1.000  O
  O59      1.0000 0.46660  0.42300  0.38400  Biso   1.000  O
  O60      1.0000 0.53340  0.92300  0.11600  Biso   1.000  O
  O61      1.0000 0.71660  0.86600  0.17300  Biso   1.000  O
  O62      1.0000 0.78340  0.13400  0.67300  Biso   1.000  O
  O63      1.0000 0.21660  0.63400  0.82700  Biso   1.000  O
  O64      1.0000 0.28340  0.36600  0.32700  Biso   1.000  O
  O65      1.0000 0.36600  0.32700  0.28340  Biso   1.000  O
  O66      1.0000 0.63400  0.82700  0.21660  Biso   1.000  O
  O67      1.0000 0.13400  0.67300  0.78340  Biso   1.000  O
  O68      1.0000 0.86600  0.17300  0.71660  Biso   1.000  O
  O69      1.0000 0.82700  0.21660  0.63400  Biso   1.000  O
  O70      1.0000 0.32700  0.28340  0.36600  Biso   1.000  O
  O71      1.0000 0.17300  0.71660  0.86600  Biso   1.000  O
  O72      1.0000 0.67300  0.78340  0.13400  Biso   1.000  O
  O73      1.0000 0.11600  0.46660  0.57700  Biso   1.000  O
  O74      1.0000 0.38400  0.53340  0.07700  Biso   1.000  O
  O75      1.0000 0.88400  0.96660  0.92300  Biso   1.000  O
  O76      1.0000 0.61600  0.03340  0.42300  Biso   1.000  O
  O77      1.0000 0.57700  0.11600  0.46660  Biso   1.000  O
  O78      1.0000 0.07700  0.38400  0.53340  Biso   1.000  O
  O79      1.0000 0.92300  0.88400  0.96660  Biso   1.000  O
  O80      1.0000 0.42300  0.61600  0.03340  Biso   1.000  O
  O81      1.0000 0.46660  0.57700  0.11600  Biso   1.000  O
  O82      1.0000 0.53340  0.07700  0.38400  Biso   1.000  O
  O83      1.0000 0.96660  0.92300  0.88400  Biso   1.000  O
  O84      1.0000 0.03340  0.42300  0.61600  Biso   1.000  O
  O85      1.0000 0.21660  0.36600  0.67300  Biso   1.000  O
  O86      1.0000 0.28340  0.63400  0.17300  Biso   1.000  O
  O87      1.0000 0.71660  0.13400  0.32700  Biso   1.000  O
  O88      1.0000 0.78340  0.86600  0.82700  Biso   1.000  O
  O89      1.0000 0.86600  0.82700  0.78340  Biso   1.000  O
  O90      1.0000 0.13400  0.32700  0.71660  Biso   1.000  O
  O91      1.0000 0.63400  0.17300  0.28340  Biso   1.000  O
  O92      1.0000 0.36600  0.67300  0.21660  Biso   1.000  O
  O93      1.0000 0.32700  0.71660  0.13400  Biso   1.000  O
  O94      1.0000 0.82700  0.78340  0.86600  Biso   1.000  O
  O95      1.0000 0.67300  0.21660  0.36600  Biso   1.000  O
  O96      1.0000 0.17300  0.28340  0.63400  Biso   1.000  O
  O97      1.0000 0.32340  0.09190  0.98890  Biso   1.000  O
  O98      1.0000 0.17660  0.90810  0.48890  Biso   1.000  O
  O99      1.0000 0.67660  0.59190  0.51110  Biso   1.000  O
  O100     1.0000 0.82340  0.40810  0.01110  Biso   1.000  O
  O101     1.0000 0.98890  0.32340  0.09190  Biso   1.000  O
  O102     1.0000 0.48890  0.17660  0.90810  Biso   1.000  O
  O103     1.0000 0.51110  0.67660  0.59190  Biso   1.000  O
  O104     1.0000 0.01110  0.82340  0.40810  Biso   1.000  O
  O105     1.0000 0.09190  0.98890  0.32340  Biso   1.000  O
  O106     1.0000 0.90810  0.48890  0.17660  Biso   1.000  O
  O107     1.0000 0.59190  0.51110  0.67660  Biso   1.000  O
  O108     1.0000 0.40810  0.01110  0.82340  Biso   1.000  O
  O109     1.0000 0.84190  0.57340  0.26110  Biso   1.000  O
  O110     1.0000 0.65810  0.42660  0.76110  Biso   1.000  O
  O111     1.0000 0.34190  0.92660  0.73890  Biso   1.000  O
  O112     1.0000 0.15810  0.07340  0.23890  Biso   1.000  O
  O113     1.0000 0.07340  0.23890  0.15810  Biso   1.000  O
  O114     1.0000 0.92660  0.73890  0.34190  Biso   1.000  O
  O115     1.0000 0.42660  0.76110  0.65810  Biso   1.000  O
  O116     1.0000 0.57340  0.26110  0.84190  Biso   1.000  O
  O117     1.0000 0.73890  0.34190  0.92660  Biso   1.000  O
  O118     1.0000 0.23890  0.15810  0.07340  Biso   1.000  O
  O119     1.0000 0.26110  0.84190  0.57340  Biso   1.000  O
  O120     1.0000 0.76110  0.65810  0.42660  Biso   1.000  O
  O121     1.0000 0.82340  0.59190  0.48890  Biso   1.000  O
  O122     1.0000 0.67660  0.40810  0.98890  Biso   1.000  O
  O123     1.0000 0.17660  0.09190  0.01110  Biso   1.000  O
  O124     1.0000 0.32340  0.90810  0.51110  Biso   1.000  O
  O125     1.0000 0.48890  0.82340  0.59190  Biso   1.000  O
  O126     1.0000 0.98890  0.67660  0.40810  Biso   1.000  O
  O127     1.0000 0.01110  0.17660  0.09190  Biso   1.000  O
  O128     1.0000 0.51110  0.32340  0.90810  Biso   1.000  O
  O129     1.0000 0.59190  0.48890  0.82340  Biso   1.000  O
  O130     1.0000 0.40810  0.98890  0.67660  Biso   1.000  O
  O131     1.0000 0.09190  0.01110  0.17660  Biso   1.000  O
  O132     1.0000 0.90810  0.51110  0.32340  Biso   1.000  O
  O133     1.0000 0.34190  0.07340  0.76110  Biso   1.000  O
  O134     1.0000 0.15810  0.92660  0.26110  Biso   1.000  O
  O135     1.0000 0.84190  0.42660  0.23890  Biso   1.000  O
  O136     1.0000 0.65810  0.57340  0.73890  Biso   1.000  O
  O137     1.0000 0.57340  0.73890  0.65810  Biso   1.000  O
  O138     1.0000 0.42660  0.23890  0.84190  Biso   1.000  O
  O139     1.0000 0.92660  0.26110  0.15810  Biso   1.000  O
  O140     1.0000 0.07340  0.76110  0.34190  Biso   1.000  O
  O141     1.0000 0.23890  0.84190  0.42660  Biso   1.000  O
  O142     1.0000 0.73890  0.65810  0.57340  Biso   1.000  O
  O143     1.0000 0.76110  0.34190  0.07340  Biso   1.000  O
  O144     1.0000 0.26110  0.15810  0.92660  Biso   1.000  O
  O145     1.0000 0.67660  0.90810  0.01110  Biso   1.000  O
  O146     1.0000 0.82340  0.09190  0.51110  Biso   1.000  O
  O147     1.0000 0.32340  0.40810  0.48890  Biso   1.000  O
  O148     1.0000 0.17660  0.59190  0.98890  Biso   1.000  O
  O149     1.0000 0.01110  0.67660  0.90810  Biso   1.000  O
  O150     1.0000 0.51110  0.82340  0.09190  Biso   1.000  O
  O151     1.0000 0.48890  0.32340  0.40810  Biso   1.000  O
  O152     1.0000 0.98890  0.17660  0.59190  Biso   1.000  O
  O153     1.0000 0.90810  0.01110  0.67660  Biso   1.000  O
  O154     1.0000 0.09190  0.51110  0.82340  Biso   1.000  O
  O155     1.0000 0.40810  0.48890  0.32340  Biso   1.000  O
  O156     1.0000 0.59190  0.98890  0.17660  Biso   1.000  O
  O157     1.0000 0.65810  0.92660  0.23890  Biso   1.000  O
  O158     1.0000 0.84190  0.07340  0.73890  Biso   1.000  O
  O159     1.0000 0.15810  0.57340  0.76110  Biso   1.000  O
  O160     1.0000 0.34190  0.42660  0.26110  Biso   1.000  O
  O161     1.0000 0.42660  0.26110  0.34190  Biso   1.000  O
  O162     1.0000 0.57340  0.76110  0.15810  Biso   1.000  O
  O163     1.0000 0.07340  0.73890  0.84190  Biso   1.000  O
  O164     1.0000 0.92660  0.23890  0.65810  Biso   1.000  O
  O165     1.0000 0.76110  0.15810  0.57340  Biso   1.000  O
  O166     1.0000 0.26110  0.34190  0.42660  Biso   1.000  O
  O167     1.0000 0.23890  0.65810  0.92660  Biso   1.000  O
  O168     1.0000 0.73890  0.84190  0.07340  Biso   1.000  O
  O169     1.0000 0.17660  0.40810  0.51110  Biso   1.000  O
  O170     1.0000 0.32340  0.59190  0.01110  Biso   1.000  O
  O171     1.0000 0.82340  0.90810  0.98890  Biso   1.000  O
  O172     1.0000 0.67660  0.09190  0.48890  Biso   1.000  O
  O173     1.0000 0.51110  0.17660  0.40810  Biso   1.000  O
  O174     1.0000 0.01110  0.32340  0.59190  Biso   1.000  O
  O175     1.0000 0.98890  0.82340  0.90810  Biso   1.000  O
  O176     1.0000 0.48890  0.67660  0.09190  Biso   1.000  O
  O177     1.0000 0.40810  0.51110  0.17660  Biso   1.000  O
  O178     1.0000 0.59190  0.01110  0.32340  Biso   1.000  O
  O179     1.0000 0.90810  0.98890  0.82340  Biso   1.000  O
  O180     1.0000 0.09190  0.48890  0.67660  Biso   1.000  O
  O181     1.0000 0.15810  0.42660  0.73890  Biso   1.000  O
  O182     1.0000 0.34190  0.57340  0.23890  Biso   1.000  O
  O183     1.0000 0.65810  0.07340  0.26110  Biso   1.000  O
  O184     1.0000 0.84190  0.92660  0.76110  Biso   1.000  O
  O185     1.0000 0.92660  0.76110  0.84190  Biso   1.000  O
  O186     1.0000 0.07340  0.26110  0.65810  Biso   1.000  O
  O187     1.0000 0.57340  0.23890  0.34190  Biso   1.000  O
  O188     1.0000 0.42660  0.73890  0.15810  Biso   1.000  O
  O189     1.0000 0.26110  0.65810  0.07340  Biso   1.000  O
  O190     1.0000 0.76110  0.84190  0.92660  Biso   1.000  O
  O191     1.0000 0.73890  0.15810  0.42660  Biso   1.000  O
  O192     1.0000 0.23890  0.34190  0.57340  Biso   1.000  O
  O193     1.0000 0.46370  0.03630  0.96370  Biso   1.000  O
  O194     1.0000 0.03630  0.96370  0.46370  Biso   1.000  O
  O195     1.0000 0.53630  0.53630  0.53630  Biso   1.000  O
  O196     1.0000 0.96370  0.46370  0.03630  Biso   1.000  O
  O197     1.0000 0.78630  0.71370  0.28630  Biso   1.000  O
  O198     1.0000 0.71370  0.28630  0.78630  Biso   1.000  O
  O199     1.0000 0.28630  0.78630  0.71370  Biso   1.000  O
  O200     1.0000 0.21370  0.21370  0.21370  Biso   1.000  O
  O201     1.0000 0.96370  0.53630  0.46370  Biso   1.000  O
  O202     1.0000 0.53630  0.46370  0.96370  Biso   1.000  O
  O203     1.0000 0.03630  0.03630  0.03630  Biso   1.000  O
  O204     1.0000 0.46370  0.96370  0.53630  Biso   1.000  O
  O205     1.0000 0.28630  0.21370  0.78630  Biso   1.000  O
  O206     1.0000 0.21370  0.78630  0.28630  Biso   1.000  O
  O207     1.0000 0.78630  0.28630  0.21370  Biso   1.000  O
  O208     1.0000 0.71370  0.71370  0.71370  Biso   1.000  O
  O209     1.0000 0.53630  0.96370  0.03630  Biso   1.000  O
  O210     1.0000 0.96370  0.03630  0.53630  Biso   1.000  O
  O211     1.0000 0.46370  0.46370  0.46370  Biso   1.000  O
  O212     1.0000 0.03630  0.53630  0.96370  Biso   1.000  O
  O213     1.0000 0.71370  0.78630  0.21370  Biso   1.000  O
  O214     1.0000 0.78630  0.21370  0.71370  Biso   1.000  O
  O215     1.0000 0.21370  0.71370  0.78630  Biso   1.000  O
  O216     1.0000 0.28630  0.28630  0.28630  Biso   1.000  O
  O217     1.0000 0.03630  0.46370  0.53630  Biso   1.000  O
  O218     1.0000 0.46370  0.53630  0.03630  Biso   1.000  O
  O219     1.0000 0.96370  0.96370  0.96370  Biso   1.000  O
  O220     1.0000 0.53630  0.03630  0.46370  Biso   1.000  O
  O221     1.0000 0.21370  0.28630  0.71370  Biso   1.000  O
  O222     1.0000 0.28630  0.71370  0.21370  Biso   1.000  O
  O223     1.0000 0.71370  0.21370  0.28630  Biso   1.000  O
  O224     1.0000 0.78630  0.78630  0.78630  Biso   1.000  O
  O225     1.0000 0.35900  0.99470  0.01170  Biso   1.000  O
  O226     1.0000 0.14100  0.00530  0.51170  Biso   1.000  O
  O227     1.0000 0.64100  0.49470  0.48830  Biso   1.000  O
  O228     1.0000 0.85900  0.50530  0.98830  Biso   1.000  O
  O229     1.0000 0.01170  0.35900  0.99470  Biso   1.000  O
  O230     1.0000 0.51170  0.14100  0.00530  Biso   1.000  O
  O231     1.0000 0.48830  0.64100  0.49470  Biso   1.000  O
  O232     1.0000 0.98830  0.85900  0.50530  Biso   1.000  O
  O233     1.0000 0.99470  0.01170  0.35900  Biso   1.000  O
  O234     1.0000 0.00530  0.51170  0.14100  Biso   1.000  O
  O235     1.0000 0.49470  0.48830  0.64100  Biso   1.000  O
  O236     1.0000 0.50530  0.98830  0.85900  Biso   1.000  O
  O237     1.0000 0.74470  0.60900  0.23830  Biso   1.000  O
  O238     1.0000 0.75530  0.39100  0.73830  Biso   1.000  O
  O239     1.0000 0.24470  0.89100  0.76170  Biso   1.000  O
  O240     1.0000 0.25530  0.10900  0.26170  Biso   1.000  O
  O241     1.0000 0.10900  0.26170  0.25530  Biso   1.000  O
  O242     1.0000 0.89100  0.76170  0.24470  Biso   1.000  O
  O243     1.0000 0.39100  0.73830  0.75530  Biso   1.000  O
  O244     1.0000 0.60900  0.23830  0.74470  Biso   1.000  O
  O245     1.0000 0.76170  0.24470  0.89100  Biso   1.000  O
  O246     1.0000 0.26170  0.25530  0.10900  Biso   1.000  O
  O247     1.0000 0.23830  0.74470  0.60900  Biso   1.000  O
  O248     1.0000 0.73830  0.75530  0.39100  Biso   1.000  O
  O249     1.0000 0.85900  0.49470  0.51170  Biso   1.000  O
  O250     1.0000 0.64100  0.50530  0.01170  Biso   1.000  O
  O251     1.0000 0.14100  0.99470  0.98830  Biso   1.000  O
  O252     1.0000 0.35900  0.00530  0.48830  Biso   1.000  O
  O253     1.0000 0.51170  0.85900  0.49470  Biso   1.000  O
  O254     1.0000 0.01170  0.64100  0.50530  Biso   1.000  O
  O255     1.0000 0.98830  0.14100  0.99470  Biso   1.000  O
  O256     1.0000 0.48830  0.35900  0.00530  Biso   1.000  O
  O257     1.0000 0.49470  0.51170  0.85900  Biso   1.000  O
  O258     1.0000 0.50530  0.01170  0.64100  Biso   1.000  O
  O259     1.0000 0.99470  0.98830  0.14100  Biso   1.000  O
  O260     1.0000 0.00530  0.48830  0.35900  Biso   1.000  O
  O261     1.0000 0.24470  0.10900  0.73830  Biso   1.000  O
  O262     1.0000 0.25530  0.89100  0.23830  Biso   1.000  O
  O263     1.0000 0.74470  0.39100  0.26170  Biso   1.000  O
  O264     1.0000 0.75530  0.60900  0.76170  Biso   1.000  O
  O265     1.0000 0.60900  0.76170  0.75530  Biso   1.000  O
  O266     1.0000 0.39100  0.26170  0.74470  Biso   1.000  O
  O267     1.0000 0.89100  0.23830  0.25530  Biso   1.000  O
  O268     1.0000 0.10900  0.73830  0.24470  Biso   1.000  O
  O269     1.0000 0.26170  0.74470  0.39100  Biso   1.000  O
  O270     1.0000 0.76170  0.75530  0.60900  Biso   1.000  O
  O271     1.0000 0.73830  0.24470  0.10900  Biso   1.000  O
  O272     1.0000 0.23830  0.25530  0.89100  Biso   1.000  O
  O273     1.0000 0.64100  0.00530  0.98830  Biso   1.000  O
  O274     1.0000 0.85900  0.99470  0.48830  Biso   1.000  O
  O275     1.0000 0.35900  0.50530  0.51170  Biso   1.000  O
  O276     1.0000 0.14100  0.49470  0.01170  Biso   1.000  O
  O277     1.0000 0.98830  0.64100  0.00530  Biso   1.000  O
  O278     1.0000 0.48830  0.85900  0.99470  Biso   1.000  O
  O279     1.0000 0.51170  0.35900  0.50530  Biso   1.000  O
  O280     1.0000 0.01170  0.14100  0.49470  Biso   1.000  O
  O281     1.0000 0.00530  0.98830  0.64100  Biso   1.000  O
  O282     1.0000 0.99470  0.48830  0.85900  Biso   1.000  O
  O283     1.0000 0.50530  0.51170  0.35900  Biso   1.000  O
  O284     1.0000 0.49470  0.01170  0.14100  Biso   1.000  O
  O285     1.0000 0.75530  0.89100  0.26170  Biso   1.000  O
  O286     1.0000 0.74470  0.10900  0.76170  Biso   1.000  O
  O287     1.0000 0.25530  0.60900  0.73830  Biso   1.000  O
  O288     1.0000 0.24470  0.39100  0.23830  Biso   1.000  O
  O289     1.0000 0.39100  0.23830  0.24470  Biso   1.000  O
  O290     1.0000 0.60900  0.73830  0.25530  Biso   1.000  O
  O291     1.0000 0.10900  0.76170  0.74470  Biso   1.000  O
  O292     1.0000 0.89100  0.26170  0.75530  Biso   1.000  O
  O293     1.0000 0.73830  0.25530  0.60900  Biso   1.000  O
  O294     1.0000 0.23830  0.24470  0.39100  Biso   1.000  O
  O295     1.0000 0.26170  0.75530  0.89100  Biso   1.000  O
  O296     1.0000 0.76170  0.74470  0.10900  Biso   1.000  O
  O297     1.0000 0.14100  0.50530  0.48830  Biso   1.000  O
  O298     1.0000 0.35900  0.49470  0.98830  Biso   1.000  O
  O299     1.0000 0.85900  0.00530  0.01170  Biso   1.000  O
  O300     1.0000 0.64100  0.99470  0.51170  Biso   1.000  O
  O301     1.0000 0.48830  0.14100  0.50530  Biso   1.000  O
  O302     1.0000 0.98830  0.35900  0.49470  Biso   1.000  O
  O303     1.0000 0.01170  0.85900  0.00530  Biso   1.000  O
  O304     1.0000 0.51170  0.64100  0.99470  Biso   1.000  O
  O305     1.0000 0.50530  0.48830  0.14100  Biso   1.000  O
  O306     1.0000 0.49470  0.98830  0.35900  Biso   1.000  O
  O307     1.0000 0.00530  0.01170  0.85900  Biso   1.000  O
  O308     1.0000 0.99470  0.51170  0.64100  Biso   1.000  O
  O309     1.0000 0.25530  0.39100  0.76170  Biso   1.000  O
  O310     1.0000 0.24470  0.60900  0.26170  Biso   1.000  O
  O311     1.0000 0.75530  0.10900  0.23830  Biso   1.000  O
  O312     1.0000 0.74470  0.89100  0.73830  Biso   1.000  O
  O313     1.0000 0.89100  0.73830  0.74470  Biso   1.000  O
  O314     1.0000 0.10900  0.23830  0.75530  Biso   1.000  O
  O315     1.0000 0.60900  0.26170  0.24470  Biso   1.000  O
  O316     1.0000 0.39100  0.76170  0.25530  Biso   1.000  O
  O317     1.0000 0.23830  0.75530  0.10900  Biso   1.000  O
  O318     1.0000 0.73830  0.74470  0.89100  Biso   1.000  O
  O319     1.0000 0.76170  0.25530  0.39100  Biso   1.000  O
  O320     1.0000 0.26170  0.24470  0.60900  Biso   1.000  O
  O321     1.0000 0.39840  0.90310  0.98500  Biso   1.000  O
  O322     1.0000 0.10160  0.09690  0.48500  Biso   1.000  O
  O323     1.0000 0.60160  0.40310  0.51500  Biso   1.000  O
  O324     1.0000 0.89840  0.59690  0.01500  Biso   1.000  O
  O325     1.0000 0.98500  0.39840  0.90310  Biso   1.000  O
  O326     1.0000 0.48500  0.10160  0.09690  Biso   1.000  O
  O327     1.0000 0.51500  0.60160  0.40310  Biso   1.000  O
  O328     1.0000 0.01500  0.89840  0.59690  Biso   1.000  O
  O329     1.0000 0.90310  0.98500  0.39840  Biso   1.000  O
  O330     1.0000 0.09690  0.48500  0.10160  Biso   1.000  O
  O331     1.0000 0.40310  0.51500  0.60160  Biso   1.000  O
  O332     1.0000 0.59690  0.01500  0.89840  Biso   1.000  O
  O333     1.0000 0.65310  0.64840  0.26500  Biso   1.000  O
  O334     1.0000 0.84690  0.35160  0.76500  Biso   1.000  O
  O335     1.0000 0.15310  0.85160  0.73500  Biso   1.000  O
  O336     1.0000 0.34690  0.14840  0.23500  Biso   1.000  O
  O337     1.0000 0.14840  0.23500  0.34690  Biso   1.000  O
  O338     1.0000 0.85160  0.73500  0.15310  Biso   1.000  O
  O339     1.0000 0.35160  0.76500  0.84690  Biso   1.000  O
  O340     1.0000 0.64840  0.26500  0.65310  Biso   1.000  O
  O341     1.0000 0.73500  0.15310  0.85160  Biso   1.000  O
  O342     1.0000 0.23500  0.34690  0.14840  Biso   1.000  O
  O343     1.0000 0.26500  0.65310  0.64840  Biso   1.000  O
  O344     1.0000 0.76500  0.84690  0.35160  Biso   1.000  O
  O345     1.0000 0.89840  0.40310  0.48500  Biso   1.000  O
  O346     1.0000 0.60160  0.59690  0.98500  Biso   1.000  O
  O347     1.0000 0.10160  0.90310  0.01500  Biso   1.000  O
  O348     1.0000 0.39840  0.09690  0.51500  Biso   1.000  O
  O349     1.0000 0.48500  0.89840  0.40310  Biso   1.000  O
  O350     1.0000 0.98500  0.60160  0.59690  Biso   1.000  O
  O351     1.0000 0.01500  0.10160  0.90310  Biso   1.000  O
  O352     1.0000 0.51500  0.39840  0.09690  Biso   1.000  O
  O353     1.0000 0.40310  0.48500  0.89840  Biso   1.000  O
  O354     1.0000 0.59690  0.98500  0.60160  Biso   1.000  O
  O355     1.0000 0.90310  0.01500  0.10160  Biso   1.000  O
  O356     1.0000 0.09690  0.51500  0.39840  Biso   1.000  O
  O357     1.0000 0.15310  0.14840  0.76500  Biso   1.000  O
  O358     1.0000 0.34690  0.85160  0.26500  Biso   1.000  O
  O359     1.0000 0.65310  0.35160  0.23500  Biso   1.000  O
  O360     1.0000 0.84690  0.64840  0.73500  Biso   1.000  O
  O361     1.0000 0.64840  0.73500  0.84690  Biso   1.000  O
  O362     1.0000 0.35160  0.23500  0.65310  Biso   1.000  O
  O363     1.0000 0.85160  0.26500  0.34690  Biso   1.000  O
  O364     1.0000 0.14840  0.76500  0.15310  Biso   1.000  O
  O365     1.0000 0.23500  0.65310  0.35160  Biso   1.000  O
  O366     1.0000 0.73500  0.84690  0.64840  Biso   1.000  O
  O367     1.0000 0.76500  0.15310  0.14840  Biso   1.000  O
  O368     1.0000 0.26500  0.34690  0.85160  Biso   1.000  O
  O369     1.0000 0.60160  0.09690  0.01500  Biso   1.000  O
  O370     1.0000 0.89840  0.90310  0.51500  Biso   1.000  O
  O371     1.0000 0.39840  0.59690  0.48500  Biso   1.000  O
  O372     1.0000 0.10160  0.40310  0.98500  Biso   1.000  O
  O373     1.0000 0.01500  0.60160  0.09690  Biso   1.000  O
  O374     1.0000 0.51500  0.89840  0.90310  Biso   1.000  O
  O375     1.0000 0.48500  0.39840  0.59690  Biso   1.000  O
  O376     1.0000 0.98500  0.10160  0.40310  Biso   1.000  O
  O377     1.0000 0.09690  0.01500  0.60160  Biso   1.000  O
  O378     1.0000 0.90310  0.51500  0.89840  Biso   1.000  O
  O379     1.0000 0.59690  0.48500  0.39840  Biso   1.000  O
  O380     1.0000 0.40310  0.98500  0.10160  Biso   1.000  O
  O381     1.0000 0.84690  0.85160  0.23500  Biso   1.000  O
  O382     1.0000 0.65310  0.14840  0.73500  Biso   1.000  O
  O383     1.0000 0.34690  0.64840  0.76500  Biso   1.000  O
  O384     1.0000 0.15310  0.35160  0.26500  Biso   1.000  O
  O385     1.0000 0.35160  0.26500  0.15310  Biso   1.000  O
  O386     1.0000 0.64840  0.76500  0.34690  Biso   1.000  O
  O387     1.0000 0.14840  0.73500  0.65310  Biso   1.000  O
  O388     1.0000 0.85160  0.23500  0.84690  Biso   1.000  O
  O389     1.0000 0.76500  0.34690  0.64840  Biso   1.000  O
  O390     1.0000 0.26500  0.15310  0.35160  Biso   1.000  O
  O391     1.0000 0.23500  0.84690  0.85160  Biso   1.000  O
  O392     1.0000 0.73500  0.65310  0.14840  Biso   1.000  O
  O393     1.0000 0.10160  0.59690  0.51500  Biso   1.000  O
  O394     1.0000 0.39840  0.40310  0.01500  Biso   1.000  O
  O395     1.0000 0.89840  0.09690  0.98500  Biso   1.000  O
  O396     1.0000 0.60160  0.90310  0.48500  Biso   1.000  O
  O397     1.0000 0.51500  0.10160  0.59690  Biso   1.000  O
  O398     1.0000 0.01500  0.39840  0.40310  Biso   1.000  O
  O399     1.0000 0.98500  0.89840  0.09690  Biso   1.000  O
  O400     1.0000 0.48500  0.60160  0.90310  Biso   1.000  O
  O401     1.0000 0.59690  0.51500  0.10160  Biso   1.000  O
  O402     1.0000 0.40310  0.01500  0.39840  Biso   1.000  O
  O403     1.0000 0.09690  0.98500  0.89840  Biso   1.000  O
  O404     1.0000 0.90310  0.48500  0.60160  Biso   1.000  O
  O405     1.0000 0.34690  0.35160  0.73500  Biso   1.000  O
  O406     1.0000 0.15310  0.64840  0.23500  Biso   1.000  O
  O407     1.0000 0.84690  0.14840  0.26500  Biso   1.000  O
  O408     1.0000 0.65310  0.85160  0.76500  Biso   1.000  O
  O409     1.0000 0.85160  0.76500  0.65310  Biso   1.000  O
  O410     1.0000 0.14840  0.26500  0.84690  Biso   1.000  O
  O411     1.0000 0.64840  0.23500  0.15310  Biso   1.000  O
  O412     1.0000 0.35160  0.73500  0.34690  Biso   1.000  O
  O413     1.0000 0.26500  0.84690  0.14840  Biso   1.000  O
  O414     1.0000 0.76500  0.65310  0.85160  Biso   1.000  O
  O415     1.0000 0.73500  0.34690  0.35160  Biso   1.000  O
  O416     1.0000 0.23500  0.15310  0.64840  Biso   1.000  O
  O417     1.0000 0.44070  0.89660  0.07550  Biso   1.000  O
  O418     1.0000 0.05930  0.10340  0.57550  Biso   1.000  O
  O419     1.0000 0.55930  0.39660  0.42450  Biso   1.000  O
  O420     1.0000 0.94070  0.60340  0.92450  Biso   1.000  O
  O421     1.0000 0.07550  0.44070  0.89660  Biso   1.000  O
  O422     1.0000 0.57550  0.05930  0.10340  Biso   1.000  O
  O423     1.0000 0.42450  0.55930  0.39660  Biso   1.000  O
  O424     1.0000 0.92450  0.94070  0.60340  Biso   1.000  O
  O425     1.0000 0.89660  0.07550  0.44070  Biso   1.000  O
  O426     1.0000 0.10340  0.57550  0.05930  Biso   1.000  O
  O427     1.0000 0.39660  0.42450  0.55930  Biso   1.000  O
  O428     1.0000 0.60340  0.92450  0.94070  Biso   1.000  O
  O429     1.0000 0.64660  0.69070  0.17450  Biso   1.000  O
  O430     1.0000 0.85340  0.30930  0.67450  Biso   1.000  O
  O431     1.0000 0.14660  0.80930  0.82550  Biso   1.000  O
  O432     1.0000 0.35340  0.19070  0.32550  Biso   1.000  O
  O433     1.0000 0.19070  0.32550  0.35340  Biso   1.000  O
  O434     1.0000 0.80930  0.82550  0.14660  Biso   1.000  O
  O435     1.0000 0.30930  0.67450  0.85340  Biso   1.000  O
  O436     1.0000 0.69070  0.17450  0.64660  Biso   1.000  O
  O437     1.0000 0.82550  0.14660  0.80930  Biso   1.000  O
  O438     1.0000 0.32550  0.35340  0.19070  Biso   1.000  O
  O439     1.0000 0.17450  0.64660  0.69070  Biso   1.000  O
  O440     1.0000 0.67450  0.85340  0.30930  Biso   1.000  O
  O441     1.0000 0.94070  0.39660  0.57550  Biso   1.000  O
  O442     1.0000 0.55930  0.60340  0.07550  Biso   1.000  O
  O443     1.0000 0.05930  0.89660  0.92450  Biso   1.000  O
  O444     1.0000 0.44070  0.10340  0.42450  Biso   1.000  O
  O445     1.0000 0.57550  0.94070  0.39660  Biso   1.000  O
  O446     1.0000 0.07550  0.55930  0.60340  Biso   1.000  O
  O447     1.0000 0.92450  0.05930  0.89660  Biso   1.000  O
  O448     1.0000 0.42450  0.44070  0.10340  Biso   1.000  O
  O449     1.0000 0.39660  0.57550  0.94070  Biso   1.000  O
  O450     1.0000 0.60340  0.07550  0.55930  Biso   1.000  O
  O451     1.0000 0.89660  0.92450  0.05930  Biso   1.000  O
  O452     1.0000 0.10340  0.42450  0.44070  Biso   1.000  O
  O453     1.0000 0.14660  0.19070  0.67450  Biso   1.000  O
  O454     1.0000 0.35340  0.80930  0.17450  Biso   1.000  O
  O455     1.0000 0.64660  0.30930  0.32550  Biso   1.000  O
  O456     1.0000 0.85340  0.69070  0.82550  Biso   1.000  O
  O457     1.0000 0.69070  0.82550  0.85340  Biso   1.000  O
  O458     1.0000 0.30930  0.32550  0.64660  Biso   1.000  O
  O459     1.0000 0.80930  0.17450  0.35340  Biso   1.000  O
  O460     1.0000 0.19070  0.67450  0.14660  Biso   1.000  O
  O461     1.0000 0.32550  0.64660  0.30930  Biso   1.000  O
  O462     1.0000 0.82550  0.85340  0.69070  Biso   1.000  O
  O463     1.0000 0.67450  0.14660  0.19070  Biso   1.000  O
  O464     1.0000 0.17450  0.35340  0.80930  Biso   1.000  O
  O465     1.0000 0.55930  0.10340  0.92450  Biso   1.000  O
  O466     1.0000 0.94070  0.89660  0.42450  Biso   1.000  O
  O467     1.0000 0.44070  0.60340  0.57550  Biso   1.000  O
  O468     1.0000 0.05930  0.39660  0.07550  Biso   1.000  O
  O469     1.0000 0.92450  0.55930  0.10340  Biso   1.000  O
  O470     1.0000 0.42450  0.94070  0.89660  Biso   1.000  O
  O471     1.0000 0.57550  0.44070  0.60340  Biso   1.000  O
  O472     1.0000 0.07550  0.05930  0.39660  Biso   1.000  O
  O473     1.0000 0.10340  0.92450  0.55930  Biso   1.000  O
  O474     1.0000 0.89660  0.42450  0.94070  Biso   1.000  O
  O475     1.0000 0.60340  0.57550  0.44070  Biso   1.000  O
  O476     1.0000 0.39660  0.07550  0.05930  Biso   1.000  O
  O477     1.0000 0.85340  0.80930  0.32550  Biso   1.000  O
  O478     1.0000 0.64660  0.19070  0.82550  Biso   1.000  O
  O479     1.0000 0.35340  0.69070  0.67450  Biso   1.000  O
  O480     1.0000 0.14660  0.30930  0.17450  Biso   1.000  O
  O481     1.0000 0.30930  0.17450  0.14660  Biso   1.000  O
  O482     1.0000 0.69070  0.67450  0.35340  Biso   1.000  O
  O483     1.0000 0.19070  0.82550  0.64660  Biso   1.000  O
  O484     1.0000 0.80930  0.32550  0.85340  Biso   1.000  O
  O485     1.0000 0.67450  0.35340  0.69070  Biso   1.000  O
  O486     1.0000 0.17450  0.14660  0.30930  Biso   1.000  O
  O487     1.0000 0.32550  0.85340  0.80930  Biso   1.000  O
  O488     1.0000 0.82550  0.64660  0.19070  Biso   1.000  O
  O489     1.0000 0.05930  0.60340  0.42450  Biso   1.000  O
  O490     1.0000 0.44070  0.39660  0.92450  Biso   1.000  O
  O491     1.0000 0.94070  0.10340  0.07550  Biso   1.000  O
  O492     1.0000 0.55930  0.89660  0.57550  Biso   1.000  O
  O493     1.0000 0.42450  0.05930  0.60340  Biso   1.000  O
  O494     1.0000 0.92450  0.44070  0.39660  Biso   1.000  O
  O495     1.0000 0.07550  0.94070  0.10340  Biso   1.000  O
  O496     1.0000 0.57550  0.55930  0.89660  Biso   1.000  O
  O497     1.0000 0.60340  0.42450  0.05930  Biso   1.000  O
  O498     1.0000 0.39660  0.92450  0.44070  Biso   1.000  O
  O499     1.0000 0.10340  0.07550  0.94070  Biso   1.000  O
  O500     1.0000 0.89660  0.57550  0.55930  Biso   1.000  O
  O501     1.0000 0.35340  0.30930  0.82550  Biso   1.000  O
  O502     1.0000 0.14660  0.69070  0.32550  Biso   1.000  O
  O503     1.0000 0.85340  0.19070  0.17450  Biso   1.000  O
  O504     1.0000 0.64660  0.80930  0.67450  Biso   1.000  O
  O505     1.0000 0.80930  0.67450  0.64660  Biso   1.000  O
  O506     1.0000 0.19070  0.17450  0.85340  Biso   1.000  O
  O507     1.0000 0.69070  0.32550  0.14660  Biso   1.000  O
  O508     1.0000 0.30930  0.82550  0.35340  Biso   1.000  O
  O509     1.0000 0.17450  0.85340  0.19070  Biso   1.000  O
  O510     1.0000 0.67450  0.64660  0.80930  Biso   1.000  O
  O511     1.0000 0.82550  0.35340  0.30930  Biso   1.000  O
  O512     1.0000 0.32550  0.14660  0.69070  Biso   1.000  O
  O513     1.0000 0.33470  0.90970  0.06630  Biso   1.000  O
  O514     1.0000 0.16530  0.09030  0.56630  Biso   1.000  O
  O515     1.0000 0.66530  0.40970  0.43370  Biso   1.000  O
  O516     1.0000 0.83470  0.59030  0.93370  Biso   1.000  O
  O517     1.0000 0.06630  0.33470  0.90970  Biso   1.000  O
  O518     1.0000 0.56630  0.16530  0.09030  Biso   1.000  O
  O519     1.0000 0.43370  0.66530  0.40970  Biso   1.000  O
  O520     1.0000 0.93370  0.83470  0.59030  Biso   1.000  O
  O521     1.0000 0.90970  0.06630  0.33470  Biso   1.000  O
  O522     1.0000 0.09030  0.56630  0.16530  Biso   1.000  O
  O523     1.0000 0.40970  0.43370  0.66530  Biso   1.000  O
  O524     1.0000 0.59030  0.93370  0.83470  Biso   1.000  O
  O525     1.0000 0.65970  0.58470  0.18370  Biso   1.000  O
  O526     1.0000 0.84030  0.41530  0.68370  Biso   1.000  O
  O527     1.0000 0.15970  0.91530  0.81630  Biso   1.000  O
  O528     1.0000 0.34030  0.08470  0.31630  Biso   1.000  O
  O529     1.0000 0.08470  0.31630  0.34030  Biso   1.000  O
  O530     1.0000 0.91530  0.81630  0.15970  Biso   1.000  O
  O531     1.0000 0.41530  0.68370  0.84030  Biso   1.000  O
  O532     1.0000 0.58470  0.18370  0.65970  Biso   1.000  O
  O533     1.0000 0.81630  0.15970  0.91530  Biso   1.000  O
  O534     1.0000 0.31630  0.34030  0.08470  Biso   1.000  O
  O535     1.0000 0.18370  0.65970  0.58470  Biso   1.000  O
  O536     1.0000 0.68370  0.84030  0.41530  Biso   1.000  O
  O537     1.0000 0.83470  0.40970  0.56630  Biso   1.000  O
  O538     1.0000 0.66530  0.59030  0.06630  Biso   1.000  O
  O539     1.0000 0.16530  0.90970  0.93370  Biso   1.000  O
  O540     1.0000 0.33470  0.09030  0.43370  Biso   1.000  O
  O541     1.0000 0.56630  0.83470  0.40970  Biso   1.000  O
  O542     1.0000 0.06630  0.66530  0.59030  Biso   1.000  O
  O543     1.0000 0.93370  0.16530  0.90970  Biso   1.000  O
  O544     1.0000 0.43370  0.33470  0.09030  Biso   1.000  O
  O545     1.0000 0.40970  0.56630  0.83470  Biso   1.000  O
  O546     1.0000 0.59030  0.06630  0.66530  Biso   1.000  O
  O547     1.0000 0.90970  0.93370  0.16530  Biso   1.000  O
  O548     1.0000 0.09030  0.43370  0.33470  Biso   1.000  O
  O549     1.0000 0.15970  0.08470  0.68370  Biso   1.000  O
  O550     1.0000 0.34030  0.91530  0.18370  Biso   1.000  O
  O551     1.0000 0.65970  0.41530  0.31630  Biso   1.000  O
  O552     1.0000 0.84030  0.58470  0.81630  Biso   1.000  O
  O553     1.0000 0.58470  0.81630  0.84030  Biso   1.000  O
  O554     1.0000 0.41530  0.31630  0.65970  Biso   1.000  O
  O555     1.0000 0.91530  0.18370  0.34030  Biso   1.000  O
  O556     1.0000 0.08470  0.68370  0.15970  Biso   1.000  O
  O557     1.0000 0.31630  0.65970  0.41530  Biso   1.000  O
  O558     1.0000 0.81630  0.84030  0.58470  Biso   1.000  O
  O559     1.0000 0.68370  0.15970  0.08470  Biso   1.000  O
  O560     1.0000 0.18370  0.34030  0.91530  Biso   1.000  O
  O561     1.0000 0.66530  0.09030  0.93370  Biso   1.000  O
  O562     1.0000 0.83470  0.90970  0.43370  Biso   1.000  O
  O563     1.0000 0.33470  0.59030  0.56630  Biso   1.000  O
  O564     1.0000 0.16530  0.40970  0.06630  Biso   1.000  O
  O565     1.0000 0.93370  0.66530  0.09030  Biso   1.000  O
  O566     1.0000 0.43370  0.83470  0.90970  Biso   1.000  O
  O567     1.0000 0.56630  0.33470  0.59030  Biso   1.000  O
  O568     1.0000 0.06630  0.16530  0.40970  Biso   1.000  O
  O569     1.0000 0.09030  0.93370  0.66530  Biso   1.000  O
  O570     1.0000 0.90970  0.43370  0.83470  Biso   1.000  O
  O571     1.0000 0.59030  0.56630  0.33470  Biso   1.000  O
  O572     1.0000 0.40970  0.06630  0.16530  Biso   1.000  O
  O573     1.0000 0.84030  0.91530  0.31630  Biso   1.000  O
  O574     1.0000 0.65970  0.08470  0.81630  Biso   1.000  O
  O575     1.0000 0.34030  0.58470  0.68370  Biso   1.000  O
  O576     1.0000 0.15970  0.41530  0.18370  Biso   1.000  O
  O577     1.0000 0.41530  0.18370  0.15970  Biso   1.000  O
  O578     1.0000 0.58470  0.68370  0.34030  Biso   1.000  O
  O579     1.0000 0.08470  0.81630  0.65970  Biso   1.000  O
  O580     1.0000 0.91530  0.31630  0.84030  Biso   1.000  O
  O581     1.0000 0.68370  0.34030  0.58470  Biso   1.000  O
  O582     1.0000 0.18370  0.15970  0.41530  Biso   1.000  O
  O583     1.0000 0.31630  0.84030  0.91530  Biso   1.000  O
  O584     1.0000 0.81630  0.65970  0.08470  Biso   1.000  O
  O585     1.0000 0.16530  0.59030  0.43370  Biso   1.000  O
  O586     1.0000 0.33470  0.40970  0.93370  Biso   1.000  O
  O587     1.0000 0.83470  0.09030  0.06630  Biso   1.000  O
  O588     1.0000 0.66530  0.90970  0.56630  Biso   1.000  O
  O589     1.0000 0.43370  0.16530  0.59030  Biso   1.000  O
  O590     1.0000 0.93370  0.33470  0.40970  Biso   1.000  O
  O591     1.0000 0.06630  0.83470  0.09030  Biso   1.000  O
  O592     1.0000 0.56630  0.66530  0.90970  Biso   1.000  O
  O593     1.0000 0.59030  0.43370  0.16530  Biso   1.000  O
  O594     1.0000 0.40970  0.93370  0.33470  Biso   1.000  O
  O595     1.0000 0.09030  0.06630  0.83470  Biso   1.000  O
  O596     1.0000 0.90970  0.56630  0.66530  Biso   1.000  O
  O597     1.0000 0.34030  0.41530  0.81630  Biso   1.000  O
  O598     1.0000 0.15970  0.58470  0.31630  Biso   1.000  O
  O599     1.0000 0.84030  0.08470  0.18370  Biso   1.000  O
  O600     1.0000 0.65970  0.91530  0.68370  Biso   1.000  O
  O601     1.0000 0.91530  0.68370  0.65970  Biso   1.000  O
  O602     1.0000 0.08470  0.18370  0.84030  Biso   1.000  O
  O603     1.0000 0.58470  0.31630  0.15970  Biso   1.000  O
  O604     1.0000 0.41530  0.81630  0.34030  Biso   1.000  O
  O605     1.0000 0.18370  0.84030  0.08470  Biso   1.000  O
  O606     1.0000 0.68370  0.65970  0.91530  Biso   1.000  O
  O607     1.0000 0.81630  0.34030  0.41530  Biso   1.000  O
  O608     1.0000 0.31630  0.15970  0.58470  Biso   1.000  O
  O609     1.0000 0.55120  0.99320  0.97070  Biso   1.000  O
  O610     1.0000 0.94880  0.00680  0.47070  Biso   1.000  O
  O611     1.0000 0.44880  0.49320  0.52930  Biso   1.000  O
  O612     1.0000 0.05120  0.50680  0.02930  Biso   1.000  O
  O613     1.0000 0.97070  0.55120  0.99320  Biso   1.000  O
  O614     1.0000 0.47070  0.94880  0.00680  Biso   1.000  O
  O615     1.0000 0.52930  0.44880  0.49320  Biso   1.000  O
  O616     1.0000 0.02930  0.05120  0.50680  Biso   1.000  O
  O617     1.0000 0.99320  0.97070  0.55120  Biso   1.000  O
  O618     1.0000 0.00680  0.47070  0.94880  Biso   1.000  O
  O619     1.0000 0.49320  0.52930  0.44880  Biso   1.000  O
  O620     1.0000 0.50680  0.02930  0.05120  Biso   1.000  O
  O621     1.0000 0.74320  0.80120  0.27930  Biso   1.000  O
  O622     1.0000 0.75680  0.19880  0.77930  Biso   1.000  O
  O623     1.0000 0.24320  0.69880  0.72070  Biso   1.000  O
  O624     1.0000 0.25680  0.30120  0.22070  Biso   1.000  O
  O625     1.0000 0.30120  0.22070  0.25680  Biso   1.000  O
  O626     1.0000 0.69880  0.72070  0.24320  Biso   1.000  O
  O627     1.0000 0.19880  0.77930  0.75680  Biso   1.000  O
  O628     1.0000 0.80120  0.27930  0.74320  Biso   1.000  O
  O629     1.0000 0.72070  0.24320  0.69880  Biso   1.000  O
  O630     1.0000 0.22070  0.25680  0.30120  Biso   1.000  O
  O631     1.0000 0.27930  0.74320  0.80120  Biso   1.000  O
  O632     1.0000 0.77930  0.75680  0.19880  Biso   1.000  O
  O633     1.0000 0.05120  0.49320  0.47070  Biso   1.000  O
  O634     1.0000 0.44880  0.50680  0.97070  Biso   1.000  O
  O635     1.0000 0.94880  0.99320  0.02930  Biso   1.000  O
  O636     1.0000 0.55120  0.00680  0.52930  Biso   1.000  O
  O637     1.0000 0.47070  0.05120  0.49320  Biso   1.000  O
  O638     1.0000 0.97070  0.44880  0.50680  Biso   1.000  O
  O639     1.0000 0.02930  0.94880  0.99320  Biso   1.000  O
  O640     1.0000 0.52930  0.55120  0.00680  Biso   1.000  O
  O641     1.0000 0.49320  0.47070  0.05120  Biso   1.000  O
  O642     1.0000 0.50680  0.97070  0.44880  Biso   1.000  O
  O643     1.0000 0.99320  0.02930  0.94880  Biso   1.000  O
  O644     1.0000 0.00680  0.52930  0.55120  Biso   1.000  O
  O645     1.0000 0.24320  0.30120  0.77930  Biso   1.000  O
  O646     1.0000 0.25680  0.69880  0.27930  Biso   1.000  O
  O647     1.0000 0.74320  0.19880  0.22070  Biso   1.000  O
  O648     1.0000 0.75680  0.80120  0.72070  Biso   1.000  O
  O649     1.0000 0.80120  0.72070  0.75680  Biso   1.000  O
  O650     1.0000 0.19880  0.22070  0.74320  Biso   1.000  O
  O651     1.0000 0.69880  0.27930  0.25680  Biso   1.000  O
  O652     1.0000 0.30120  0.77930  0.24320  Biso   1.000  O
  O653     1.0000 0.22070  0.74320  0.19880  Biso   1.000  O
  O654     1.0000 0.72070  0.75680  0.80120  Biso   1.000  O
  O655     1.0000 0.77930  0.24320  0.30120  Biso   1.000  O
  O656     1.0000 0.27930  0.25680  0.69880  Biso   1.000  O
  O657     1.0000 0.44880  0.00680  0.02930  Biso   1.000  O
  O658     1.0000 0.05120  0.99320  0.52930  Biso   1.000  O
  O659     1.0000 0.55120  0.50680  0.47070  Biso   1.000  O
  O660     1.0000 0.94880  0.49320  0.97070  Biso   1.000  O
  O661     1.0000 0.02930  0.44880  0.00680  Biso   1.000  O
  O662     1.0000 0.52930  0.05120  0.99320  Biso   1.000  O
  O663     1.0000 0.47070  0.55120  0.50680  Biso   1.000  O
  O664     1.0000 0.97070  0.94880  0.49320  Biso   1.000  O
  O665     1.0000 0.00680  0.02930  0.44880  Biso   1.000  O
  O666     1.0000 0.99320  0.52930  0.05120  Biso   1.000  O
  O667     1.0000 0.50680  0.47070  0.55120  Biso   1.000  O
  O668     1.0000 0.49320  0.97070  0.94880  Biso   1.000  O
  O669     1.0000 0.75680  0.69880  0.22070  Biso   1.000  O
  O670     1.0000 0.74320  0.30120  0.72070  Biso   1.000  O
  O671     1.0000 0.25680  0.80120  0.77930  Biso   1.000  O
  O672     1.0000 0.24320  0.19880  0.27930  Biso   1.000  O
  O673     1.0000 0.19880  0.27930  0.24320  Biso   1.000  O
  O674     1.0000 0.80120  0.77930  0.25680  Biso   1.000  O
  O675     1.0000 0.30120  0.72070  0.74320  Biso   1.000  O
  O676     1.0000 0.69880  0.22070  0.75680  Biso   1.000  O
  O677     1.0000 0.77930  0.25680  0.80120  Biso   1.000  O
  O678     1.0000 0.27930  0.24320  0.19880  Biso   1.000  O
  O679     1.0000 0.22070  0.75680  0.69880  Biso   1.000  O
  O680     1.0000 0.72070  0.74320  0.30120  Biso   1.000  O
  O681     1.0000 0.94880  0.50680  0.52930  Biso   1.000  O
  O682     1.0000 0.55120  0.49320  0.02930  Biso   1.000  O
  O683     1.0000 0.05120  0.00680  0.97070  Biso   1.000  O
  O684     1.0000 0.44880  0.99320  0.47070  Biso   1.000  O
  O685     1.0000 0.52930  0.94880  0.50680  Biso   1.000  O
  O686     1.0000 0.02930  0.55120  0.49320  Biso   1.000  O
  O687     1.0000 0.97070  0.05120  0.00680  Biso   1.000  O
  O688     1.0000 0.47070  0.44880  0.99320  Biso   1.000  O
  O689     1.0000 0.50680  0.52930  0.94880  Biso   1.000  O
  O690     1.0000 0.49320  0.02930  0.55120  Biso   1.000  O
  O691     1.0000 0.00680  0.97070  0.05120  Biso   1.000  O
  O692     1.0000 0.99320  0.47070  0.44880  Biso   1.000  O
  O693     1.0000 0.25680  0.19880  0.72070  Biso   1.000  O
  O694     1.0000 0.24320  0.80120  0.22070  Biso   1.000  O
  O695     1.0000 0.75680  0.30120  0.27930  Biso   1.000  O
  O696     1.0000 0.74320  0.69880  0.77930  Biso   1.000  O
  O697     1.0000 0.69880  0.77930  0.74320  Biso   1.000  O
  O698     1.0000 0.30120  0.27930  0.75680  Biso   1.000  O
  O699     1.0000 0.80120  0.22070  0.24320  Biso   1.000  O
  O700     1.0000 0.19880  0.72070  0.25680  Biso   1.000  O
  O701     1.0000 0.27930  0.75680  0.30120  Biso   1.000  O
  O702     1.0000 0.77930  0.74320  0.69880  Biso   1.000  O
  O703     1.0000 0.72070  0.25680  0.19880  Biso   1.000  O
  O704     1.0000 0.22070  0.24320  0.80120  Biso   1.000  O
  P1       1.0000 0.50000  0.00000  0.00000  Biso   1.000  P
  P2       1.0000 0.00000  0.00000  0.50000  Biso   1.000  P
  P3       1.0000 0.50000  0.50000  0.50000  Biso   1.000  P
  P4       1.0000 0.00000  0.50000  0.00000  Biso   1.000  P
  P5       1.0000 0.75000  0.75000  0.25000  Biso   1.000  P
  P6       1.0000 0.75000  0.25000  0.75000  Biso   1.000  P
  P7       1.0000 0.25000  0.75000  0.75000  Biso   1.000  P
  P8       1.0000 0.25000  0.25000  0.25000  Biso   1.000  P
  P9       1.0000 0.00000  0.50000  0.50000  Biso   1.000  P
  P10      1.0000 0.50000  0.50000  0.00000  Biso   1.000  P
  P11      1.0000 0.00000  0.00000  0.00000  Biso   1.000  P
  P12      1.0000 0.50000  0.00000  0.50000  Biso   1.000  P
  P13      1.0000 0.25000  0.25000  0.75000  Biso   1.000  P
  P14      1.0000 0.25000  0.75000  0.25000  Biso   1.000  P
  P15      1.0000 0.75000  0.25000  0.25000  Biso   1.000  P
  P16      1.0000 0.75000  0.75000  0.75000  Biso   1.000  P
  O705     1.0000 0.25000  0.89860  0.00000  Biso   1.000  O
  O706     1.0000 0.25000  0.10140  0.50000  Biso   1.000  O
  O707     1.0000 0.75000  0.39860  0.50000  Biso   1.000  O
  O708     1.0000 0.75000  0.60140  0.00000  Biso   1.000  O
  O709     1.0000 0.00000  0.25000  0.89860  Biso   1.000  O
  O710     1.0000 0.50000  0.25000  0.10140  Biso   1.000  O
  O711     1.0000 0.50000  0.75000  0.39860  Biso   1.000  O
  O712     1.0000 0.00000  0.75000  0.60140  Biso   1.000  O
  O713     1.0000 0.89860  0.00000  0.25000  Biso   1.000  O
  O714     1.0000 0.10140  0.50000  0.25000  Biso   1.000  O
  O715     1.0000 0.39860  0.50000  0.75000  Biso   1.000  O
  O716     1.0000 0.60140  0.00000  0.75000  Biso   1.000  O
  O717     1.0000 0.64860  0.50000  0.25000  Biso   1.000  O
  O718     1.0000 0.85140  0.50000  0.75000  Biso   1.000  O
  O719     1.0000 0.14860  0.00000  0.75000  Biso   1.000  O
  O720     1.0000 0.35140  0.00000  0.25000  Biso   1.000  O
  O721     1.0000 0.00000  0.25000  0.35140  Biso   1.000  O
  O722     1.0000 0.00000  0.75000  0.14860  Biso   1.000  O
  O723     1.0000 0.50000  0.75000  0.85140  Biso   1.000  O
  O724     1.0000 0.50000  0.25000  0.64860  Biso   1.000  O
  O725     1.0000 0.75000  0.14860  0.00000  Biso   1.000  O
  O726     1.0000 0.25000  0.35140  0.00000  Biso   1.000  O
  O727     1.0000 0.25000  0.64860  0.50000  Biso   1.000  O
  O728     1.0000 0.75000  0.85140  0.50000  Biso   1.000  O
  O729     1.0000 0.75000  0.10140  0.00000  Biso   1.000  O
  O730     1.0000 0.75000  0.89860  0.50000  Biso   1.000  O
  O731     1.0000 0.25000  0.60140  0.50000  Biso   1.000  O
  O732     1.0000 0.25000  0.39860  0.00000  Biso   1.000  O
  O733     1.0000 0.00000  0.75000  0.10140  Biso   1.000  O
  O734     1.0000 0.50000  0.75000  0.89860  Biso   1.000  O
  O735     1.0000 0.50000  0.25000  0.60140  Biso   1.000  O
  O736     1.0000 0.00000  0.25000  0.39860  Biso   1.000  O
  O737     1.0000 0.10140  0.00000  0.75000  Biso   1.000  O
  O738     1.0000 0.89860  0.50000  0.75000  Biso   1.000  O
  O739     1.0000 0.60140  0.50000  0.25000  Biso   1.000  O
  O740     1.0000 0.39860  0.00000  0.25000  Biso   1.000  O
  O741     1.0000 0.85140  0.00000  0.25000  Biso   1.000  O
  O742     1.0000 0.64860  0.00000  0.75000  Biso   1.000  O
  O743     1.0000 0.35140  0.50000  0.75000  Biso   1.000  O
  O744     1.0000 0.14860  0.50000  0.25000  Biso   1.000  O
  O745     1.0000 0.50000  0.25000  0.14860  Biso   1.000  O
  O746     1.0000 0.50000  0.75000  0.35140  Biso   1.000  O
  O747     1.0000 0.00000  0.75000  0.64860  Biso   1.000  O
  O748     1.0000 0.00000  0.25000  0.85140  Biso   1.000  O
  O749     1.0000 0.75000  0.35140  0.50000  Biso   1.000  O
  O750     1.0000 0.25000  0.14860  0.50000  Biso   1.000  O
  O751     1.0000 0.25000  0.85140  0.00000  Biso   1.000  O
  O752     1.0000 0.75000  0.64860  0.00000  Biso   1.000  O
