data_image0
_cell_length_a       16.363
_cell_length_b       27.062
_cell_length_c       26.853
_cell_angle_alpha    90
_cell_angle_beta     90
_cell_angle_gamma    90

_symmetry_space_group_name_H-M    "P 1"
_symmetry_int_tables_number       1

loop_
  _symmetry_equiv_pos_as_xyz
  'x, y, z'

loop_
  _atom_site_label
  _atom_site_occupancy
  _atom_site_fract_x
  _atom_site_fract_y
  _atom_site_fract_z
  _atom_site_thermal_displace_type
  _atom_site_B_iso_or_equiv
  _atom_site_type_symbol
  Ba1      1.0000 0.00097  0.51191  0.79377  Biso   1.000  Ba
  Ba2      1.0000 0.99903  0.98809  0.29377  Biso   1.000  Ba
  Ba3      1.0000 0.50097  0.48809  0.70623  Biso   1.000  Ba
  Ba4      1.0000 0.49903  0.01191  0.20623  Biso   1.000  Ba
  Ba5      1.0000 0.99903  0.48809  0.20623  Biso   1.000  Ba
  Ba6      1.0000 0.00097  0.01191  0.70623  Biso   1.000  Ba
  Ba7      1.0000 0.49903  0.51191  0.29377  Biso   1.000  Ba
  Ba8      1.0000 0.50097  0.98809  0.79377  Biso   1.000  Ba
  Ba9      1.0000 0.75028  0.53812  0.74016  Biso   1.000  Ba
  Ba10     1.0000 0.24972  0.96188  0.24016  Biso   1.000  Ba
  Ba11     1.0000 0.25028  0.46188  0.75984  Biso   1.000  Ba
  Ba12     1.0000 0.74972  0.03812  0.25984  Biso   1.000  Ba
  Ba13     1.0000 0.24972  0.46188  0.25984  Biso   1.000  Ba
  Ba14     1.0000 0.75028  0.03812  0.75984  Biso   1.000  Ba
  Ba15     1.0000 0.74972  0.53812  0.24016  Biso   1.000  Ba
  Ba16     1.0000 0.25028  0.96188  0.74016  Biso   1.000  Ba
  I1       1.0000 0.98855  0.72121  0.45089  Biso   1.000  I
  I2       1.0000 0.01145  0.77879  0.95089  Biso   1.000  I
  I3       1.0000 0.48855  0.27879  0.04911  Biso   1.000  I
  I4       1.0000 0.51145  0.22121  0.54911  Biso   1.000  I
  I5       1.0000 0.01145  0.27879  0.54911  Biso   1.000  I
  I6       1.0000 0.98855  0.22121  0.04911  Biso   1.000  I
  I7       1.0000 0.51145  0.72121  0.95089  Biso   1.000  I
  I8       1.0000 0.48855  0.77879  0.45089  Biso   1.000  I
  I9       1.0000 0.77261  0.78057  0.54660  Biso   1.000  I
  I10      1.0000 0.22739  0.71943  0.04660  Biso   1.000  I
  I11      1.0000 0.27261  0.21943  0.95340  Biso   1.000  I
  I12      1.0000 0.72739  0.28057  0.45340  Biso   1.000  I
  I13      1.0000 0.22739  0.21943  0.45340  Biso   1.000  I
  I14      1.0000 0.77261  0.28057  0.95340  Biso   1.000  I
  I15      1.0000 0.72739  0.78057  0.04660  Biso   1.000  I
  I16      1.0000 0.27261  0.71943  0.54660  Biso   1.000  I
  Cu1      1.0000 0.83188  0.74703  0.46149  Biso   1.000  Cu
  Cu2      1.0000 0.16812  0.75297  0.96149  Biso   1.000  Cu
  Cu3      1.0000 0.33188  0.25297  0.03851  Biso   1.000  Cu
  Cu4      1.0000 0.66812  0.24703  0.53851  Biso   1.000  Cu
  Cu5      1.0000 0.16812  0.25297  0.53851  Biso   1.000  Cu
  Cu6      1.0000 0.83188  0.24703  0.03851  Biso   1.000  Cu
  Cu7      1.0000 0.66812  0.74703  0.96149  Biso   1.000  Cu
  Cu8      1.0000 0.33188  0.75297  0.46149  Biso   1.000  Cu
  Cu9      1.0000 0.93149  0.75363  0.53693  Biso   1.000  Cu
  Cu10     1.0000 0.06851  0.74637  0.03693  Biso   1.000  Cu
  Cu11     1.0000 0.43149  0.24637  0.96307  Biso   1.000  Cu
  Cu12     1.0000 0.56851  0.25363  0.46307  Biso   1.000  Cu
  Cu13     1.0000 0.06851  0.24637  0.46307  Biso   1.000  Cu
  Cu14     1.0000 0.93149  0.25363  0.96307  Biso   1.000  Cu
  Cu15     1.0000 0.56851  0.75363  0.03693  Biso   1.000  Cu
  Cu16     1.0000 0.43149  0.74637  0.53693  Biso   1.000  Cu
  O1       1.0000 0.98350  0.44280  0.71880  Biso   1.000  O
  O2       1.0000 0.01650  0.05720  0.21880  Biso   1.000  O
  O3       1.0000 0.48350  0.55720  0.78120  Biso   1.000  O
  O4       1.0000 0.51650  0.94280  0.28120  Biso   1.000  O
  O5       1.0000 0.01650  0.55720  0.28120  Biso   1.000  O
  O6       1.0000 0.98350  0.94280  0.78120  Biso   1.000  O
  O7       1.0000 0.51650  0.44280  0.21880  Biso   1.000  O
  O8       1.0000 0.48350  0.05720  0.71880  Biso   1.000  O
  O9       1.0000 0.90710  0.56000  0.71340  Biso   1.000  O
  O10      1.0000 0.09290  0.94000  0.21340  Biso   1.000  O
  O11      1.0000 0.40710  0.44000  0.78660  Biso   1.000  O
  O12      1.0000 0.59290  0.06000  0.28660  Biso   1.000  O
  O13      1.0000 0.09290  0.44000  0.28660  Biso   1.000  O
  O14      1.0000 0.90710  0.06000  0.78660  Biso   1.000  O
  O15      1.0000 0.59290  0.56000  0.21340  Biso   1.000  O
  O16      1.0000 0.40710  0.94000  0.71340  Biso   1.000  O
  O17      1.0000 0.36520  0.55190  0.70060  Biso   1.000  O
  O18      1.0000 0.63480  0.94810  0.20060  Biso   1.000  O
  O19      1.0000 0.86520  0.44810  0.79940  Biso   1.000  O
  O20      1.0000 0.13480  0.05190  0.29940  Biso   1.000  O
  O21      1.0000 0.63480  0.44810  0.29940  Biso   1.000  O
  O22      1.0000 0.36520  0.05190  0.79940  Biso   1.000  O
  O23      1.0000 0.13480  0.55190  0.20060  Biso   1.000  O
  O24      1.0000 0.86520  0.94810  0.70060  Biso   1.000  O
  O25      1.0000 0.04220  0.56610  0.70770  Biso   1.000  O
  O26      1.0000 0.95780  0.93390  0.20770  Biso   1.000  O
  O27      1.0000 0.54220  0.43390  0.79230  Biso   1.000  O
  O28      1.0000 0.45780  0.06610  0.29230  Biso   1.000  O
  O29      1.0000 0.95780  0.43390  0.29230  Biso   1.000  O
  O30      1.0000 0.04220  0.06610  0.79230  Biso   1.000  O
  O31      1.0000 0.45780  0.56610  0.20770  Biso   1.000  O
  O32      1.0000 0.54220  0.93390  0.70770  Biso   1.000  O
  N1       1.0000 0.76340  0.68840  0.43570  Biso   1.000  N
  N2       1.0000 0.23660  0.81160  0.93570  Biso   1.000  N
  N3       1.0000 0.26340  0.31160  0.06430  Biso   1.000  N
  N4       1.0000 0.73660  0.18840  0.56430  Biso   1.000  N
  N5       1.0000 0.23660  0.31160  0.56430  Biso   1.000  N
  N6       1.0000 0.76340  0.18840  0.06430  Biso   1.000  N
  N7       1.0000 0.73660  0.68840  0.93570  Biso   1.000  N
  N8       1.0000 0.26340  0.81160  0.43570  Biso   1.000  N
  O33      1.0000 0.09850  0.53350  0.60090  Biso   1.000  O
  O34      1.0000 0.90150  0.96650  0.10090  Biso   1.000  O
  O35      1.0000 0.59850  0.46650  0.89910  Biso   1.000  O
  O36      1.0000 0.40150  0.03350  0.39910  Biso   1.000  O
  O37      1.0000 0.90150  0.46650  0.39910  Biso   1.000  O
  O38      1.0000 0.09850  0.03350  0.89910  Biso   1.000  O
  O39      1.0000 0.40150  0.53350  0.10090  Biso   1.000  O
  O40      1.0000 0.59850  0.96650  0.60090  Biso   1.000  O
  O41      1.0000 0.54630  0.60500  0.33380  Biso   1.000  O
  O42      1.0000 0.45370  0.89500  0.83380  Biso   1.000  O
  O43      1.0000 0.04630  0.39500  0.16620  Biso   1.000  O
  O44      1.0000 0.95370  0.10500  0.66620  Biso   1.000  O
  O45      1.0000 0.45370  0.39500  0.66620  Biso   1.000  O
  O46      1.0000 0.54630  0.10500  0.16620  Biso   1.000  O
  O47      1.0000 0.95370  0.60500  0.83380  Biso   1.000  O
  O48      1.0000 0.04630  0.89500  0.33380  Biso   1.000  O
  O49      1.0000 0.65420  0.55670  0.32200  Biso   1.000  O
  O50      1.0000 0.34580  0.94330  0.82200  Biso   1.000  O
  O51      1.0000 0.15420  0.44330  0.17800  Biso   1.000  O
  O52      1.0000 0.84580  0.05670  0.67800  Biso   1.000  O
  O53      1.0000 0.34580  0.44330  0.67800  Biso   1.000  O
  O54      1.0000 0.65420  0.05670  0.17800  Biso   1.000  O
  O55      1.0000 0.84580  0.55670  0.82200  Biso   1.000  O
  O56      1.0000 0.15420  0.94330  0.32200  Biso   1.000  O
  O57      1.0000 0.29480  0.55140  0.81070  Biso   1.000  O
  O58      1.0000 0.70520  0.94860  0.31070  Biso   1.000  O
  O59      1.0000 0.79480  0.44860  0.68930  Biso   1.000  O
  O60      1.0000 0.20520  0.05140  0.18930  Biso   1.000  O
  O61      1.0000 0.70520  0.44860  0.18930  Biso   1.000  O
  O62      1.0000 0.29480  0.05140  0.68930  Biso   1.000  O
  O63      1.0000 0.20520  0.55140  0.31070  Biso   1.000  O
  O64      1.0000 0.79480  0.94860  0.81070  Biso   1.000  O
  O65      1.0000 0.71390  0.57650  0.63960  Biso   1.000  O
  O66      1.0000 0.28610  0.92350  0.13960  Biso   1.000  O
  O67      1.0000 0.21390  0.42350  0.86040  Biso   1.000  O
  O68      1.0000 0.78610  0.07650  0.36040  Biso   1.000  O
  O69      1.0000 0.28610  0.42350  0.36040  Biso   1.000  O
  O70      1.0000 0.71390  0.07650  0.86040  Biso   1.000  O
  O71      1.0000 0.78610  0.57650  0.13960  Biso   1.000  O
  O72      1.0000 0.21390  0.92350  0.63960  Biso   1.000  O
  O73      1.0000 0.60560  0.56500  0.68790  Biso   1.000  O
  O74      1.0000 0.39440  0.93500  0.18790  Biso   1.000  O
  O75      1.0000 0.10560  0.43500  0.81210  Biso   1.000  O
  O76      1.0000 0.89440  0.06500  0.31210  Biso   1.000  O
  O77      1.0000 0.39440  0.43500  0.31210  Biso   1.000  O
  O78      1.0000 0.60560  0.06500  0.81210  Biso   1.000  O
  O79      1.0000 0.89440  0.56500  0.18790  Biso   1.000  O
  O80      1.0000 0.10560  0.93500  0.68790  Biso   1.000  O
  C1       1.0000 0.30240  0.55000  0.67480  Biso   1.000  C
  C2       1.0000 0.69760  0.95000  0.17480  Biso   1.000  C
  C3       1.0000 0.80240  0.45000  0.82520  Biso   1.000  C
  C4       1.0000 0.19760  0.05000  0.32520  Biso   1.000  C
  C5       1.0000 0.69760  0.45000  0.32520  Biso   1.000  C
  C6       1.0000 0.30240  0.05000  0.82520  Biso   1.000  C
  C7       1.0000 0.19760  0.55000  0.17480  Biso   1.000  C
  C8       1.0000 0.80240  0.95000  0.67480  Biso   1.000  C
  O81      1.0000 0.23360  0.53890  0.69090  Biso   1.000  O
  O82      1.0000 0.76640  0.96110  0.19090  Biso   1.000  O
  O83      1.0000 0.73360  0.46110  0.80910  Biso   1.000  O
  O84      1.0000 0.26640  0.03890  0.30910  Biso   1.000  O
  O85      1.0000 0.76640  0.46110  0.30910  Biso   1.000  O
  O86      1.0000 0.23360  0.03890  0.80910  Biso   1.000  O
  O87      1.0000 0.26640  0.53890  0.19090  Biso   1.000  O
  O88      1.0000 0.73360  0.96110  0.69090  Biso   1.000  O
  O89      1.0000 0.01090  0.50730  0.89650  Biso   1.000  O
  O90      1.0000 0.98910  0.99270  0.39650  Biso   1.000  O
  O91      1.0000 0.51090  0.49270  0.60350  Biso   1.000  O
  O92      1.0000 0.48910  0.00730  0.10350  Biso   1.000  O
  O93      1.0000 0.98910  0.49270  0.10350  Biso   1.000  O
  O94      1.0000 0.01090  0.00730  0.60350  Biso   1.000  O
  O95      1.0000 0.48910  0.50730  0.39650  Biso   1.000  O
  O96      1.0000 0.51090  0.99270  0.89650  Biso   1.000  O
  O97      1.0000 0.11040  0.46000  0.69980  Biso   1.000  O
  O98      1.0000 0.88960  0.04000  0.19980  Biso   1.000  O
  O99      1.0000 0.61040  0.54000  0.80020  Biso   1.000  O
  O100     1.0000 0.38960  0.96000  0.30020  Biso   1.000  O
  O101     1.0000 0.88960  0.54000  0.30020  Biso   1.000  O
  O102     1.0000 0.11040  0.96000  0.80020  Biso   1.000  O
  O103     1.0000 0.38960  0.46000  0.19980  Biso   1.000  O
  O104     1.0000 0.61040  0.04000  0.69980  Biso   1.000  O
  O105     1.0000 0.16040  0.54260  0.80670  Biso   1.000  O
  O106     1.0000 0.83960  0.95740  0.30670  Biso   1.000  O
  O107     1.0000 0.66040  0.45740  0.69330  Biso   1.000  O
  O108     1.0000 0.33960  0.04260  0.19330  Biso   1.000  O
  O109     1.0000 0.83960  0.45740  0.19330  Biso   1.000  O
  O110     1.0000 0.16040  0.04260  0.69330  Biso   1.000  O
  O111     1.0000 0.33960  0.54260  0.30670  Biso   1.000  O
  O112     1.0000 0.66040  0.95740  0.80670  Biso   1.000  O
  N9       1.0000 0.50040  0.68970  0.56630  Biso   1.000  N
  N10      1.0000 0.49960  0.81030  0.06630  Biso   1.000  N
  N11      1.0000 0.00040  0.31030  0.93370  Biso   1.000  N
  N12      1.0000 0.99960  0.18970  0.43370  Biso   1.000  N
  N13      1.0000 0.49960  0.31030  0.43370  Biso   1.000  N
  N14      1.0000 0.50040  0.18970  0.93370  Biso   1.000  N
  N15      1.0000 0.99960  0.68970  0.06630  Biso   1.000  N
  N16      1.0000 0.00040  0.81030  0.56630  Biso   1.000  N
  N17      1.0000 0.94520  0.69600  0.58710  Biso   1.000  N
  N18      1.0000 0.05480  0.80400  0.08710  Biso   1.000  N
  N19      1.0000 0.44520  0.30400  0.91290  Biso   1.000  N
  N20      1.0000 0.55480  0.19600  0.41290  Biso   1.000  N
  N21      1.0000 0.05480  0.30400  0.41290  Biso   1.000  N
  N22      1.0000 0.94520  0.19600  0.91290  Biso   1.000  N
  N23      1.0000 0.55480  0.69600  0.08710  Biso   1.000  N
  N24      1.0000 0.44520  0.80400  0.58710  Biso   1.000  N
  C9       1.0000 0.04630  0.43670  0.69480  Biso   1.000  C
  C10      1.0000 0.95370  0.06330  0.19480  Biso   1.000  C
  C11      1.0000 0.54630  0.56330  0.80520  Biso   1.000  C
  C12      1.0000 0.45370  0.93670  0.30520  Biso   1.000  C
  C13      1.0000 0.95370  0.56330  0.30520  Biso   1.000  C
  C14      1.0000 0.04630  0.93670  0.80520  Biso   1.000  C
  C15      1.0000 0.45370  0.43670  0.19480  Biso   1.000  C
  C16      1.0000 0.54630  0.06330  0.69480  Biso   1.000  C
  N25      1.0000 0.18800  0.69320  0.91290  Biso   1.000  N
  N26      1.0000 0.81200  0.80680  0.41290  Biso   1.000  N
  N27      1.0000 0.68800  0.30680  0.58710  Biso   1.000  N
  N28      1.0000 0.31200  0.19320  0.08710  Biso   1.000  N
  N29      1.0000 0.81200  0.30680  0.08710  Biso   1.000  N
  N30      1.0000 0.18800  0.19320  0.58710  Biso   1.000  N
  N31      1.0000 0.31200  0.69320  0.41290  Biso   1.000  N
  N32      1.0000 0.68800  0.80680  0.91290  Biso   1.000  N
  C17      1.0000 0.21180  0.61110  0.85210  Biso   1.000  C
  C18      1.0000 0.78820  0.88890  0.35210  Biso   1.000  C
  C19      1.0000 0.71180  0.38890  0.64790  Biso   1.000  C
  C20      1.0000 0.28820  0.11110  0.14790  Biso   1.000  C
  C21      1.0000 0.78820  0.38890  0.14790  Biso   1.000  C
  C22      1.0000 0.21180  0.11110  0.64790  Biso   1.000  C
  C23      1.0000 0.28820  0.61110  0.35210  Biso   1.000  C
  C24      1.0000 0.71180  0.88890  0.85210  Biso   1.000  C
  C25      1.0000 0.64100  0.58350  0.65080  Biso   1.000  C
  C26      1.0000 0.35900  0.91650  0.15080  Biso   1.000  C
  C27      1.0000 0.14100  0.41650  0.84920  Biso   1.000  C
  C28      1.0000 0.85900  0.08350  0.34920  Biso   1.000  C
  C29      1.0000 0.35900  0.41650  0.34920  Biso   1.000  C
  C30      1.0000 0.64100  0.08350  0.84920  Biso   1.000  C
  C31      1.0000 0.85900  0.58350  0.15080  Biso   1.000  C
  C32      1.0000 0.14100  0.91650  0.65080  Biso   1.000  C
  C33      1.0000 0.59160  0.62050  0.62010  Biso   1.000  C
  C34      1.0000 0.40840  0.87950  0.12010  Biso   1.000  C
  C35      1.0000 0.09160  0.37950  0.87990  Biso   1.000  C
  C36      1.0000 0.90840  0.12050  0.37990  Biso   1.000  C
  C37      1.0000 0.40840  0.37950  0.37990  Biso   1.000  C
  C38      1.0000 0.59160  0.12050  0.87990  Biso   1.000  C
  C39      1.0000 0.90840  0.62050  0.12010  Biso   1.000  C
  C40      1.0000 0.09160  0.87950  0.62010  Biso   1.000  C
  C41      1.0000 0.96270  0.61930  0.65740  Biso   1.000  C
  C42      1.0000 0.03730  0.88070  0.15740  Biso   1.000  C
  C43      1.0000 0.46270  0.38070  0.84260  Biso   1.000  C
  C44      1.0000 0.53730  0.11930  0.34260  Biso   1.000  C
  C45      1.0000 0.03730  0.38070  0.34260  Biso   1.000  C
  C46      1.0000 0.96270  0.11930  0.84260  Biso   1.000  C
  C47      1.0000 0.53730  0.61930  0.15740  Biso   1.000  C
  C48      1.0000 0.46270  0.88070  0.65740  Biso   1.000  C
  C49      1.0000 0.27540  0.63040  0.88100  Biso   1.000  C
  C50      1.0000 0.72460  0.86960  0.38100  Biso   1.000  C
  C51      1.0000 0.77540  0.36960  0.61900  Biso   1.000  C
  C52      1.0000 0.22460  0.13040  0.11900  Biso   1.000  C
  C53      1.0000 0.72460  0.36960  0.11900  Biso   1.000  C
  C54      1.0000 0.27540  0.13040  0.61900  Biso   1.000  C
  C55      1.0000 0.22460  0.63040  0.38100  Biso   1.000  C
  C56      1.0000 0.77540  0.86960  0.88100  Biso   1.000  C
  H1       1.0000 0.32730  0.61630  0.88000  Biso   1.000  H
  H2       1.0000 0.67270  0.88370  0.38000  Biso   1.000  H
  H3       1.0000 0.82730  0.38370  0.62000  Biso   1.000  H
  H4       1.0000 0.17270  0.11630  0.12000  Biso   1.000  H
  H5       1.0000 0.67270  0.38370  0.12000  Biso   1.000  H
  H6       1.0000 0.32730  0.11630  0.62000  Biso   1.000  H
  H7       1.0000 0.17270  0.61630  0.38000  Biso   1.000  H
  H8       1.0000 0.82730  0.88370  0.88000  Biso   1.000  H
  C57      1.0000 0.63440  0.66620  0.39960  Biso   1.000  C
  C58      1.0000 0.36560  0.83380  0.89960  Biso   1.000  C
  C59      1.0000 0.13440  0.33380  0.10040  Biso   1.000  C
  C60      1.0000 0.86560  0.16620  0.60040  Biso   1.000  C
  C61      1.0000 0.36560  0.33380  0.60040  Biso   1.000  C
  C62      1.0000 0.63440  0.16620  0.10040  Biso   1.000  C
  C63      1.0000 0.86560  0.66620  0.89960  Biso   1.000  C
  C64      1.0000 0.13440  0.83380  0.39960  Biso   1.000  C
  H9       1.0000 0.57940  0.67360  0.39510  Biso   1.000  H
  H10      1.0000 0.42060  0.82640  0.89510  Biso   1.000  H
  H11      1.0000 0.07940  0.32640  0.10490  Biso   1.000  H
  H12      1.0000 0.92060  0.17360  0.60490  Biso   1.000  H
  H13      1.0000 0.42060  0.32640  0.60490  Biso   1.000  H
  H14      1.0000 0.57940  0.17360  0.10490  Biso   1.000  H
  H15      1.0000 0.92060  0.67360  0.89510  Biso   1.000  H
  H16      1.0000 0.07940  0.82640  0.39510  Biso   1.000  H
  C65      1.0000 0.12850  0.67580  0.88420  Biso   1.000  C
  C66      1.0000 0.87150  0.82420  0.38420  Biso   1.000  C
  C67      1.0000 0.62850  0.32420  0.61580  Biso   1.000  C
  C68      1.0000 0.37150  0.17580  0.11580  Biso   1.000  C
  C69      1.0000 0.87150  0.32420  0.11580  Biso   1.000  C
  C70      1.0000 0.12850  0.17580  0.61580  Biso   1.000  C
  C71      1.0000 0.37150  0.67580  0.38420  Biso   1.000  C
  C72      1.0000 0.62850  0.82420  0.88420  Biso   1.000  C
  H17      1.0000 0.07800  0.69150  0.88550  Biso   1.000  H
  H18      1.0000 0.92200  0.80850  0.38550  Biso   1.000  H
  H19      1.0000 0.57800  0.30850  0.61450  Biso   1.000  H
  H20      1.0000 0.42200  0.19150  0.11450  Biso   1.000  H
  H21      1.0000 0.92200  0.30850  0.11450  Biso   1.000  H
  H22      1.0000 0.07800  0.19150  0.61450  Biso   1.000  H
  H23      1.0000 0.42200  0.69150  0.38550  Biso   1.000  H
  H24      1.0000 0.57800  0.80850  0.88550  Biso   1.000  H
  C73      1.0000 0.25960  0.67050  0.91070  Biso   1.000  C
  C74      1.0000 0.74040  0.82950  0.41070  Biso   1.000  C
  C75      1.0000 0.75960  0.32950  0.58930  Biso   1.000  C
  C76      1.0000 0.24040  0.17050  0.08930  Biso   1.000  C
  C77      1.0000 0.74040  0.32950  0.08930  Biso   1.000  C
  C78      1.0000 0.25960  0.17050  0.58930  Biso   1.000  C
  C79      1.0000 0.24040  0.67050  0.41070  Biso   1.000  C
  C80      1.0000 0.75960  0.82950  0.91070  Biso   1.000  C
  H25      1.0000 0.30180  0.68240  0.93060  Biso   1.000  H
  H26      1.0000 0.69820  0.81760  0.43060  Biso   1.000  H
  H27      1.0000 0.80180  0.31760  0.56940  Biso   1.000  H
  H28      1.0000 0.19820  0.18240  0.06940  Biso   1.000  H
  H29      1.0000 0.69820  0.31760  0.06940  Biso   1.000  H
  H30      1.0000 0.30180  0.18240  0.56940  Biso   1.000  H
  H31      1.0000 0.19820  0.68240  0.43060  Biso   1.000  H
  H32      1.0000 0.80180  0.81760  0.93060  Biso   1.000  H
  C81      1.0000 0.61950  0.59290  0.34170  Biso   1.000  C
  C82      1.0000 0.38050  0.90710  0.84170  Biso   1.000  C
  C83      1.0000 0.11950  0.40710  0.15830  Biso   1.000  C
  C84      1.0000 0.88050  0.09290  0.65830  Biso   1.000  C
  C85      1.0000 0.38050  0.40710  0.65830  Biso   1.000  C
  C86      1.0000 0.61950  0.09290  0.15830  Biso   1.000  C
  C87      1.0000 0.88050  0.59290  0.84170  Biso   1.000  C
  C88      1.0000 0.11950  0.90710  0.34170  Biso   1.000  C
  C89      1.0000 0.46750  0.66130  0.60170  Biso   1.000  C
  C90      1.0000 0.53250  0.83870  0.10170  Biso   1.000  C
  C91      1.0000 0.96750  0.33870  0.89830  Biso   1.000  C
  C92      1.0000 0.03250  0.16130  0.39830  Biso   1.000  C
  C93      1.0000 0.53250  0.33870  0.39830  Biso   1.000  C
  C94      1.0000 0.46750  0.16130  0.89830  Biso   1.000  C
  C95      1.0000 0.03250  0.66130  0.10170  Biso   1.000  C
  C96      1.0000 0.96750  0.83870  0.60170  Biso   1.000  C
  H33      1.0000 0.41190  0.66490  0.60790  Biso   1.000  H
  H34      1.0000 0.58810  0.83510  0.10790  Biso   1.000  H
  H35      1.0000 0.91190  0.33510  0.89210  Biso   1.000  H
  H36      1.0000 0.08810  0.16490  0.39210  Biso   1.000  H
  H37      1.0000 0.58810  0.33510  0.39210  Biso   1.000  H
  H38      1.0000 0.41190  0.16490  0.89210  Biso   1.000  H
  H39      1.0000 0.08810  0.66490  0.10790  Biso   1.000  H
  H40      1.0000 0.91190  0.83510  0.60790  Biso   1.000  H
  C97      1.0000 0.50950  0.62710  0.62980  Biso   1.000  C
  C98      1.0000 0.49050  0.87290  0.12980  Biso   1.000  C
  C99      1.0000 0.00950  0.37290  0.87020  Biso   1.000  C
  C100     1.0000 0.99050  0.12710  0.37020  Biso   1.000  C
  C101     1.0000 0.49050  0.37290  0.37020  Biso   1.000  C
  C102     1.0000 0.50950  0.12710  0.87020  Biso   1.000  C
  C103     1.0000 0.99050  0.62710  0.12980  Biso   1.000  C
  C104     1.0000 0.00950  0.87290  0.62980  Biso   1.000  C
  H41      1.0000 0.48330  0.60890  0.65450  Biso   1.000  H
  H42      1.0000 0.51670  0.89110  0.15450  Biso   1.000  H
  H43      1.0000 0.98330  0.39110  0.84550  Biso   1.000  H
  H44      1.0000 0.01670  0.10890  0.34550  Biso   1.000  H
  H45      1.0000 0.51670  0.39110  0.34550  Biso   1.000  H
  H46      1.0000 0.48330  0.10890  0.84550  Biso   1.000  H
  H47      1.0000 0.01670  0.60890  0.15450  Biso   1.000  H
  H48      1.0000 0.98330  0.89110  0.65450  Biso   1.000  H
  C105     1.0000 0.75000  0.61580  0.38540  Biso   1.000  C
  C106     1.0000 0.25000  0.88420  0.88540  Biso   1.000  C
  C107     1.0000 0.25000  0.38420  0.11460  Biso   1.000  C
  C108     1.0000 0.75000  0.11580  0.61460  Biso   1.000  C
  C109     1.0000 0.25000  0.38420  0.61460  Biso   1.000  C
  C110     1.0000 0.75000  0.11580  0.11460  Biso   1.000  C
  C111     1.0000 0.75000  0.61580  0.88540  Biso   1.000  C
  C112     1.0000 0.25000  0.88420  0.38540  Biso   1.000  C
  H49      1.0000 0.77520  0.58810  0.37180  Biso   1.000  H
  H50      1.0000 0.22480  0.91190  0.87180  Biso   1.000  H
  H51      1.0000 0.27520  0.41190  0.12820  Biso   1.000  H
  H52      1.0000 0.72480  0.08810  0.62820  Biso   1.000  H
  H53      1.0000 0.22480  0.41190  0.62820  Biso   1.000  H
  H54      1.0000 0.77520  0.08810  0.12820  Biso   1.000  H
  H55      1.0000 0.72480  0.58810  0.87180  Biso   1.000  H
  H56      1.0000 0.27520  0.91190  0.37180  Biso   1.000  H
  O113     1.0000 0.74090  0.64070  0.74970  Biso   1.000  O
  O114     1.0000 0.25910  0.85930  0.24970  Biso   1.000  O
  O115     1.0000 0.24090  0.35930  0.75030  Biso   1.000  O
  O116     1.0000 0.75910  0.14070  0.25030  Biso   1.000  O
  O117     1.0000 0.25910  0.35930  0.25030  Biso   1.000  O
  O118     1.0000 0.74090  0.14070  0.75030  Biso   1.000  O
  O119     1.0000 0.75910  0.64070  0.24970  Biso   1.000  O
  O120     1.0000 0.24090  0.85930  0.74970  Biso   1.000  O
  C113     1.0000 0.68150  0.69550  0.42810  Biso   1.000  C
  C114     1.0000 0.31850  0.80450  0.92810  Biso   1.000  C
  C115     1.0000 0.18150  0.30450  0.07190  Biso   1.000  C
  C116     1.0000 0.81850  0.19550  0.57190  Biso   1.000  C
  C117     1.0000 0.31850  0.30450  0.57190  Biso   1.000  C
  C118     1.0000 0.68150  0.19550  0.07190  Biso   1.000  C
  C119     1.0000 0.81850  0.69550  0.92810  Biso   1.000  C
  C120     1.0000 0.18150  0.80450  0.42810  Biso   1.000  C
  H57      1.0000 0.65680  0.72220  0.44370  Biso   1.000  H
  H58      1.0000 0.34320  0.77780  0.94370  Biso   1.000  H
  H59      1.0000 0.15680  0.27780  0.05630  Biso   1.000  H
  H60      1.0000 0.84320  0.22220  0.55630  Biso   1.000  H
  H61      1.0000 0.34320  0.27780  0.55630  Biso   1.000  H
  H62      1.0000 0.65680  0.22220  0.05630  Biso   1.000  H
  H63      1.0000 0.84320  0.72220  0.94370  Biso   1.000  H
  H64      1.0000 0.15680  0.77780  0.44370  Biso   1.000  H
  C121     1.0000 0.97120  0.57880  0.69530  Biso   1.000  C
  C122     1.0000 0.02880  0.92120  0.19530  Biso   1.000  C
  C123     1.0000 0.47120  0.42120  0.80470  Biso   1.000  C
  C124     1.0000 0.52880  0.07880  0.30470  Biso   1.000  C
  C125     1.0000 0.02880  0.42120  0.30470  Biso   1.000  C
  C126     1.0000 0.97120  0.07880  0.80470  Biso   1.000  C
  C127     1.0000 0.52880  0.57880  0.19530  Biso   1.000  C
  C128     1.0000 0.47120  0.92120  0.69530  Biso   1.000  C
  C129     1.0000 0.66800  0.62480  0.37670  Biso   1.000  C
  C130     1.0000 0.33200  0.87520  0.87670  Biso   1.000  C
  C131     1.0000 0.16800  0.37520  0.12330  Biso   1.000  C
  C132     1.0000 0.83200  0.12480  0.62330  Biso   1.000  C
  C133     1.0000 0.33200  0.37520  0.62330  Biso   1.000  C
  C134     1.0000 0.66800  0.12480  0.12330  Biso   1.000  C
  C135     1.0000 0.83200  0.62480  0.87670  Biso   1.000  C
  C136     1.0000 0.16800  0.87520  0.37670  Biso   1.000  C
  C137     1.0000 0.79420  0.64880  0.41470  Biso   1.000  C
  C138     1.0000 0.20580  0.85120  0.91470  Biso   1.000  C
  C139     1.0000 0.29420  0.35120  0.08530  Biso   1.000  C
  C140     1.0000 0.70580  0.14880  0.58530  Biso   1.000  C
  C141     1.0000 0.20580  0.35120  0.58530  Biso   1.000  C
  C142     1.0000 0.79420  0.14880  0.08530  Biso   1.000  C
  C143     1.0000 0.70580  0.64880  0.91470  Biso   1.000  C
  C144     1.0000 0.29420  0.85120  0.41470  Biso   1.000  C
  H65      1.0000 0.84940  0.64240  0.41970  Biso   1.000  H
  H66      1.0000 0.15060  0.85760  0.91970  Biso   1.000  H
  H67      1.0000 0.34940  0.35760  0.08030  Biso   1.000  H
  H68      1.0000 0.65060  0.14240  0.58030  Biso   1.000  H
  H69      1.0000 0.15060  0.35760  0.58030  Biso   1.000  H
  H70      1.0000 0.84940  0.14240  0.08030  Biso   1.000  H
  H71      1.0000 0.65060  0.64240  0.91970  Biso   1.000  H
  H72      1.0000 0.34940  0.85760  0.41970  Biso   1.000  H
  C145     1.0000 0.02950  0.64740  0.64130  Biso   1.000  C
  C146     1.0000 0.97050  0.85260  0.14130  Biso   1.000  C
  C147     1.0000 0.52950  0.35260  0.85870  Biso   1.000  C
  C148     1.0000 0.47050  0.14740  0.35870  Biso   1.000  C
  C149     1.0000 0.97050  0.35260  0.35870  Biso   1.000  C
  C150     1.0000 0.02950  0.14740  0.85870  Biso   1.000  C
  C151     1.0000 0.47050  0.64740  0.14130  Biso   1.000  C
  C152     1.0000 0.52950  0.85260  0.64130  Biso   1.000  C
  H73      1.0000 0.08110  0.64170  0.65470  Biso   1.000  H
  H74      1.0000 0.91890  0.85830  0.15470  Biso   1.000  H
  H75      1.0000 0.58110  0.35830  0.84530  Biso   1.000  H
  H76      1.0000 0.41890  0.14170  0.34530  Biso   1.000  H
  H77      1.0000 0.91890  0.35830  0.34530  Biso   1.000  H
  H78      1.0000 0.08110  0.14170  0.84530  Biso   1.000  H
  H79      1.0000 0.41890  0.64170  0.15470  Biso   1.000  H
  H80      1.0000 0.58110  0.85830  0.65470  Biso   1.000  H
  C153     1.0000 0.57950  0.68250  0.55830  Biso   1.000  C
  C154     1.0000 0.42050  0.81750  0.05830  Biso   1.000  C
  C155     1.0000 0.07950  0.31750  0.94170  Biso   1.000  C
  C156     1.0000 0.92050  0.18250  0.44170  Biso   1.000  C
  C157     1.0000 0.42050  0.31750  0.44170  Biso   1.000  C
  C158     1.0000 0.57950  0.18250  0.94170  Biso   1.000  C
  C159     1.0000 0.92050  0.68250  0.05830  Biso   1.000  C
  C160     1.0000 0.07950  0.81750  0.55830  Biso   1.000  C
  H81      1.0000 0.60520  0.70230  0.53470  Biso   1.000  H
  H82      1.0000 0.39480  0.79770  0.03470  Biso   1.000  H
  H83      1.0000 0.10520  0.29770  0.96530  Biso   1.000  H
  H84      1.0000 0.89480  0.20230  0.46530  Biso   1.000  H
  H85      1.0000 0.39480  0.29770  0.46530  Biso   1.000  H
  H86      1.0000 0.60520  0.20230  0.96530  Biso   1.000  H
  H87      1.0000 0.89480  0.70230  0.03470  Biso   1.000  H
  H88      1.0000 0.10520  0.79770  0.53470  Biso   1.000  H
  C161     1.0000 0.88700  0.63190  0.63750  Biso   1.000  C
  C162     1.0000 0.11300  0.86810  0.13750  Biso   1.000  C
  C163     1.0000 0.38700  0.36810  0.86250  Biso   1.000  C
  C164     1.0000 0.61300  0.13190  0.36250  Biso   1.000  C
  C165     1.0000 0.11300  0.36810  0.36250  Biso   1.000  C
  C166     1.0000 0.88700  0.13190  0.86250  Biso   1.000  C
  C167     1.0000 0.61300  0.63190  0.13750  Biso   1.000  C
  C168     1.0000 0.38700  0.86810  0.63750  Biso   1.000  C
  H89      1.0000 0.84020  0.61480  0.64700  Biso   1.000  H
  H90      1.0000 0.15980  0.88520  0.14700  Biso   1.000  H
  H91      1.0000 0.34020  0.38520  0.85300  Biso   1.000  H
  H92      1.0000 0.65980  0.11480  0.35300  Biso   1.000  H
  H93      1.0000 0.15980  0.38520  0.35300  Biso   1.000  H
  H94      1.0000 0.84020  0.11480  0.85300  Biso   1.000  H
  H95      1.0000 0.65980  0.61480  0.14700  Biso   1.000  H
  H96      1.0000 0.34020  0.88520  0.64700  Biso   1.000  H
  C169     1.0000 0.13660  0.63620  0.85310  Biso   1.000  C
  C170     1.0000 0.86340  0.86380  0.35310  Biso   1.000  C
  C171     1.0000 0.63660  0.36380  0.64690  Biso   1.000  C
  C172     1.0000 0.36340  0.13620  0.14690  Biso   1.000  C
  C173     1.0000 0.86340  0.36380  0.14690  Biso   1.000  C
  C174     1.0000 0.13660  0.13620  0.64690  Biso   1.000  C
  C175     1.0000 0.36340  0.63620  0.35310  Biso   1.000  C
  C176     1.0000 0.63660  0.86380  0.85310  Biso   1.000  C
  H97      1.0000 0.09340  0.62600  0.83300  Biso   1.000  H
  H98      1.0000 0.90660  0.87400  0.33300  Biso   1.000  H
  H99      1.0000 0.59340  0.37400  0.66700  Biso   1.000  H
  H100     1.0000 0.40660  0.12600  0.16700  Biso   1.000  H
  H101     1.0000 0.90660  0.37400  0.16700  Biso   1.000  H
  H102     1.0000 0.09340  0.12600  0.66700  Biso   1.000  H
  H103     1.0000 0.40660  0.62600  0.33300  Biso   1.000  H
  H104     1.0000 0.59340  0.87400  0.83300  Biso   1.000  H
  C177     1.0000 0.22250  0.56530  0.82050  Biso   1.000  C
  C178     1.0000 0.77750  0.93470  0.32050  Biso   1.000  C
  C179     1.0000 0.72250  0.43470  0.67950  Biso   1.000  C
  C180     1.0000 0.27750  0.06530  0.17950  Biso   1.000  C
  C181     1.0000 0.77750  0.43470  0.17950  Biso   1.000  C
  C182     1.0000 0.22250  0.06530  0.67950  Biso   1.000  C
  C183     1.0000 0.27750  0.56530  0.32050  Biso   1.000  C
  C184     1.0000 0.72250  0.93470  0.82050  Biso   1.000  C
  C185     1.0000 0.62610  0.64790  0.58270  Biso   1.000  C
  C186     1.0000 0.37390  0.85210  0.08270  Biso   1.000  C
  C187     1.0000 0.12610  0.35210  0.91730  Biso   1.000  C
  C188     1.0000 0.87390  0.14790  0.41730  Biso   1.000  C
  C189     1.0000 0.37390  0.35210  0.41730  Biso   1.000  C
  C190     1.0000 0.62610  0.14790  0.91730  Biso   1.000  C
  C191     1.0000 0.87390  0.64790  0.08270  Biso   1.000  C
  C192     1.0000 0.12610  0.85210  0.58270  Biso   1.000  C
  H105     1.0000 0.68050  0.64310  0.57380  Biso   1.000  H
  H106     1.0000 0.31950  0.85690  0.07380  Biso   1.000  H
  H107     1.0000 0.18050  0.35690  0.92620  Biso   1.000  H
  H108     1.0000 0.81950  0.14310  0.42620  Biso   1.000  H
  H109     1.0000 0.31950  0.35690  0.42620  Biso   1.000  H
  H110     1.0000 0.68050  0.14310  0.92620  Biso   1.000  H
  H111     1.0000 0.81950  0.64310  0.07380  Biso   1.000  H
  H112     1.0000 0.18050  0.85690  0.57380  Biso   1.000  H
  C193     1.0000 0.31070  0.55840  0.62010  Biso   1.000  C
  C194     1.0000 0.68930  0.94160  0.12010  Biso   1.000  C
  C195     1.0000 0.81070  0.44160  0.87990  Biso   1.000  C
  C196     1.0000 0.18930  0.05840  0.37990  Biso   1.000  C
  C197     1.0000 0.68930  0.44160  0.37990  Biso   1.000  C
  C198     1.0000 0.31070  0.05840  0.87990  Biso   1.000  C
  C199     1.0000 0.18930  0.55840  0.12010  Biso   1.000  C
  C200     1.0000 0.81070  0.94160  0.62010  Biso   1.000  C
  H113     1.0000 0.36740  0.56220  0.61180  Biso   1.000  H
  H114     1.0000 0.63260  0.93780  0.11180  Biso   1.000  H
  H115     1.0000 0.86740  0.43780  0.88820  Biso   1.000  H
  H116     1.0000 0.13260  0.06220  0.38820  Biso   1.000  H
  H117     1.0000 0.63260  0.43780  0.38820  Biso   1.000  H
  H118     1.0000 0.36740  0.06220  0.88820  Biso   1.000  H
  H119     1.0000 0.13260  0.56220  0.11180  Biso   1.000  H
  H120     1.0000 0.86740  0.93780  0.61180  Biso   1.000  H
  H121     1.0000 0.28140  0.58770  0.61090  Biso   1.000  H
  H122     1.0000 0.71860  0.91230  0.11090  Biso   1.000  H
  H123     1.0000 0.78140  0.41230  0.88910  Biso   1.000  H
  H124     1.0000 0.21860  0.08770  0.38910  Biso   1.000  H
  H125     1.0000 0.71860  0.41230  0.38910  Biso   1.000  H
  H126     1.0000 0.28140  0.08770  0.88910  Biso   1.000  H
  H127     1.0000 0.21860  0.58770  0.11090  Biso   1.000  H
  H128     1.0000 0.78140  0.91230  0.61090  Biso   1.000  H
  H129     1.0000 0.28870  0.53060  0.60240  Biso   1.000  H
  H130     1.0000 0.71130  0.96940  0.10240  Biso   1.000  H
  H131     1.0000 0.78870  0.46940  0.89760  Biso   1.000  H
  H132     1.0000 0.21130  0.03060  0.39760  Biso   1.000  H
  H133     1.0000 0.71130  0.46940  0.39760  Biso   1.000  H
  H134     1.0000 0.28870  0.03060  0.89760  Biso   1.000  H
  H135     1.0000 0.21130  0.53060  0.10240  Biso   1.000  H
  H136     1.0000 0.78870  0.96940  0.60240  Biso   1.000  H
  C201     1.0000 0.01880  0.68320  0.60580  Biso   1.000  C
  C202     1.0000 0.98120  0.81680  0.10580  Biso   1.000  C
  C203     1.0000 0.51880  0.31680  0.89420  Biso   1.000  C
  C204     1.0000 0.48120  0.18320  0.39420  Biso   1.000  C
  C205     1.0000 0.98120  0.31680  0.39420  Biso   1.000  C
  C206     1.0000 0.01880  0.18320  0.89420  Biso   1.000  C
  C207     1.0000 0.48120  0.68320  0.10580  Biso   1.000  C
  C208     1.0000 0.51880  0.81680  0.60580  Biso   1.000  C
  H137     1.0000 0.06480  0.69960  0.59390  Biso   1.000  H
  H138     1.0000 0.93520  0.80040  0.09390  Biso   1.000  H
  H139     1.0000 0.56480  0.30040  0.90610  Biso   1.000  H
  H140     1.0000 0.43520  0.19960  0.40610  Biso   1.000  H
  H141     1.0000 0.93520  0.30040  0.40610  Biso   1.000  H
  H142     1.0000 0.06480  0.19960  0.90610  Biso   1.000  H
  H143     1.0000 0.43520  0.69960  0.09390  Biso   1.000  H
  H144     1.0000 0.56480  0.80040  0.59390  Biso   1.000  H
  C209     1.0000 0.88210  0.67010  0.60320  Biso   1.000  C
  C210     1.0000 0.11790  0.82990  0.10320  Biso   1.000  C
  C211     1.0000 0.38210  0.32990  0.89680  Biso   1.000  C
  C212     1.0000 0.61790  0.17010  0.39680  Biso   1.000  C
  C213     1.0000 0.11790  0.32990  0.39680  Biso   1.000  C
  C214     1.0000 0.88210  0.17010  0.89680  Biso   1.000  C
  C215     1.0000 0.61790  0.67010  0.10320  Biso   1.000  C
  C216     1.0000 0.38210  0.82990  0.60320  Biso   1.000  C
  H145     1.0000 0.83070  0.67810  0.59080  Biso   1.000  H
  H146     1.0000 0.16930  0.82190  0.09080  Biso   1.000  H
  H147     1.0000 0.33070  0.32190  0.90920  Biso   1.000  H
  H148     1.0000 0.66930  0.17810  0.40920  Biso   1.000  H
  H149     1.0000 0.16930  0.32190  0.40920  Biso   1.000  H
  H150     1.0000 0.83070  0.17810  0.90920  Biso   1.000  H
  H151     1.0000 0.66930  0.67810  0.09080  Biso   1.000  H
  H152     1.0000 0.33070  0.82190  0.59080  Biso   1.000  H
  N33      1.0000 0.06870  0.55100  0.95890  Biso   1.000  N
  N34      1.0000 0.93130  0.94900  0.45890  Biso   1.000  N
  N35      1.0000 0.56870  0.44900  0.54110  Biso   1.000  N
  N36      1.0000 0.43130  0.05100  0.04110  Biso   1.000  N
  N37      1.0000 0.93130  0.44900  0.04110  Biso   1.000  N
  N38      1.0000 0.06870  0.05100  0.54110  Biso   1.000  N
  N39      1.0000 0.43130  0.55100  0.45890  Biso   1.000  N
  N40      1.0000 0.56870  0.94900  0.95890  Biso   1.000  N
  C217     1.0000 0.03920  0.54110  0.57490  Biso   1.000  C
  C218     1.0000 0.96080  0.95890  0.07490  Biso   1.000  C
  C219     1.0000 0.53920  0.45890  0.92510  Biso   1.000  C
  C220     1.0000 0.46080  0.04110  0.42510  Biso   1.000  C
  C221     1.0000 0.96080  0.45890  0.42510  Biso   1.000  C
  C222     1.0000 0.03920  0.04110  0.92510  Biso   1.000  C
  C223     1.0000 0.46080  0.54110  0.07490  Biso   1.000  C
  C224     1.0000 0.53920  0.95890  0.57490  Biso   1.000  C
  H153     1.0000 0.98960  0.52820  0.58570  Biso   1.000  H
  H154     1.0000 0.01040  0.97180  0.08570  Biso   1.000  H
  H155     1.0000 0.48960  0.47180  0.91430  Biso   1.000  H
  H156     1.0000 0.51040  0.02820  0.41430  Biso   1.000  H
  H157     1.0000 0.01040  0.47180  0.41430  Biso   1.000  H
  H158     1.0000 0.98960  0.02820  0.91430  Biso   1.000  H
  H159     1.0000 0.51040  0.52820  0.08570  Biso   1.000  H
  H160     1.0000 0.48960  0.97180  0.58570  Biso   1.000  H
  N41      1.0000 0.69690  0.71950  0.74010  Biso   1.000  N
  N42      1.0000 0.30310  0.78050  0.24010  Biso   1.000  N
  N43      1.0000 0.19690  0.28050  0.75990  Biso   1.000  N
  N44      1.0000 0.80310  0.21950  0.25990  Biso   1.000  N
  N45      1.0000 0.30310  0.28050  0.25990  Biso   1.000  N
  N46      1.0000 0.69690  0.21950  0.75990  Biso   1.000  N
  N47      1.0000 0.80310  0.71950  0.24010  Biso   1.000  N
  N48      1.0000 0.19690  0.78050  0.74010  Biso   1.000  N
  N49      1.0000 0.03890  0.56660  0.53160  Biso   1.000  N
  N50      1.0000 0.96110  0.93340  0.03160  Biso   1.000  N
  N51      1.0000 0.53890  0.43340  0.96840  Biso   1.000  N
  N52      1.0000 0.46110  0.06660  0.46840  Biso   1.000  N
  N53      1.0000 0.96110  0.43340  0.46840  Biso   1.000  N
  N54      1.0000 0.03890  0.06660  0.96840  Biso   1.000  N
  N55      1.0000 0.46110  0.56660  0.03160  Biso   1.000  N
  N56      1.0000 0.53890  0.93340  0.53160  Biso   1.000  N
  C225     1.0000 0.71870  0.67580  0.72410  Biso   1.000  C
  C226     1.0000 0.28130  0.82420  0.22410  Biso   1.000  C
  C227     1.0000 0.21870  0.32420  0.77590  Biso   1.000  C
  C228     1.0000 0.78130  0.17580  0.27590  Biso   1.000  C
  C229     1.0000 0.28130  0.32420  0.27590  Biso   1.000  C
  C230     1.0000 0.71870  0.17580  0.77590  Biso   1.000  C
  C231     1.0000 0.78130  0.67580  0.22410  Biso   1.000  C
  C232     1.0000 0.21870  0.82420  0.72410  Biso   1.000  C
  H161     1.0000 0.71710  0.67070  0.68980  Biso   1.000  H
  H162     1.0000 0.28290  0.82930  0.18980  Biso   1.000  H
  H163     1.0000 0.21710  0.32930  0.81020  Biso   1.000  H
  H164     1.0000 0.78290  0.17070  0.31020  Biso   1.000  H
  H165     1.0000 0.28290  0.32930  0.31020  Biso   1.000  H
  H166     1.0000 0.71710  0.17070  0.81020  Biso   1.000  H
  H167     1.0000 0.78290  0.67070  0.18980  Biso   1.000  H
  H168     1.0000 0.21710  0.82930  0.68980  Biso   1.000  H
  C233     1.0000 0.06760  0.52250  0.91770  Biso   1.000  C
  C234     1.0000 0.93240  0.97750  0.41770  Biso   1.000  C
  C235     1.0000 0.56760  0.47750  0.58230  Biso   1.000  C
  C236     1.0000 0.43240  0.02250  0.08230  Biso   1.000  C
  C237     1.0000 0.93240  0.47750  0.08230  Biso   1.000  C
  C238     1.0000 0.06760  0.02250  0.58230  Biso   1.000  C
  C239     1.0000 0.43240  0.52250  0.41770  Biso   1.000  C
  C240     1.0000 0.56760  0.97750  0.91770  Biso   1.000  C
  H169     1.0000 0.11830  0.51410  0.90460  Biso   1.000  H
  H170     1.0000 0.88170  0.98590  0.40460  Biso   1.000  H
  H171     1.0000 0.61830  0.48590  0.59540  Biso   1.000  H
  H172     1.0000 0.38170  0.01410  0.09540  Biso   1.000  H
  H173     1.0000 0.88170  0.48590  0.09540  Biso   1.000  H
  H174     1.0000 0.11830  0.01410  0.59540  Biso   1.000  H
  H175     1.0000 0.38170  0.51410  0.40460  Biso   1.000  H
  H176     1.0000 0.61830  0.98590  0.90460  Biso   1.000  H
  Li1      1.0000 0.12370  0.52880  0.67060  Biso   1.000  Li
  Li2      1.0000 0.87630  0.97120  0.17060  Biso   1.000  Li
  Li3      1.0000 0.62370  0.47120  0.82940  Biso   1.000  Li
  Li4      1.0000 0.37630  0.02880  0.32940  Biso   1.000  Li
  Li5      1.0000 0.87630  0.47120  0.32940  Biso   1.000  Li
  Li6      1.0000 0.12370  0.02880  0.82940  Biso   1.000  Li
  Li7      1.0000 0.37630  0.52880  0.17060  Biso   1.000  Li
  Li8      1.0000 0.62370  0.97120  0.67060  Biso   1.000  Li
  C241     1.0000 0.95750  0.57320  0.50640  Biso   1.000  C
  C242     1.0000 0.04250  0.92680  0.00640  Biso   1.000  C
  C243     1.0000 0.45750  0.42680  0.99360  Biso   1.000  C
  C244     1.0000 0.54250  0.07320  0.49360  Biso   1.000  C
  C245     1.0000 0.04250  0.42680  0.49360  Biso   1.000  C
  C246     1.0000 0.95750  0.07320  0.99360  Biso   1.000  C
  C247     1.0000 0.54250  0.57320  0.00640  Biso   1.000  C
  C248     1.0000 0.45750  0.92680  0.50640  Biso   1.000  C
  H177     1.0000 0.91670  0.55450  0.52380  Biso   1.000  H
  H178     1.0000 0.08330  0.94550  0.02380  Biso   1.000  H
  H179     1.0000 0.41670  0.44550  0.97620  Biso   1.000  H
  H180     1.0000 0.58330  0.05450  0.47620  Biso   1.000  H
  H181     1.0000 0.08330  0.44550  0.47620  Biso   1.000  H
  H182     1.0000 0.91670  0.05450  0.97620  Biso   1.000  H
  H183     1.0000 0.58330  0.55450  0.02380  Biso   1.000  H
  H184     1.0000 0.41670  0.94550  0.52380  Biso   1.000  H
  H185     1.0000 0.96100  0.56190  0.47260  Biso   1.000  H
  H186     1.0000 0.03900  0.93810  0.97260  Biso   1.000  H
  H187     1.0000 0.46100  0.43810  0.02740  Biso   1.000  H
  H188     1.0000 0.53900  0.06190  0.52740  Biso   1.000  H
  H189     1.0000 0.03900  0.43810  0.52740  Biso   1.000  H
  H190     1.0000 0.96100  0.06190  0.02740  Biso   1.000  H
  H191     1.0000 0.53900  0.56190  0.97260  Biso   1.000  H
  H192     1.0000 0.46100  0.93810  0.47260  Biso   1.000  H
  H193     1.0000 0.94280  0.60760  0.50670  Biso   1.000  H
  H194     1.0000 0.05720  0.89240  0.00670  Biso   1.000  H
  H195     1.0000 0.44280  0.39240  0.99330  Biso   1.000  H
  H196     1.0000 0.55720  0.10760  0.49330  Biso   1.000  H
  H197     1.0000 0.05720  0.39240  0.49330  Biso   1.000  H
  H198     1.0000 0.94280  0.10760  0.99330  Biso   1.000  H
  H199     1.0000 0.55720  0.60760  0.00670  Biso   1.000  H
  H200     1.0000 0.44280  0.89240  0.50670  Biso   1.000  H
  C249     1.0000 0.69360  0.72990  0.79510  Biso   1.000  C
  C250     1.0000 0.30640  0.77010  0.29510  Biso   1.000  C
  C251     1.0000 0.19360  0.27010  0.70490  Biso   1.000  C
  C252     1.0000 0.80640  0.22990  0.20490  Biso   1.000  C
  C253     1.0000 0.30640  0.27010  0.20490  Biso   1.000  C
  C254     1.0000 0.69360  0.22990  0.70490  Biso   1.000  C
  C255     1.0000 0.80640  0.72990  0.29510  Biso   1.000  C
  C256     1.0000 0.19360  0.77010  0.79510  Biso   1.000  C
  H201     1.0000 0.64730  0.71350  0.80940  Biso   1.000  H
  H202     1.0000 0.35270  0.78650  0.30940  Biso   1.000  H
  H203     1.0000 0.14730  0.28650  0.69060  Biso   1.000  H
  H204     1.0000 0.85270  0.21350  0.19060  Biso   1.000  H
  H205     1.0000 0.35270  0.28650  0.19060  Biso   1.000  H
  H206     1.0000 0.64730  0.21350  0.69060  Biso   1.000  H
  H207     1.0000 0.85270  0.71350  0.30940  Biso   1.000  H
  H208     1.0000 0.14730  0.78650  0.80940  Biso   1.000  H
  H209     1.0000 0.68880  0.76490  0.80030  Biso   1.000  H
  H210     1.0000 0.31120  0.73510  0.30030  Biso   1.000  H
  H211     1.0000 0.18880  0.23510  0.69970  Biso   1.000  H
  H212     1.0000 0.81120  0.26490  0.19970  Biso   1.000  H
  H213     1.0000 0.31120  0.23510  0.19970  Biso   1.000  H
  H214     1.0000 0.68880  0.26490  0.69970  Biso   1.000  H
  H215     1.0000 0.81120  0.76490  0.30030  Biso   1.000  H
  H216     1.0000 0.18880  0.73510  0.80030  Biso   1.000  H
  H217     1.0000 0.74280  0.71820  0.81060  Biso   1.000  H
  H218     1.0000 0.25720  0.78180  0.31060  Biso   1.000  H
  H219     1.0000 0.24280  0.28180  0.68940  Biso   1.000  H
  H220     1.0000 0.75720  0.21820  0.18940  Biso   1.000  H
  H221     1.0000 0.25720  0.28180  0.18940  Biso   1.000  H
  H222     1.0000 0.74280  0.21820  0.68940  Biso   1.000  H
  H223     1.0000 0.75720  0.71820  0.31060  Biso   1.000  H
  H224     1.0000 0.24280  0.78180  0.81060  Biso   1.000  H
  C257     1.0000 0.67540  0.76060  0.70860  Biso   1.000  C
  C258     1.0000 0.32460  0.73940  0.20860  Biso   1.000  C
  C259     1.0000 0.17540  0.23940  0.79140  Biso   1.000  C
  C260     1.0000 0.82460  0.26060  0.29140  Biso   1.000  C
  C261     1.0000 0.32460  0.23940  0.29140  Biso   1.000  C
  C262     1.0000 0.67540  0.26060  0.79140  Biso   1.000  C
  C263     1.0000 0.82460  0.76060  0.20860  Biso   1.000  C
  C264     1.0000 0.17540  0.73940  0.70860  Biso   1.000  C
  H225     1.0000 0.72230  0.78140  0.70400  Biso   1.000  H
  H226     1.0000 0.27770  0.71860  0.20400  Biso   1.000  H
  H227     1.0000 0.22230  0.21860  0.79600  Biso   1.000  H
  H228     1.0000 0.77770  0.28140  0.29600  Biso   1.000  H
  H229     1.0000 0.27770  0.21860  0.29600  Biso   1.000  H
  H230     1.0000 0.72230  0.28140  0.79600  Biso   1.000  H
  H231     1.0000 0.77770  0.78140  0.20400  Biso   1.000  H
  H232     1.0000 0.22230  0.71860  0.70400  Biso   1.000  H
  H233     1.0000 0.63230  0.77920  0.72390  Biso   1.000  H
  H234     1.0000 0.36770  0.72080  0.22390  Biso   1.000  H
  H235     1.0000 0.13230  0.22080  0.77610  Biso   1.000  H
  H236     1.0000 0.86770  0.27920  0.27610  Biso   1.000  H
  H237     1.0000 0.36770  0.22080  0.27610  Biso   1.000  H
  H238     1.0000 0.63230  0.27920  0.77610  Biso   1.000  H
  H239     1.0000 0.86770  0.77920  0.22390  Biso   1.000  H
  H240     1.0000 0.13230  0.72080  0.72390  Biso   1.000  H
  H241     1.0000 0.65740  0.74850  0.67680  Biso   1.000  H
  H242     1.0000 0.34260  0.75150  0.17680  Biso   1.000  H
  H243     1.0000 0.15740  0.25150  0.82320  Biso   1.000  H
  H244     1.0000 0.84260  0.24850  0.32320  Biso   1.000  H
  H245     1.0000 0.34260  0.25150  0.32320  Biso   1.000  H
  H246     1.0000 0.65740  0.24850  0.82320  Biso   1.000  H
  H247     1.0000 0.84260  0.74850  0.17680  Biso   1.000  H
  H248     1.0000 0.15740  0.75150  0.67680  Biso   1.000  H
  C265     1.0000 0.98400  0.58120  0.97960  Biso   1.000  C
  C266     1.0000 0.01600  0.91880  0.47960  Biso   1.000  C
  C267     1.0000 0.48400  0.41880  0.52040  Biso   1.000  C
  C268     1.0000 0.51600  0.08120  0.02040  Biso   1.000  C
  C269     1.0000 0.01600  0.41880  0.02040  Biso   1.000  C
  C270     1.0000 0.98400  0.08120  0.52040  Biso   1.000  C
  C271     1.0000 0.51600  0.58120  0.47960  Biso   1.000  C
  C272     1.0000 0.48400  0.91880  0.97960  Biso   1.000  C
  H249     1.0000 0.99390  0.61620  0.97910  Biso   1.000  H
  H250     1.0000 0.00610  0.88380  0.47910  Biso   1.000  H
  H251     1.0000 0.49390  0.38380  0.52090  Biso   1.000  H
  H252     1.0000 0.50610  0.11620  0.02090  Biso   1.000  H
  H253     1.0000 0.00610  0.38380  0.02090  Biso   1.000  H
  H254     1.0000 0.99390  0.11620  0.52090  Biso   1.000  H
  H255     1.0000 0.50610  0.61620  0.47910  Biso   1.000  H
  H256     1.0000 0.49390  0.88380  0.97910  Biso   1.000  H
  H257     1.0000 0.97200  0.57090  0.01300  Biso   1.000  H
  H258     1.0000 0.02800  0.92910  0.51300  Biso   1.000  H
  H259     1.0000 0.47200  0.42910  0.48700  Biso   1.000  H
  H260     1.0000 0.52800  0.07090  0.98700  Biso   1.000  H
  H261     1.0000 0.02800  0.42910  0.98700  Biso   1.000  H
  H262     1.0000 0.97200  0.07090  0.48700  Biso   1.000  H
  H263     1.0000 0.52800  0.57090  0.51300  Biso   1.000  H
  H264     1.0000 0.47200  0.92910  0.01300  Biso   1.000  H
  H265     1.0000 0.93860  0.57360  0.95840  Biso   1.000  H
  H266     1.0000 0.06140  0.92640  0.45840  Biso   1.000  H
  H267     1.0000 0.43860  0.42640  0.54160  Biso   1.000  H
  H268     1.0000 0.56140  0.07360  0.04160  Biso   1.000  H
  H269     1.0000 0.06140  0.42640  0.04160  Biso   1.000  H
  H270     1.0000 0.93860  0.07360  0.54160  Biso   1.000  H
  H271     1.0000 0.56140  0.57360  0.45840  Biso   1.000  H
  H272     1.0000 0.43860  0.92640  0.95840  Biso   1.000  H
  C273     1.0000 0.11770  0.58280  0.98630  Biso   1.000  C
  C274     1.0000 0.88230  0.91720  0.48630  Biso   1.000  C
  C275     1.0000 0.61770  0.41720  0.51370  Biso   1.000  C
  C276     1.0000 0.38230  0.08280  0.01370  Biso   1.000  C
  C277     1.0000 0.88230  0.41720  0.01370  Biso   1.000  C
  C278     1.0000 0.11770  0.08280  0.51370  Biso   1.000  C
  C279     1.0000 0.38230  0.58280  0.48630  Biso   1.000  C
  C280     1.0000 0.61770  0.91720  0.98630  Biso   1.000  C
  H273     1.0000 0.16460  0.56520  0.99840  Biso   1.000  H
  H274     1.0000 0.83540  0.93480  0.49840  Biso   1.000  H
  H275     1.0000 0.66460  0.43480  0.50160  Biso   1.000  H
  H276     1.0000 0.33540  0.06520  0.00160  Biso   1.000  H
  H277     1.0000 0.83540  0.43480  0.00160  Biso   1.000  H
  H278     1.0000 0.16460  0.06520  0.50160  Biso   1.000  H
  H279     1.0000 0.33540  0.56520  0.49840  Biso   1.000  H
  H280     1.0000 0.66460  0.93480  0.99840  Biso   1.000  H
  H281     1.0000 0.08710  0.59570  0.01390  Biso   1.000  H
  H282     1.0000 0.91290  0.90430  0.51390  Biso   1.000  H
  H283     1.0000 0.58710  0.40430  0.48610  Biso   1.000  H
  H284     1.0000 0.41290  0.09570  0.98610  Biso   1.000  H
  H285     1.0000 0.91290  0.40430  0.98610  Biso   1.000  H
  H286     1.0000 0.08710  0.09570  0.48610  Biso   1.000  H
  H287     1.0000 0.41290  0.59570  0.51390  Biso   1.000  H
  H288     1.0000 0.58710  0.90430  0.01390  Biso   1.000  H
  H289     1.0000 0.13530  0.60960  0.96540  Biso   1.000  H
  H290     1.0000 0.86470  0.89040  0.46540  Biso   1.000  H
  H291     1.0000 0.63530  0.39040  0.53460  Biso   1.000  H
  H292     1.0000 0.36470  0.10960  0.03460  Biso   1.000  H
  H293     1.0000 0.86470  0.39040  0.03460  Biso   1.000  H
  H294     1.0000 0.13530  0.10960  0.53460  Biso   1.000  H
  H295     1.0000 0.36470  0.60960  0.46540  Biso   1.000  H
  H296     1.0000 0.63530  0.89040  0.96540  Biso   1.000  H
  Li9      1.0000 0.87600  0.41580  0.73340  Biso   1.000  Li
  Li10     1.0000 0.12400  0.08420  0.23340  Biso   1.000  Li
  Li11     1.0000 0.37600  0.58420  0.76660  Biso   1.000  Li
  Li12     1.0000 0.62400  0.91580  0.26660  Biso   1.000  Li
  Li13     1.0000 0.12400  0.58420  0.26660  Biso   1.000  Li
  Li14     1.0000 0.87600  0.91580  0.76660  Biso   1.000  Li
  Li15     1.0000 0.62400  0.41580  0.23340  Biso   1.000  Li
  Li16     1.0000 0.37600  0.08420  0.73340  Biso   1.000  Li
  C281     1.0000 0.11600  0.58920  0.51190  Biso   1.000  C
  C282     1.0000 0.88400  0.91080  0.01190  Biso   1.000  C
  C283     1.0000 0.61600  0.41080  0.98810  Biso   1.000  C
  C284     1.0000 0.38400  0.08920  0.48810  Biso   1.000  C
  C285     1.0000 0.88400  0.41080  0.48810  Biso   1.000  C
  C286     1.0000 0.11600  0.08920  0.98810  Biso   1.000  C
  C287     1.0000 0.38400  0.58920  0.01190  Biso   1.000  C
  C288     1.0000 0.61600  0.91080  0.51190  Biso   1.000  C
  H297     1.0000 0.11260  0.62450  0.51400  Biso   1.000  H
  H298     1.0000 0.88740  0.87550  0.01400  Biso   1.000  H
  H299     1.0000 0.61260  0.37550  0.98600  Biso   1.000  H
  H300     1.0000 0.38740  0.12450  0.48600  Biso   1.000  H
  H301     1.0000 0.88740  0.37550  0.48600  Biso   1.000  H
  H302     1.0000 0.11260  0.12450  0.98600  Biso   1.000  H
  H303     1.0000 0.38740  0.62450  0.01400  Biso   1.000  H
  H304     1.0000 0.61260  0.87550  0.51400  Biso   1.000  H
  H305     1.0000 0.12380  0.57950  0.47780  Biso   1.000  H
  H306     1.0000 0.87620  0.92050  0.97780  Biso   1.000  H
  H307     1.0000 0.62380  0.42050  0.02220  Biso   1.000  H
  H308     1.0000 0.37620  0.07950  0.52220  Biso   1.000  H
  H309     1.0000 0.87620  0.42050  0.52220  Biso   1.000  H
  H310     1.0000 0.12380  0.07950  0.02220  Biso   1.000  H
  H311     1.0000 0.37620  0.57950  0.97780  Biso   1.000  H
  H312     1.0000 0.62380  0.92050  0.47780  Biso   1.000  H
  H313     1.0000 0.16180  0.57790  0.53140  Biso   1.000  H
  H314     1.0000 0.83820  0.92210  0.03140  Biso   1.000  H
  H315     1.0000 0.66180  0.42210  0.96860  Biso   1.000  H
  H316     1.0000 0.33820  0.07790  0.46860  Biso   1.000  H
  H317     1.0000 0.83820  0.42210  0.46860  Biso   1.000  H
  H318     1.0000 0.16180  0.07790  0.96860  Biso   1.000  H
  H319     1.0000 0.33820  0.57790  0.03140  Biso   1.000  H
  H320     1.0000 0.66180  0.92210  0.53140  Biso   1.000  H
  C289     1.0000 0.03100  0.41100  0.64430  Biso   1.000  C
  C290     1.0000 0.96900  0.08900  0.14430  Biso   1.000  C
  C291     1.0000 0.53100  0.58900  0.85570  Biso   1.000  C
  C292     1.0000 0.46900  0.91100  0.35570  Biso   1.000  C
  C293     1.0000 0.96900  0.58900  0.35570  Biso   1.000  C
  C294     1.0000 0.03100  0.91100  0.85570  Biso   1.000  C
  C295     1.0000 0.46900  0.41100  0.14430  Biso   1.000  C
  C296     1.0000 0.53100  0.08900  0.64430  Biso   1.000  C
  H321     1.0000 0.98470  0.38940  0.64720  Biso   1.000  H
  H322     1.0000 0.01530  0.11060  0.14720  Biso   1.000  H
  H323     1.0000 0.48470  0.61060  0.85280  Biso   1.000  H
  H324     1.0000 0.51530  0.88940  0.35280  Biso   1.000  H
  H325     1.0000 0.01530  0.61060  0.35280  Biso   1.000  H
  H326     1.0000 0.98470  0.88940  0.85280  Biso   1.000  H
  H327     1.0000 0.51530  0.38940  0.14720  Biso   1.000  H
  H328     1.0000 0.48470  0.11060  0.64720  Biso   1.000  H
  H329     1.0000 0.07840  0.39220  0.63520  Biso   1.000  H
  H330     1.0000 0.92160  0.10780  0.13520  Biso   1.000  H
  H331     1.0000 0.57840  0.60780  0.86480  Biso   1.000  H
  H332     1.0000 0.42160  0.89220  0.36480  Biso   1.000  H
  H333     1.0000 0.92160  0.60780  0.36480  Biso   1.000  H
  H334     1.0000 0.07840  0.89220  0.86480  Biso   1.000  H
  H335     1.0000 0.42160  0.39220  0.13520  Biso   1.000  H
  H336     1.0000 0.57840  0.10780  0.63520  Biso   1.000  H
  H337     1.0000 0.02030  0.43550  0.61930  Biso   1.000  H
  H338     1.0000 0.97970  0.06450  0.11930  Biso   1.000  H
  H339     1.0000 0.52030  0.56450  0.88070  Biso   1.000  H
  H340     1.0000 0.47970  0.93550  0.38070  Biso   1.000  H
  H341     1.0000 0.97970  0.56450  0.38070  Biso   1.000  H
  H342     1.0000 0.02030  0.93550  0.88070  Biso   1.000  H
  H343     1.0000 0.47970  0.43550  0.11930  Biso   1.000  H
  H344     1.0000 0.52030  0.06450  0.61930  Biso   1.000  H
  O121     1.0000 0.87010  0.34660  0.73540  Biso   1.000  O
  O122     1.0000 0.12990  0.15340  0.23540  Biso   1.000  O
  O123     1.0000 0.37010  0.65340  0.76460  Biso   1.000  O
  O124     1.0000 0.62990  0.84660  0.26460  Biso   1.000  O
  O125     1.0000 0.12990  0.65340  0.26460  Biso   1.000  O
  O126     1.0000 0.87010  0.84660  0.76460  Biso   1.000  O
  O127     1.0000 0.62990  0.34660  0.23540  Biso   1.000  O
  O128     1.0000 0.37010  0.15340  0.73540  Biso   1.000  O
  N57      1.0000 0.91080  0.26440  0.73550  Biso   1.000  N
  N58      1.0000 0.08920  0.23560  0.23550  Biso   1.000  N
  N59      1.0000 0.41080  0.73560  0.76450  Biso   1.000  N
  N60      1.0000 0.58920  0.76440  0.26450  Biso   1.000  N
  N61      1.0000 0.08920  0.73560  0.26450  Biso   1.000  N
  N62      1.0000 0.91080  0.76440  0.76450  Biso   1.000  N
  N63      1.0000 0.58920  0.26440  0.23550  Biso   1.000  N
  N64      1.0000 0.41080  0.23560  0.73550  Biso   1.000  N
  C297     1.0000 0.93420  0.21730  0.71950  Biso   1.000  C
  C298     1.0000 0.06580  0.28270  0.21950  Biso   1.000  C
  C299     1.0000 0.43420  0.78270  0.78050  Biso   1.000  C
  C300     1.0000 0.56580  0.71730  0.28050  Biso   1.000  C
  C301     1.0000 0.06580  0.78270  0.28050  Biso   1.000  C
  C302     1.0000 0.93420  0.71730  0.78050  Biso   1.000  C
  C303     1.0000 0.56580  0.21730  0.21950  Biso   1.000  C
  C304     1.0000 0.43420  0.28270  0.71950  Biso   1.000  C
  H345     1.0000 0.90680  0.19280  0.73910  Biso   1.000  H
  H346     1.0000 0.09320  0.30720  0.23910  Biso   1.000  H
  H347     1.0000 0.40680  0.80720  0.76090  Biso   1.000  H
  H348     1.0000 0.59320  0.69280  0.26090  Biso   1.000  H
  H349     1.0000 0.09320  0.80720  0.26090  Biso   1.000  H
  H350     1.0000 0.90680  0.69280  0.76090  Biso   1.000  H
  H351     1.0000 0.59320  0.19280  0.23910  Biso   1.000  H
  H352     1.0000 0.40680  0.30720  0.73910  Biso   1.000  H
  H353     1.0000 0.91960  0.21320  0.68510  Biso   1.000  H
  H354     1.0000 0.08040  0.28680  0.18510  Biso   1.000  H
  H355     1.0000 0.41960  0.78680  0.81490  Biso   1.000  H
  H356     1.0000 0.58040  0.71320  0.31490  Biso   1.000  H
  H357     1.0000 0.08040  0.78680  0.31490  Biso   1.000  H
  H358     1.0000 0.91960  0.71320  0.81490  Biso   1.000  H
  H359     1.0000 0.58040  0.21320  0.18510  Biso   1.000  H
  H360     1.0000 0.41960  0.28680  0.68510  Biso   1.000  H
  H361     1.0000 0.99220  0.21360  0.72310  Biso   1.000  H
  H362     1.0000 0.00780  0.28640  0.22310  Biso   1.000  H
  H363     1.0000 0.49220  0.78640  0.77690  Biso   1.000  H
  H364     1.0000 0.50780  0.71360  0.27690  Biso   1.000  H
  H365     1.0000 0.00780  0.78640  0.27690  Biso   1.000  H
  H366     1.0000 0.99220  0.71360  0.77690  Biso   1.000  H
  H367     1.0000 0.50780  0.21360  0.22310  Biso   1.000  H
  H368     1.0000 0.49220  0.28640  0.72310  Biso   1.000  H
  C305     1.0000 0.90630  0.26840  0.79180  Biso   1.000  C
  C306     1.0000 0.09370  0.23160  0.29180  Biso   1.000  C
  C307     1.0000 0.40630  0.73160  0.70820  Biso   1.000  C
  C308     1.0000 0.59370  0.76840  0.20820  Biso   1.000  C
  C309     1.0000 0.09370  0.73160  0.20820  Biso   1.000  C
  C310     1.0000 0.90630  0.76840  0.70820  Biso   1.000  C
  C311     1.0000 0.59370  0.26840  0.29180  Biso   1.000  C
  C312     1.0000 0.40630  0.23160  0.79180  Biso   1.000  C
  H369     1.0000 0.95930  0.27650  0.80480  Biso   1.000  H
  H370     1.0000 0.04070  0.22350  0.30480  Biso   1.000  H
  H371     1.0000 0.45930  0.72350  0.69520  Biso   1.000  H
  H372     1.0000 0.54070  0.77650  0.19520  Biso   1.000  H
  H373     1.0000 0.04070  0.72350  0.19520  Biso   1.000  H
  H374     1.0000 0.95930  0.77650  0.69520  Biso   1.000  H
  H375     1.0000 0.54070  0.27650  0.30480  Biso   1.000  H
  H376     1.0000 0.45930  0.22350  0.80480  Biso   1.000  H
  H377     1.0000 0.86810  0.29380  0.80080  Biso   1.000  H
  H378     1.0000 0.13190  0.20620  0.30080  Biso   1.000  H
  H379     1.0000 0.36810  0.70620  0.69920  Biso   1.000  H
  H380     1.0000 0.63190  0.79380  0.19920  Biso   1.000  H
  H381     1.0000 0.13190  0.70620  0.19920  Biso   1.000  H
  H382     1.0000 0.86810  0.79380  0.69920  Biso   1.000  H
  H383     1.0000 0.63190  0.29380  0.30080  Biso   1.000  H
  H384     1.0000 0.36810  0.20620  0.80080  Biso   1.000  H
  H385     1.0000 0.88860  0.23740  0.80550  Biso   1.000  H
  H386     1.0000 0.11140  0.26260  0.30550  Biso   1.000  H
  H387     1.0000 0.38860  0.76260  0.69450  Biso   1.000  H
  H388     1.0000 0.61140  0.73740  0.19450  Biso   1.000  H
  H389     1.0000 0.11140  0.76260  0.19450  Biso   1.000  H
  H390     1.0000 0.88860  0.73740  0.69450  Biso   1.000  H
  H391     1.0000 0.61140  0.23740  0.30550  Biso   1.000  H
  H392     1.0000 0.38860  0.26260  0.80550  Biso   1.000  H
  C313     1.0000 0.89300  0.30370  0.72110  Biso   1.000  C
  C314     1.0000 0.10700  0.19630  0.22110  Biso   1.000  C
  C315     1.0000 0.39300  0.69630  0.77890  Biso   1.000  C
  C316     1.0000 0.60700  0.80370  0.27890  Biso   1.000  C
  C317     1.0000 0.10700  0.69630  0.27890  Biso   1.000  C
  C318     1.0000 0.89300  0.80370  0.77890  Biso   1.000  C
  C319     1.0000 0.60700  0.30370  0.22110  Biso   1.000  C
  C320     1.0000 0.39300  0.19630  0.72110  Biso   1.000  C
  H393     1.0000 0.89700  0.30390  0.68660  Biso   1.000  H
  H394     1.0000 0.10300  0.19610  0.18660  Biso   1.000  H
  H395     1.0000 0.39700  0.69610  0.81340  Biso   1.000  H
  H396     1.0000 0.60300  0.80390  0.31340  Biso   1.000  H
  H397     1.0000 0.10300  0.69610  0.31340  Biso   1.000  H
  H398     1.0000 0.89700  0.80390  0.81340  Biso   1.000  H
  H399     1.0000 0.60300  0.30390  0.18660  Biso   1.000  H
  H400     1.0000 0.39700  0.19610  0.68660  Biso   1.000  H
  O129     1.0000 0.83200  0.50460  0.59480  Biso   1.000  O
  O130     1.0000 0.16800  0.99540  0.09480  Biso   1.000  O
  O131     1.0000 0.33200  0.49540  0.90520  Biso   1.000  O
  O132     1.0000 0.66800  0.00460  0.40520  Biso   1.000  O
  O133     1.0000 0.16800  0.49540  0.40520  Biso   1.000  O
  O134     1.0000 0.83200  0.00460  0.90520  Biso   1.000  O
  O135     1.0000 0.66800  0.50460  0.09480  Biso   1.000  O
  O136     1.0000 0.33200  0.99540  0.59480  Biso   1.000  O
  H401     1.0000 0.87650  0.48840  0.59510  Biso   1.000  H
  H402     1.0000 0.12350  0.01160  0.09510  Biso   1.000  H
  H403     1.0000 0.37650  0.51160  0.90490  Biso   1.000  H
  H404     1.0000 0.62350  0.98840  0.40490  Biso   1.000  H
  H405     1.0000 0.12350  0.51160  0.40490  Biso   1.000  H
  H406     1.0000 0.87650  0.98840  0.90490  Biso   1.000  H
  H407     1.0000 0.62350  0.48840  0.09510  Biso   1.000  H
  H408     1.0000 0.37650  0.01160  0.59510  Biso   1.000  H
  H409     1.0000 0.82740  0.51980  0.56730  Biso   1.000  H
  H410     1.0000 0.17260  0.98020  0.06730  Biso   1.000  H
  H411     1.0000 0.32740  0.48020  0.93270  Biso   1.000  H
  H412     1.0000 0.67260  0.01980  0.43270  Biso   1.000  H
  H413     1.0000 0.17260  0.48020  0.43270  Biso   1.000  H
  H414     1.0000 0.82740  0.01980  0.93270  Biso   1.000  H
  H415     1.0000 0.67260  0.51980  0.06730  Biso   1.000  H
  H416     1.0000 0.32740  0.98020  0.56730  Biso   1.000  H
  C321     1.0000 0.05800  0.37570  0.68200  Biso   1.000  C
  C322     1.0000 0.94200  0.12430  0.18200  Biso   1.000  C
  C323     1.0000 0.55800  0.62430  0.81800  Biso   1.000  C
  C324     1.0000 0.44200  0.87570  0.31800  Biso   1.000  C
  C325     1.0000 0.94200  0.62430  0.31800  Biso   1.000  C
  C326     1.0000 0.05800  0.87570  0.81800  Biso   1.000  C
  C327     1.0000 0.44200  0.37570  0.18200  Biso   1.000  C
  C328     1.0000 0.55800  0.12430  0.68200  Biso   1.000  C
  H417     1.0000 0.07840  0.35910  0.71120  Biso   1.000  H
  H418     1.0000 0.92160  0.14090  0.21120  Biso   1.000  H
  H419     1.0000 0.57840  0.64090  0.78880  Biso   1.000  H
  H420     1.0000 0.42160  0.85910  0.28880  Biso   1.000  H
  H421     1.0000 0.92160  0.64090  0.28880  Biso   1.000  H
  H422     1.0000 0.07840  0.85910  0.78880  Biso   1.000  H
  H423     1.0000 0.42160  0.35910  0.21120  Biso   1.000  H
  H424     1.0000 0.57840  0.14090  0.71120  Biso   1.000  H
  H425     1.0000 0.09560  0.37160  0.65510  Biso   1.000  H
  H426     1.0000 0.90440  0.12840  0.15510  Biso   1.000  H
  H427     1.0000 0.59560  0.62840  0.84490  Biso   1.000  H
  H428     1.0000 0.40440  0.87160  0.34490  Biso   1.000  H
  H429     1.0000 0.90440  0.62840  0.34490  Biso   1.000  H
  H430     1.0000 0.09560  0.87160  0.84490  Biso   1.000  H
  H431     1.0000 0.40440  0.37160  0.15510  Biso   1.000  H
  H432     1.0000 0.59560  0.12840  0.65510  Biso   1.000  H
  H433     1.0000 0.00590  0.36180  0.67310  Biso   1.000  H
  H434     1.0000 0.99410  0.13820  0.17310  Biso   1.000  H
  H435     1.0000 0.50590  0.63820  0.82690  Biso   1.000  H
  H436     1.0000 0.49410  0.86180  0.32690  Biso   1.000  H
  H437     1.0000 0.99410  0.63820  0.32690  Biso   1.000  H
  H438     1.0000 0.00590  0.86180  0.82690  Biso   1.000  H
  H439     1.0000 0.49410  0.36180  0.17310  Biso   1.000  H
  H440     1.0000 0.50590  0.13820  0.67310  Biso   1.000  H
