data_image0
_cell_length_a       14.392
_cell_length_b       27.158
_cell_length_c       28.376
_cell_angle_alpha    90
_cell_angle_beta     90
_cell_angle_gamma    90

_symmetry_space_group_name_H-M    "P 1"
_symmetry_int_tables_number       1

loop_
  _symmetry_equiv_pos_as_xyz
  'x, y, z'

loop_
  _atom_site_label
  _atom_site_occupancy
  _atom_site_fract_x
  _atom_site_fract_y
  _atom_site_fract_z
  _atom_site_thermal_displace_type
  _atom_site_B_iso_or_equiv
  _atom_site_type_symbol
  Ba1      1.0000 0.50278  0.32571  0.52527  Biso   1.000  Ba
  Ba2      1.0000 0.99722  0.67429  0.02527  Biso   1.000  Ba
  Ba3      1.0000 0.00278  0.17429  0.47473  Biso   1.000  Ba
  Ba4      1.0000 0.49722  0.82571  0.97473  Biso   1.000  Ba
  Ba5      1.0000 0.49722  0.67429  0.47473  Biso   1.000  Ba
  Ba6      1.0000 0.00278  0.32571  0.97473  Biso   1.000  Ba
  Ba7      1.0000 0.99722  0.82571  0.52527  Biso   1.000  Ba
  Ba8      1.0000 0.50278  0.17429  0.02527  Biso   1.000  Ba
  Ba9      1.0000 0.23660  0.25180  0.52928  Biso   1.000  Ba
  Ba10     1.0000 0.26340  0.74820  0.02928  Biso   1.000  Ba
  Ba11     1.0000 0.73660  0.24820  0.47072  Biso   1.000  Ba
  Ba12     1.0000 0.76340  0.75180  0.97072  Biso   1.000  Ba
  Ba13     1.0000 0.76340  0.74820  0.47072  Biso   1.000  Ba
  Ba14     1.0000 0.73660  0.25180  0.97072  Biso   1.000  Ba
  Ba15     1.0000 0.26340  0.75180  0.52928  Biso   1.000  Ba
  Ba16     1.0000 0.23660  0.24820  0.02928  Biso   1.000  Ba
  I1       1.0000 0.00483  0.00436  0.79318  Biso   1.000  I
  I2       1.0000 0.49517  0.99564  0.29318  Biso   1.000  I
  I3       1.0000 0.50483  0.49564  0.20682  Biso   1.000  I
  I4       1.0000 0.99517  0.50436  0.70682  Biso   1.000  I
  I5       1.0000 0.99517  0.99564  0.20682  Biso   1.000  I
  I6       1.0000 0.50483  0.00436  0.70682  Biso   1.000  I
  I7       1.0000 0.49517  0.50436  0.79318  Biso   1.000  I
  I8       1.0000 0.00483  0.49564  0.29318  Biso   1.000  I
  Cu1      1.0000 0.17131  0.01101  0.75680  Biso   1.000  Cu
  Cu2      1.0000 0.32869  0.98899  0.25680  Biso   1.000  Cu
  Cu3      1.0000 0.67131  0.48899  0.24320  Biso   1.000  Cu
  Cu4      1.0000 0.82869  0.51101  0.74320  Biso   1.000  Cu
  Cu5      1.0000 0.82869  0.98899  0.24320  Biso   1.000  Cu
  Cu6      1.0000 0.67131  0.01101  0.74320  Biso   1.000  Cu
  Cu7      1.0000 0.32869  0.51101  0.75680  Biso   1.000  Cu
  Cu8      1.0000 0.17131  0.48899  0.25680  Biso   1.000  Cu
  Cu9      1.0000 0.00088  0.99500  0.88388  Biso   1.000  Cu
  Cu10     1.0000 0.49912  0.00500  0.38388  Biso   1.000  Cu
  Cu11     1.0000 0.50088  0.50500  0.11612  Biso   1.000  Cu
  Cu12     1.0000 0.99912  0.49500  0.61612  Biso   1.000  Cu
  Cu13     1.0000 0.99912  0.00500  0.11612  Biso   1.000  Cu
  Cu14     1.0000 0.50088  0.99500  0.61612  Biso   1.000  Cu
  Cu15     1.0000 0.49912  0.49500  0.88388  Biso   1.000  Cu
  Cu16     1.0000 0.00088  0.50500  0.38388  Biso   1.000  Cu
  C1       1.0000 0.48020  0.16400  0.45890  Biso   1.000  C
  C2       1.0000 0.01980  0.83600  0.95890  Biso   1.000  C
  C3       1.0000 0.98020  0.33600  0.54110  Biso   1.000  C
  C4       1.0000 0.51980  0.66400  0.04110  Biso   1.000  C
  C5       1.0000 0.51980  0.83600  0.54110  Biso   1.000  C
  C6       1.0000 0.98020  0.16400  0.04110  Biso   1.000  C
  C7       1.0000 0.01980  0.66400  0.45890  Biso   1.000  C
  C8       1.0000 0.48020  0.33600  0.95890  Biso   1.000  C
  C9       1.0000 0.24650  0.41250  0.45990  Biso   1.000  C
  C10      1.0000 0.25350  0.58750  0.95990  Biso   1.000  C
  C11      1.0000 0.74650  0.08750  0.54010  Biso   1.000  C
  C12      1.0000 0.75350  0.91250  0.04010  Biso   1.000  C
  C13      1.0000 0.75350  0.58750  0.54010  Biso   1.000  C
  C14      1.0000 0.74650  0.41250  0.04010  Biso   1.000  C
  C15      1.0000 0.25350  0.91250  0.45990  Biso   1.000  C
  C16      1.0000 0.24650  0.08750  0.95990  Biso   1.000  C
  C17      1.0000 0.24010  0.43310  0.69770  Biso   1.000  C
  C18      1.0000 0.25990  0.56690  0.19770  Biso   1.000  C
  C19      1.0000 0.74010  0.06690  0.30230  Biso   1.000  C
  C20      1.0000 0.75990  0.93310  0.80230  Biso   1.000  C
  C21      1.0000 0.75990  0.56690  0.30230  Biso   1.000  C
  C22      1.0000 0.74010  0.43310  0.80230  Biso   1.000  C
  C23      1.0000 0.25990  0.93310  0.69770  Biso   1.000  C
  C24      1.0000 0.24010  0.06690  0.19770  Biso   1.000  C
  H1       1.0000 0.18720  0.44460  0.71300  Biso   1.000  H
  H2       1.0000 0.31280  0.55540  0.21300  Biso   1.000  H
  H3       1.0000 0.68720  0.05540  0.28700  Biso   1.000  H
  H4       1.0000 0.81280  0.94460  0.78700  Biso   1.000  H
  H5       1.0000 0.81280  0.55540  0.28700  Biso   1.000  H
  H6       1.0000 0.68720  0.44460  0.78700  Biso   1.000  H
  H7       1.0000 0.31280  0.94460  0.71300  Biso   1.000  H
  H8       1.0000 0.18720  0.05540  0.21300  Biso   1.000  H
  O1       1.0000 0.55780  0.40900  0.56620  Biso   1.000  O
  O2       1.0000 0.94220  0.59100  0.06620  Biso   1.000  O
  O3       1.0000 0.05780  0.09100  0.43380  Biso   1.000  O
  O4       1.0000 0.44220  0.90900  0.93380  Biso   1.000  O
  O5       1.0000 0.44220  0.59100  0.43380  Biso   1.000  O
  O6       1.0000 0.05780  0.40900  0.93380  Biso   1.000  O
  O7       1.0000 0.94220  0.90900  0.56620  Biso   1.000  O
  O8       1.0000 0.55780  0.09100  0.06620  Biso   1.000  O
  O9       1.0000 0.53740  0.48640  0.54390  Biso   1.000  O
  O10      1.0000 0.96260  0.51360  0.04390  Biso   1.000  O
  O11      1.0000 0.03740  0.01360  0.45610  Biso   1.000  O
  O12      1.0000 0.46260  0.98640  0.95610  Biso   1.000  O
  O13      1.0000 0.46260  0.51360  0.45610  Biso   1.000  O
  O14      1.0000 0.03740  0.48640  0.95610  Biso   1.000  O
  O15      1.0000 0.96260  0.98640  0.54390  Biso   1.000  O
  O16      1.0000 0.53740  0.01360  0.04390  Biso   1.000  O
  O17      1.0000 0.40360  0.23130  0.49580  Biso   1.000  O
  O18      1.0000 0.09640  0.76870  0.99580  Biso   1.000  O
  O19      1.0000 0.90360  0.26870  0.50420  Biso   1.000  O
  O20      1.0000 0.59640  0.73130  0.00420  Biso   1.000  O
  O21      1.0000 0.59640  0.76870  0.50420  Biso   1.000  O
  O22      1.0000 0.90360  0.23130  0.00420  Biso   1.000  O
  O23      1.0000 0.09640  0.73130  0.49580  Biso   1.000  O
  O24      1.0000 0.40360  0.26870  0.99580  Biso   1.000  O
  C25      1.0000 0.23230  0.46050  0.47180  Biso   1.000  C
  C26      1.0000 0.26770  0.53950  0.97180  Biso   1.000  C
  C27      1.0000 0.73230  0.03950  0.52820  Biso   1.000  C
  C28      1.0000 0.76770  0.96050  0.02820  Biso   1.000  C
  C29      1.0000 0.76770  0.53950  0.52820  Biso   1.000  C
  C30      1.0000 0.73230  0.46050  0.02820  Biso   1.000  C
  C31      1.0000 0.26770  0.96050  0.47180  Biso   1.000  C
  C32      1.0000 0.23230  0.03950  0.97180  Biso   1.000  C
  H9       1.0000 0.26740  0.47520  0.49550  Biso   1.000  H
  H10      1.0000 0.23260  0.52480  0.99550  Biso   1.000  H
  H11      1.0000 0.76740  0.02480  0.50450  Biso   1.000  H
  H12      1.0000 0.73260  0.97520  0.00450  Biso   1.000  H
  H13      1.0000 0.73260  0.52480  0.50450  Biso   1.000  H
  H14      1.0000 0.76740  0.47520  0.00450  Biso   1.000  H
  H15      1.0000 0.23260  0.97520  0.49550  Biso   1.000  H
  H16      1.0000 0.26740  0.02480  0.99550  Biso   1.000  H
  C33      1.0000 0.62310  0.47050  0.61440  Biso   1.000  C
  C34      1.0000 0.87690  0.52950  0.11440  Biso   1.000  C
  C35      1.0000 0.12310  0.02950  0.38560  Biso   1.000  C
  C36      1.0000 0.37690  0.97050  0.88560  Biso   1.000  C
  C37      1.0000 0.37690  0.52950  0.38560  Biso   1.000  C
  C38      1.0000 0.12310  0.47050  0.88560  Biso   1.000  C
  C39      1.0000 0.87690  0.97050  0.61440  Biso   1.000  C
  C40      1.0000 0.62310  0.02950  0.11440  Biso   1.000  C
  C41      1.0000 0.55630  0.13290  0.46560  Biso   1.000  C
  C42      1.0000 0.94370  0.86710  0.96560  Biso   1.000  C
  C43      1.0000 0.05630  0.36710  0.53440  Biso   1.000  C
  C44      1.0000 0.44370  0.63290  0.03440  Biso   1.000  C
  C45      1.0000 0.44370  0.86710  0.53440  Biso   1.000  C
  C46      1.0000 0.05630  0.13290  0.03440  Biso   1.000  C
  C47      1.0000 0.94370  0.63290  0.46560  Biso   1.000  C
  C48      1.0000 0.55630  0.36710  0.96560  Biso   1.000  C
  H17      1.0000 0.60490  0.14180  0.48550  Biso   1.000  H
  H18      1.0000 0.89510  0.85820  0.98550  Biso   1.000  H
  H19      1.0000 0.10490  0.35820  0.51450  Biso   1.000  H
  H20      1.0000 0.39510  0.64180  0.01450  Biso   1.000  H
  H21      1.0000 0.39510  0.85820  0.51450  Biso   1.000  H
  H22      1.0000 0.10490  0.14180  0.01450  Biso   1.000  H
  H23      1.0000 0.89510  0.64180  0.48550  Biso   1.000  H
  H24      1.0000 0.60490  0.35820  0.98550  Biso   1.000  H
  C49      1.0000 0.22940  0.39700  0.66430  Biso   1.000  C
  C50      1.0000 0.27060  0.60300  0.16430  Biso   1.000  C
  C51      1.0000 0.72940  0.10300  0.33570  Biso   1.000  C
  C52      1.0000 0.77060  0.89700  0.83570  Biso   1.000  C
  C53      1.0000 0.77060  0.60300  0.33570  Biso   1.000  C
  C54      1.0000 0.72940  0.39700  0.83570  Biso   1.000  C
  C55      1.0000 0.27060  0.89700  0.66430  Biso   1.000  C
  C56      1.0000 0.22940  0.10300  0.16430  Biso   1.000  C
  H25      1.0000 0.17060  0.38500  0.65700  Biso   1.000  H
  H26      1.0000 0.32940  0.61500  0.15700  Biso   1.000  H
  H27      1.0000 0.67060  0.11500  0.34300  Biso   1.000  H
  H28      1.0000 0.82940  0.88500  0.84300  Biso   1.000  H
  H29      1.0000 0.82940  0.61500  0.34300  Biso   1.000  H
  H30      1.0000 0.67060  0.38500  0.84300  Biso   1.000  H
  H31      1.0000 0.32940  0.88500  0.65700  Biso   1.000  H
  H32      1.0000 0.17060  0.11500  0.15700  Biso   1.000  H
  C57      1.0000 0.56940  0.45370  0.57090  Biso   1.000  C
  C58      1.0000 0.93060  0.54630  0.07090  Biso   1.000  C
  C59      1.0000 0.06940  0.04630  0.42910  Biso   1.000  C
  C60      1.0000 0.43060  0.95370  0.92910  Biso   1.000  C
  C61      1.0000 0.43060  0.54630  0.42910  Biso   1.000  C
  C62      1.0000 0.06940  0.45370  0.92910  Biso   1.000  C
  C63      1.0000 0.93060  0.95370  0.57090  Biso   1.000  C
  C64      1.0000 0.56940  0.04630  0.07090  Biso   1.000  C
  C65      1.0000 0.31850  0.38170  0.48470  Biso   1.000  C
  C66      1.0000 0.18150  0.61830  0.98470  Biso   1.000  C
  C67      1.0000 0.81850  0.11830  0.51530  Biso   1.000  C
  C68      1.0000 0.68150  0.88170  0.01530  Biso   1.000  C
  C69      1.0000 0.68150  0.61830  0.51530  Biso   1.000  C
  C70      1.0000 0.81850  0.38170  0.01530  Biso   1.000  C
  C71      1.0000 0.18150  0.88170  0.48470  Biso   1.000  C
  C72      1.0000 0.31850  0.11830  0.98470  Biso   1.000  C
  O25      1.0000 0.30760  0.33610  0.48620  Biso   1.000  O
  O26      1.0000 0.19240  0.66390  0.98620  Biso   1.000  O
  O27      1.0000 0.80760  0.16390  0.51380  Biso   1.000  O
  O28      1.0000 0.69240  0.83610  0.01380  Biso   1.000  O
  O29      1.0000 0.69240  0.66390  0.51380  Biso   1.000  O
  O30      1.0000 0.80760  0.33610  0.01380  Biso   1.000  O
  O31      1.0000 0.19240  0.83610  0.48620  Biso   1.000  O
  O32      1.0000 0.30760  0.16390  0.98620  Biso   1.000  O
  C73      1.0000 0.41800  0.10380  0.40810  Biso   1.000  C
  C74      1.0000 0.08200  0.89620  0.90810  Biso   1.000  C
  C75      1.0000 0.91800  0.39620  0.59190  Biso   1.000  C
  C76      1.0000 0.58200  0.60380  0.09190  Biso   1.000  C
  C77      1.0000 0.58200  0.89620  0.59190  Biso   1.000  C
  C78      1.0000 0.91800  0.10380  0.09190  Biso   1.000  C
  C79      1.0000 0.08200  0.60380  0.40810  Biso   1.000  C
  C80      1.0000 0.41800  0.39620  0.90810  Biso   1.000  C
  H33      1.0000 0.36980  0.09360  0.38860  Biso   1.000  H
  H34      1.0000 0.13020  0.90640  0.88860  Biso   1.000  H
  H35      1.0000 0.86980  0.40640  0.61140  Biso   1.000  H
  H36      1.0000 0.63020  0.59360  0.11140  Biso   1.000  H
  H37      1.0000 0.63020  0.90640  0.61140  Biso   1.000  H
  H38      1.0000 0.86980  0.09360  0.11140  Biso   1.000  H
  H39      1.0000 0.13020  0.59360  0.38860  Biso   1.000  H
  H40      1.0000 0.36980  0.40640  0.88860  Biso   1.000  H
  O33      1.0000 0.55530  0.23440  0.48780  Biso   1.000  O
  O34      1.0000 0.94470  0.76560  0.98780  Biso   1.000  O
  O35      1.0000 0.05530  0.26560  0.51220  Biso   1.000  O
  O36      1.0000 0.44470  0.73440  0.01220  Biso   1.000  O
  O37      1.0000 0.44470  0.76560  0.51220  Biso   1.000  O
  O38      1.0000 0.05530  0.23440  0.01220  Biso   1.000  O
  O39      1.0000 0.94470  0.73440  0.48780  Biso   1.000  O
  O40      1.0000 0.55530  0.26560  0.98780  Biso   1.000  O
  N1       1.0000 0.19690  0.07280  0.72050  Biso   1.000  N
  N2       1.0000 0.30310  0.92720  0.22050  Biso   1.000  N
  N3       1.0000 0.69690  0.42720  0.27950  Biso   1.000  N
  N4       1.0000 0.80310  0.57280  0.77950  Biso   1.000  N
  N5       1.0000 0.80310  0.92720  0.27950  Biso   1.000  N
  N6       1.0000 0.69690  0.07280  0.77950  Biso   1.000  N
  N7       1.0000 0.30310  0.57280  0.72050  Biso   1.000  N
  N8       1.0000 0.19690  0.42720  0.22050  Biso   1.000  N
  C81      1.0000 0.40890  0.14820  0.43020  Biso   1.000  C
  C82      1.0000 0.09110  0.85180  0.93020  Biso   1.000  C
  C83      1.0000 0.90890  0.35180  0.56980  Biso   1.000  C
  C84      1.0000 0.59110  0.64820  0.06980  Biso   1.000  C
  C85      1.0000 0.59110  0.85180  0.56980  Biso   1.000  C
  C86      1.0000 0.90890  0.14820  0.06980  Biso   1.000  C
  C87      1.0000 0.09110  0.64820  0.43020  Biso   1.000  C
  C88      1.0000 0.40890  0.35180  0.93020  Biso   1.000  C
  H41      1.0000 0.35590  0.16730  0.42590  Biso   1.000  H
  H42      1.0000 0.14410  0.83270  0.92590  Biso   1.000  H
  H43      1.0000 0.85590  0.33270  0.57410  Biso   1.000  H
  H44      1.0000 0.64410  0.66730  0.07410  Biso   1.000  H
  H45      1.0000 0.64410  0.83270  0.57410  Biso   1.000  H
  H46      1.0000 0.85590  0.16730  0.07410  Biso   1.000  H
  H47      1.0000 0.14410  0.66730  0.42590  Biso   1.000  H
  H48      1.0000 0.35590  0.33270  0.92590  Biso   1.000  H
  C89      1.0000 0.39400  0.07060  0.56290  Biso   1.000  C
  C90      1.0000 0.10600  0.92940  0.06290  Biso   1.000  C
  C91      1.0000 0.89400  0.42940  0.43710  Biso   1.000  C
  C92      1.0000 0.60600  0.57060  0.93710  Biso   1.000  C
  C93      1.0000 0.60600  0.92940  0.43710  Biso   1.000  C
  C94      1.0000 0.89400  0.07060  0.93710  Biso   1.000  C
  C95      1.0000 0.10600  0.57060  0.56290  Biso   1.000  C
  C96      1.0000 0.39400  0.42940  0.06290  Biso   1.000  C
  H49      1.0000 0.45390  0.08070  0.55520  Biso   1.000  H
  H50      1.0000 0.04610  0.91930  0.05520  Biso   1.000  H
  H51      1.0000 0.95390  0.41930  0.44480  Biso   1.000  H
  H52      1.0000 0.54610  0.58070  0.94480  Biso   1.000  H
  H53      1.0000 0.54610  0.91930  0.44480  Biso   1.000  H
  H54      1.0000 0.95390  0.08070  0.94480  Biso   1.000  H
  H55      1.0000 0.04610  0.58070  0.55520  Biso   1.000  H
  H56      1.0000 0.45390  0.41930  0.05520  Biso   1.000  H
  C97      1.0000 0.19260  0.39200  0.42460  Biso   1.000  C
  C98      1.0000 0.30740  0.60800  0.92460  Biso   1.000  C
  C99      1.0000 0.69260  0.10800  0.57540  Biso   1.000  C
  C100     1.0000 0.80740  0.89200  0.07540  Biso   1.000  C
  C101     1.0000 0.80740  0.60800  0.57540  Biso   1.000  C
  C102     1.0000 0.69260  0.39200  0.07540  Biso   1.000  C
  C103     1.0000 0.30740  0.89200  0.42460  Biso   1.000  C
  C104     1.0000 0.19260  0.10800  0.92460  Biso   1.000  C
  H57      1.0000 0.19800  0.35880  0.41680  Biso   1.000  H
  H58      1.0000 0.30200  0.64120  0.91680  Biso   1.000  H
  H59      1.0000 0.69800  0.14120  0.58320  Biso   1.000  H
  H60      1.0000 0.80200  0.85880  0.08320  Biso   1.000  H
  H61      1.0000 0.80200  0.64120  0.58320  Biso   1.000  H
  H62      1.0000 0.69800  0.35880  0.08320  Biso   1.000  H
  H63      1.0000 0.30200  0.85880  0.41680  Biso   1.000  H
  H64      1.0000 0.19800  0.14120  0.91680  Biso   1.000  H
  C105     1.0000 0.48010  0.21310  0.48240  Biso   1.000  C
  C106     1.0000 0.01990  0.78690  0.98240  Biso   1.000  C
  C107     1.0000 0.98010  0.28690  0.51760  Biso   1.000  C
  C108     1.0000 0.51990  0.71310  0.01760  Biso   1.000  C
  C109     1.0000 0.51990  0.78690  0.51760  Biso   1.000  C
  C110     1.0000 0.98010  0.21310  0.01760  Biso   1.000  C
  C111     1.0000 0.01990  0.71310  0.48240  Biso   1.000  C
  C112     1.0000 0.48010  0.28690  0.98240  Biso   1.000  C
  O41      1.0000 0.38650  0.40500  0.50240  Biso   1.000  O
  O42      1.0000 0.11350  0.59500  0.00240  Biso   1.000  O
  O43      1.0000 0.88650  0.09500  0.49760  Biso   1.000  O
  O44      1.0000 0.61350  0.90500  0.99760  Biso   1.000  O
  O45      1.0000 0.61350  0.59500  0.49760  Biso   1.000  O
  O46      1.0000 0.88650  0.40500  0.99760  Biso   1.000  O
  O47      1.0000 0.11350  0.90500  0.50240  Biso   1.000  O
  O48      1.0000 0.38650  0.09500  0.00240  Biso   1.000  O
  C113     1.0000 0.62780  0.51880  0.62940  Biso   1.000  C
  C114     1.0000 0.87220  0.48120  0.12940  Biso   1.000  C
  C115     1.0000 0.12780  0.98120  0.37060  Biso   1.000  C
  C116     1.0000 0.37220  0.01880  0.87060  Biso   1.000  C
  C117     1.0000 0.37220  0.48120  0.37060  Biso   1.000  C
  C118     1.0000 0.12780  0.51880  0.87060  Biso   1.000  C
  C119     1.0000 0.87220  0.01880  0.62940  Biso   1.000  C
  C120     1.0000 0.62780  0.98120  0.12940  Biso   1.000  C
  H65      1.0000 0.59500  0.54340  0.61370  Biso   1.000  H
  H66      1.0000 0.90500  0.45660  0.11370  Biso   1.000  H
  H67      1.0000 0.09500  0.95660  0.38630  Biso   1.000  H
  H68      1.0000 0.40500  0.04340  0.88630  Biso   1.000  H
  H69      1.0000 0.40500  0.45660  0.38630  Biso   1.000  H
  H70      1.0000 0.09500  0.54340  0.88630  Biso   1.000  H
  H71      1.0000 0.90500  0.04340  0.61370  Biso   1.000  H
  H72      1.0000 0.59500  0.95660  0.11370  Biso   1.000  H
  C121     1.0000 0.55710  0.08900  0.44210  Biso   1.000  C
  C122     1.0000 0.94290  0.91100  0.94210  Biso   1.000  C
  C123     1.0000 0.05710  0.41100  0.55790  Biso   1.000  C
  C124     1.0000 0.44290  0.58900  0.05790  Biso   1.000  C
  C125     1.0000 0.44290  0.91100  0.55790  Biso   1.000  C
  C126     1.0000 0.05710  0.08900  0.05790  Biso   1.000  C
  C127     1.0000 0.94290  0.58900  0.44210  Biso   1.000  C
  C128     1.0000 0.55710  0.41100  0.94210  Biso   1.000  C
  H73      1.0000 0.60730  0.06810  0.44710  Biso   1.000  H
  H74      1.0000 0.89270  0.93190  0.94710  Biso   1.000  H
  H75      1.0000 0.10730  0.43190  0.55290  Biso   1.000  H
  H76      1.0000 0.39270  0.56810  0.05290  Biso   1.000  H
  H77      1.0000 0.39270  0.93190  0.55290  Biso   1.000  H
  H78      1.0000 0.10730  0.06810  0.05290  Biso   1.000  H
  H79      1.0000 0.89270  0.56810  0.44710  Biso   1.000  H
  H80      1.0000 0.60730  0.43190  0.94710  Biso   1.000  H
  C129     1.0000 0.39210  0.39840  0.65310  Biso   1.000  C
  C130     1.0000 0.10790  0.60160  0.15310  Biso   1.000  C
  C131     1.0000 0.89210  0.10160  0.34690  Biso   1.000  C
  C132     1.0000 0.60790  0.89840  0.84690  Biso   1.000  C
  C133     1.0000 0.60790  0.60160  0.34690  Biso   1.000  C
  C134     1.0000 0.89210  0.39840  0.84690  Biso   1.000  C
  C135     1.0000 0.10790  0.89840  0.65310  Biso   1.000  C
  C136     1.0000 0.39210  0.10160  0.15310  Biso   1.000  C
  H81      1.0000 0.44580  0.38730  0.63830  Biso   1.000  H
  H82      1.0000 0.05420  0.61270  0.13830  Biso   1.000  H
  H83      1.0000 0.94580  0.11270  0.36170  Biso   1.000  H
  H84      1.0000 0.55420  0.88730  0.86170  Biso   1.000  H
  H85      1.0000 0.55420  0.61270  0.36170  Biso   1.000  H
  H86      1.0000 0.94580  0.38730  0.86170  Biso   1.000  H
  H87      1.0000 0.05420  0.88730  0.63830  Biso   1.000  H
  H88      1.0000 0.44580  0.11270  0.13830  Biso   1.000  H
  C137     1.0000 0.16380  0.48740  0.44790  Biso   1.000  C
  C138     1.0000 0.33620  0.51260  0.94790  Biso   1.000  C
  C139     1.0000 0.66380  0.01260  0.55210  Biso   1.000  C
  C140     1.0000 0.83620  0.98740  0.05210  Biso   1.000  C
  C141     1.0000 0.83620  0.51260  0.55210  Biso   1.000  C
  C142     1.0000 0.66380  0.48740  0.05210  Biso   1.000  C
  C143     1.0000 0.33620  0.98740  0.44790  Biso   1.000  C
  C144     1.0000 0.16380  0.01260  0.94790  Biso   1.000  C
  H89      1.0000 0.15310  0.51980  0.45690  Biso   1.000  H
  H90      1.0000 0.34690  0.48020  0.95690  Biso   1.000  H
  H91      1.0000 0.65310  0.98020  0.54310  Biso   1.000  H
  H92      1.0000 0.84690  0.01980  0.04310  Biso   1.000  H
  H93      1.0000 0.84690  0.48020  0.54310  Biso   1.000  H
  H94      1.0000 0.65310  0.51980  0.04310  Biso   1.000  H
  H95      1.0000 0.34690  0.01980  0.45690  Biso   1.000  H
  H96      1.0000 0.15310  0.98020  0.95690  Biso   1.000  H
  C145     1.0000 0.30730  0.37850  0.64150  Biso   1.000  C
  C146     1.0000 0.19270  0.62150  0.14150  Biso   1.000  C
  C147     1.0000 0.80730  0.12150  0.35850  Biso   1.000  C
  C148     1.0000 0.69270  0.87850  0.85850  Biso   1.000  C
  C149     1.0000 0.69270  0.62150  0.35850  Biso   1.000  C
  C150     1.0000 0.80730  0.37850  0.85850  Biso   1.000  C
  C151     1.0000 0.19270  0.87850  0.64150  Biso   1.000  C
  C152     1.0000 0.30730  0.12150  0.14150  Biso   1.000  C
  C153     1.0000 0.67400  0.43540  0.63930  Biso   1.000  C
  C154     1.0000 0.82600  0.56460  0.13930  Biso   1.000  C
  C155     1.0000 0.17400  0.06460  0.36070  Biso   1.000  C
  C156     1.0000 0.32600  0.93540  0.86070  Biso   1.000  C
  C157     1.0000 0.32600  0.56460  0.36070  Biso   1.000  C
  C158     1.0000 0.17400  0.43540  0.86070  Biso   1.000  C
  C159     1.0000 0.82600  0.93540  0.63930  Biso   1.000  C
  C160     1.0000 0.67400  0.06460  0.13930  Biso   1.000  C
  H97      1.0000 0.67210  0.40240  0.63040  Biso   1.000  H
  H98      1.0000 0.82790  0.59760  0.13040  Biso   1.000  H
  H99      1.0000 0.17210  0.09760  0.36960  Biso   1.000  H
  H100     1.0000 0.32790  0.90240  0.86960  Biso   1.000  H
  H101     1.0000 0.32790  0.59760  0.36960  Biso   1.000  H
  H102     1.0000 0.17210  0.40240  0.86960  Biso   1.000  H
  H103     1.0000 0.82790  0.90240  0.63040  Biso   1.000  H
  H104     1.0000 0.67210  0.09760  0.13040  Biso   1.000  H
  C161     1.0000 0.13080  0.42220  0.40160  Biso   1.000  C
  C162     1.0000 0.36920  0.57780  0.90160  Biso   1.000  C
  C163     1.0000 0.63080  0.07780  0.59840  Biso   1.000  C
  C164     1.0000 0.86920  0.92220  0.09840  Biso   1.000  C
  C165     1.0000 0.86920  0.57780  0.59840  Biso   1.000  C
  C166     1.0000 0.63080  0.42220  0.09840  Biso   1.000  C
  C167     1.0000 0.36920  0.92220  0.40160  Biso   1.000  C
  C168     1.0000 0.13080  0.07780  0.90160  Biso   1.000  C
  H105     1.0000 0.09870  0.40900  0.37610  Biso   1.000  H
  H106     1.0000 0.40130  0.59100  0.87610  Biso   1.000  H
  H107     1.0000 0.59870  0.09100  0.62390  Biso   1.000  H
  H108     1.0000 0.90130  0.90900  0.12390  Biso   1.000  H
  H109     1.0000 0.90130  0.59100  0.62390  Biso   1.000  H
  H110     1.0000 0.59870  0.40900  0.12390  Biso   1.000  H
  H111     1.0000 0.40130  0.90900  0.37610  Biso   1.000  H
  H112     1.0000 0.09870  0.09100  0.87610  Biso   1.000  H
  O49      1.0000 0.06930  0.09620  0.54320  Biso   1.000  O
  O50      1.0000 0.43070  0.90380  0.04320  Biso   1.000  O
  O51      1.0000 0.56930  0.40380  0.45680  Biso   1.000  O
  O52      1.0000 0.93070  0.59620  0.95680  Biso   1.000  O
  O53      1.0000 0.93070  0.90380  0.45680  Biso   1.000  O
  O54      1.0000 0.56930  0.09620  0.95680  Biso   1.000  O
  O55      1.0000 0.43070  0.59620  0.54320  Biso   1.000  O
  O56      1.0000 0.06930  0.40380  0.04320  Biso   1.000  O
  O57      1.0000 0.16620  0.15700  0.52560  Biso   1.000  O
  O58      1.0000 0.33380  0.84300  0.02560  Biso   1.000  O
  O59      1.0000 0.66620  0.34300  0.47440  Biso   1.000  O
  O60      1.0000 0.83380  0.65700  0.97440  Biso   1.000  O
  O61      1.0000 0.83380  0.84300  0.47440  Biso   1.000  O
  O62      1.0000 0.66620  0.15700  0.97440  Biso   1.000  O
  O63      1.0000 0.33380  0.65700  0.52560  Biso   1.000  O
  O64      1.0000 0.16620  0.34300  0.02560  Biso   1.000  O
  N9       1.0000 0.73260  0.49630  0.69210  Biso   1.000  N
  N10      1.0000 0.76740  0.50370  0.19210  Biso   1.000  N
  N11      1.0000 0.23260  0.00370  0.30790  Biso   1.000  N
  N12      1.0000 0.26740  0.99630  0.80790  Biso   1.000  N
  N13      1.0000 0.26740  0.50370  0.30790  Biso   1.000  N
  N14      1.0000 0.23260  0.49630  0.80790  Biso   1.000  N
  N15      1.0000 0.76740  0.99630  0.69210  Biso   1.000  N
  N16      1.0000 0.73260  0.00370  0.19210  Biso   1.000  N
  N17      1.0000 0.11330  0.46850  0.41280  Biso   1.000  N
  N18      1.0000 0.38670  0.53150  0.91280  Biso   1.000  N
  N19      1.0000 0.61330  0.03150  0.58720  Biso   1.000  N
  N20      1.0000 0.88670  0.96850  0.08720  Biso   1.000  N
  N21      1.0000 0.88670  0.53150  0.58720  Biso   1.000  N
  N22      1.0000 0.61330  0.46850  0.08720  Biso   1.000  N
  N23      1.0000 0.38670  0.96850  0.41280  Biso   1.000  N
  N24      1.0000 0.11330  0.03150  0.91280  Biso   1.000  N
  C169     1.0000 0.23060  0.08440  0.55690  Biso   1.000  C
  C170     1.0000 0.26940  0.91560  0.05690  Biso   1.000  C
  C171     1.0000 0.73060  0.41560  0.44310  Biso   1.000  C
  C172     1.0000 0.76940  0.58440  0.94310  Biso   1.000  C
  C173     1.0000 0.76940  0.91560  0.44310  Biso   1.000  C
  C174     1.0000 0.73060  0.08440  0.94310  Biso   1.000  C
  C175     1.0000 0.26940  0.58440  0.55690  Biso   1.000  C
  C176     1.0000 0.23060  0.41560  0.05690  Biso   1.000  C
  N25      1.0000 0.38370  0.03040  0.58880  Biso   1.000  N
  N26      1.0000 0.11630  0.96960  0.08880  Biso   1.000  N
  N27      1.0000 0.88370  0.46960  0.41120  Biso   1.000  N
  N28      1.0000 0.61630  0.53040  0.91120  Biso   1.000  N
  N29      1.0000 0.61630  0.96960  0.41120  Biso   1.000  N
  N30      1.0000 0.88370  0.03040  0.91120  Biso   1.000  N
  N31      1.0000 0.11630  0.53040  0.58880  Biso   1.000  N
  N32      1.0000 0.38370  0.46960  0.08880  Biso   1.000  N
  C177     1.0000 0.22020  0.04210  0.58280  Biso   1.000  C
  C178     1.0000 0.27980  0.95790  0.08280  Biso   1.000  C
  C179     1.0000 0.72020  0.45790  0.41720  Biso   1.000  C
  C180     1.0000 0.77980  0.54210  0.91720  Biso   1.000  C
  C181     1.0000 0.77980  0.95790  0.41720  Biso   1.000  C
  C182     1.0000 0.72020  0.04210  0.91720  Biso   1.000  C
  C183     1.0000 0.27980  0.54210  0.58280  Biso   1.000  C
  C184     1.0000 0.22020  0.45790  0.08280  Biso   1.000  C
  H113     1.0000 0.16110  0.03010  0.58940  Biso   1.000  H
  H114     1.0000 0.33890  0.96990  0.08940  Biso   1.000  H
  H115     1.0000 0.66110  0.46990  0.41060  Biso   1.000  H
  H116     1.0000 0.83890  0.53010  0.91060  Biso   1.000  H
  H117     1.0000 0.83890  0.96990  0.41060  Biso   1.000  H
  H118     1.0000 0.66110  0.03010  0.91060  Biso   1.000  H
  H119     1.0000 0.33890  0.53010  0.58940  Biso   1.000  H
  H120     1.0000 0.16110  0.46990  0.08940  Biso   1.000  H
  N33      1.0000 0.49130  0.07390  0.41250  Biso   1.000  N
  N34      1.0000 0.00870  0.92610  0.91250  Biso   1.000  N
  N35      1.0000 0.99130  0.42610  0.58750  Biso   1.000  N
  N36      1.0000 0.50870  0.57390  0.08750  Biso   1.000  N
  N37      1.0000 0.50870  0.92610  0.58750  Biso   1.000  N
  N38      1.0000 0.99130  0.07390  0.08750  Biso   1.000  N
  N39      1.0000 0.00870  0.57390  0.41250  Biso   1.000  N
  N40      1.0000 0.49130  0.42610  0.91250  Biso   1.000  N
  C185     1.0000 0.29790  0.01740  0.59900  Biso   1.000  C
  C186     1.0000 0.20210  0.98260  0.09900  Biso   1.000  C
  C187     1.0000 0.79790  0.48260  0.40100  Biso   1.000  C
  C188     1.0000 0.70210  0.51740  0.90100  Biso   1.000  C
  C189     1.0000 0.70210  0.98260  0.40100  Biso   1.000  C
  C190     1.0000 0.79790  0.01740  0.90100  Biso   1.000  C
  C191     1.0000 0.20210  0.51740  0.59900  Biso   1.000  C
  C192     1.0000 0.29790  0.48260  0.09900  Biso   1.000  C
  H121     1.0000 0.28900  0.99010  0.61820  Biso   1.000  H
  H122     1.0000 0.21100  0.00990  0.11820  Biso   1.000  H
  H123     1.0000 0.78900  0.50990  0.38180  Biso   1.000  H
  H124     1.0000 0.71100  0.49010  0.88180  Biso   1.000  H
  H125     1.0000 0.71100  0.00990  0.38180  Biso   1.000  H
  H126     1.0000 0.78900  0.99010  0.88180  Biso   1.000  H
  H127     1.0000 0.21100  0.49010  0.61820  Biso   1.000  H
  H128     1.0000 0.28900  0.50990  0.11820  Biso   1.000  H
  C193     1.0000 0.31940  0.09840  0.54660  Biso   1.000  C
  C194     1.0000 0.18060  0.90160  0.04660  Biso   1.000  C
  C195     1.0000 0.81940  0.40160  0.45340  Biso   1.000  C
  C196     1.0000 0.68060  0.59840  0.95340  Biso   1.000  C
  C197     1.0000 0.68060  0.90160  0.45340  Biso   1.000  C
  C198     1.0000 0.81940  0.09840  0.95340  Biso   1.000  C
  C199     1.0000 0.18060  0.59840  0.54660  Biso   1.000  C
  C200     1.0000 0.31940  0.40160  0.04660  Biso   1.000  C
  H129     1.0000 0.33010  0.12650  0.52860  Biso   1.000  H
  H130     1.0000 0.16990  0.87350  0.02860  Biso   1.000  H
  H131     1.0000 0.83010  0.37350  0.47140  Biso   1.000  H
  H132     1.0000 0.66990  0.62650  0.97140  Biso   1.000  H
  H133     1.0000 0.66990  0.87350  0.47140  Biso   1.000  H
  H134     1.0000 0.83010  0.12650  0.97140  Biso   1.000  H
  H135     1.0000 0.16990  0.62650  0.52860  Biso   1.000  H
  H136     1.0000 0.33010  0.37350  0.02860  Biso   1.000  H
  C201     1.0000 0.14930  0.11500  0.54030  Biso   1.000  C
  C202     1.0000 0.35070  0.88500  0.04030  Biso   1.000  C
  C203     1.0000 0.64930  0.38500  0.45970  Biso   1.000  C
  C204     1.0000 0.85070  0.61500  0.95970  Biso   1.000  C
  C205     1.0000 0.85070  0.88500  0.45970  Biso   1.000  C
  C206     1.0000 0.64930  0.11500  0.95970  Biso   1.000  C
  C207     1.0000 0.35070  0.61500  0.54030  Biso   1.000  C
  C208     1.0000 0.14930  0.38500  0.04030  Biso   1.000  C
  O65      1.0000 0.67900  0.27950  0.56100  Biso   1.000  O
  O66      1.0000 0.82100  0.72050  0.06100  Biso   1.000  O
  O67      1.0000 0.17900  0.22050  0.43900  Biso   1.000  O
  O68      1.0000 0.32100  0.77950  0.93900  Biso   1.000  O
  O69      1.0000 0.32100  0.72050  0.43900  Biso   1.000  O
  O70      1.0000 0.17900  0.27950  0.93900  Biso   1.000  O
  O71      1.0000 0.82100  0.77950  0.56100  Biso   1.000  O
  O72      1.0000 0.67900  0.22050  0.06100  Biso   1.000  O
  O73      1.0000 0.36990  0.31430  0.59350  Biso   1.000  O
  O74      1.0000 0.13010  0.68570  0.09350  Biso   1.000  O
  O75      1.0000 0.86990  0.18570  0.40650  Biso   1.000  O
  O76      1.0000 0.63010  0.81430  0.90650  Biso   1.000  O
  O77      1.0000 0.63010  0.68570  0.40650  Biso   1.000  O
  O78      1.0000 0.86990  0.31430  0.90650  Biso   1.000  O
  O79      1.0000 0.13010  0.81430  0.59350  Biso   1.000  O
  O80      1.0000 0.36990  0.18570  0.09350  Biso   1.000  O
  O81      1.0000 0.55080  0.26710  0.60330  Biso   1.000  O
  O82      1.0000 0.94920  0.73290  0.10330  Biso   1.000  O
  O83      1.0000 0.05080  0.23290  0.39670  Biso   1.000  O
  O84      1.0000 0.44920  0.76710  0.89670  Biso   1.000  O
  O85      1.0000 0.44920  0.73290  0.39670  Biso   1.000  O
  O86      1.0000 0.05080  0.26710  0.89670  Biso   1.000  O
  O87      1.0000 0.94920  0.76710  0.60330  Biso   1.000  O
  O88      1.0000 0.55080  0.23290  0.10330  Biso   1.000  O
  C209     1.0000 0.39740  0.43530  0.68730  Biso   1.000  C
  C210     1.0000 0.10260  0.56470  0.18730  Biso   1.000  C
  C211     1.0000 0.89740  0.06470  0.31270  Biso   1.000  C
  C212     1.0000 0.60260  0.93530  0.81270  Biso   1.000  C
  C213     1.0000 0.60260  0.56470  0.31270  Biso   1.000  C
  C214     1.0000 0.89740  0.43530  0.81270  Biso   1.000  C
  C215     1.0000 0.10260  0.93530  0.68730  Biso   1.000  C
  C216     1.0000 0.39740  0.06470  0.18730  Biso   1.000  C
  H137     1.0000 0.45530  0.44830  0.69490  Biso   1.000  H
  H138     1.0000 0.04470  0.55170  0.19490  Biso   1.000  H
  H139     1.0000 0.95530  0.05170  0.30510  Biso   1.000  H
  H140     1.0000 0.54470  0.94830  0.80510  Biso   1.000  H
  H141     1.0000 0.54470  0.55170  0.30510  Biso   1.000  H
  H142     1.0000 0.95530  0.44830  0.80510  Biso   1.000  H
  H143     1.0000 0.04470  0.94830  0.69490  Biso   1.000  H
  H144     1.0000 0.45530  0.05170  0.19490  Biso   1.000  H
  C217     1.0000 0.29560  0.33840  0.60560  Biso   1.000  C
  C218     1.0000 0.20440  0.66160  0.10560  Biso   1.000  C
  C219     1.0000 0.79560  0.16160  0.39440  Biso   1.000  C
  C220     1.0000 0.70440  0.83840  0.89440  Biso   1.000  C
  C221     1.0000 0.70440  0.66160  0.39440  Biso   1.000  C
  C222     1.0000 0.79560  0.33840  0.89440  Biso   1.000  C
  C223     1.0000 0.20440  0.83840  0.60560  Biso   1.000  C
  C224     1.0000 0.29560  0.16160  0.10560  Biso   1.000  C
  N41      1.0000 0.32170  0.45280  0.70940  Biso   1.000  N
  N42      1.0000 0.17830  0.54720  0.20940  Biso   1.000  N
  N43      1.0000 0.82170  0.04720  0.29060  Biso   1.000  N
  N44      1.0000 0.67830  0.95280  0.79060  Biso   1.000  N
  N45      1.0000 0.67830  0.54720  0.29060  Biso   1.000  N
  N46      1.0000 0.82170  0.45280  0.79060  Biso   1.000  N
  N47      1.0000 0.17830  0.95280  0.70940  Biso   1.000  N
  N48      1.0000 0.32170  0.04720  0.20940  Biso   1.000  N
  O89      1.0000 0.22030  0.33060  0.58920  Biso   1.000  O
  O90      1.0000 0.27970  0.66940  0.08920  Biso   1.000  O
  O91      1.0000 0.72030  0.16940  0.41080  Biso   1.000  O
  O92      1.0000 0.77970  0.83060  0.91080  Biso   1.000  O
  O93      1.0000 0.77970  0.66940  0.41080  Biso   1.000  O
  O94      1.0000 0.72030  0.33060  0.91080  Biso   1.000  O
  O95      1.0000 0.27970  0.83060  0.58920  Biso   1.000  O
  O96      1.0000 0.22030  0.16940  0.08920  Biso   1.000  O
  C225     1.0000 0.63840  0.26110  0.59520  Biso   1.000  C
  C226     1.0000 0.86160  0.73890  0.09520  Biso   1.000  C
  C227     1.0000 0.13840  0.23890  0.40480  Biso   1.000  C
  C228     1.0000 0.36160  0.76110  0.90480  Biso   1.000  C
  C229     1.0000 0.36160  0.73890  0.40480  Biso   1.000  C
  C230     1.0000 0.13840  0.26110  0.90480  Biso   1.000  C
  C231     1.0000 0.86160  0.76110  0.59520  Biso   1.000  C
  C232     1.0000 0.63840  0.23890  0.09520  Biso   1.000  C
  C233     1.0000 0.12880  0.09960  0.69990  Biso   1.000  C
  C234     1.0000 0.37120  0.90040  0.19990  Biso   1.000  C
  C235     1.0000 0.62880  0.40040  0.30010  Biso   1.000  C
  C236     1.0000 0.87120  0.59960  0.80010  Biso   1.000  C
  C237     1.0000 0.87120  0.90040  0.30010  Biso   1.000  C
  C238     1.0000 0.62880  0.09960  0.80010  Biso   1.000  C
  C239     1.0000 0.37120  0.59960  0.69990  Biso   1.000  C
  C240     1.0000 0.12880  0.40040  0.19990  Biso   1.000  C
  H145     1.0000 0.06770  0.08980  0.70500  Biso   1.000  H
  H146     1.0000 0.43230  0.91020  0.20500  Biso   1.000  H
  H147     1.0000 0.56770  0.41020  0.29500  Biso   1.000  H
  H148     1.0000 0.93230  0.58980  0.79500  Biso   1.000  H
  H149     1.0000 0.93230  0.91020  0.29500  Biso   1.000  H
  H150     1.0000 0.56770  0.08980  0.79500  Biso   1.000  H
  H151     1.0000 0.43230  0.58980  0.70500  Biso   1.000  H
  H152     1.0000 0.06770  0.41020  0.20500  Biso   1.000  H
  C241     1.0000 0.68250  0.53020  0.66850  Biso   1.000  C
  C242     1.0000 0.81750  0.46980  0.16850  Biso   1.000  C
  C243     1.0000 0.18250  0.96980  0.33150  Biso   1.000  C
  C244     1.0000 0.31750  0.03020  0.83150  Biso   1.000  C
  C245     1.0000 0.31750  0.46980  0.33150  Biso   1.000  C
  C246     1.0000 0.18250  0.53020  0.83150  Biso   1.000  C
  C247     1.0000 0.81750  0.03020  0.66850  Biso   1.000  C
  C248     1.0000 0.68250  0.96980  0.16850  Biso   1.000  C
  H153     1.0000 0.68460  0.56280  0.67870  Biso   1.000  H
  H154     1.0000 0.81540  0.43720  0.17870  Biso   1.000  H
  H155     1.0000 0.18460  0.93720  0.32130  Biso   1.000  H
  H156     1.0000 0.31540  0.06280  0.82130  Biso   1.000  H
  H157     1.0000 0.31540  0.43720  0.32130  Biso   1.000  H
  H158     1.0000 0.18460  0.56280  0.82130  Biso   1.000  H
  H159     1.0000 0.81540  0.06280  0.67870  Biso   1.000  H
  H160     1.0000 0.68460  0.93720  0.17870  Biso   1.000  H
  C249     1.0000 0.72620  0.45000  0.67660  Biso   1.000  C
  C250     1.0000 0.77380  0.55000  0.17660  Biso   1.000  C
  C251     1.0000 0.22620  0.05000  0.32340  Biso   1.000  C
  C252     1.0000 0.27380  0.95000  0.82340  Biso   1.000  C
  C253     1.0000 0.27380  0.55000  0.32340  Biso   1.000  C
  C254     1.0000 0.22620  0.45000  0.82340  Biso   1.000  C
  C255     1.0000 0.77380  0.95000  0.67660  Biso   1.000  C
  C256     1.0000 0.72620  0.05000  0.17660  Biso   1.000  C
  H161     1.0000 0.75990  0.42590  0.69260  Biso   1.000  H
  H162     1.0000 0.74010  0.57410  0.19260  Biso   1.000  H
  H163     1.0000 0.25990  0.07410  0.30740  Biso   1.000  H
  H164     1.0000 0.24010  0.92590  0.80740  Biso   1.000  H
  H165     1.0000 0.24010  0.57410  0.30740  Biso   1.000  H
  H166     1.0000 0.25990  0.42590  0.80740  Biso   1.000  H
  H167     1.0000 0.74010  0.92590  0.69260  Biso   1.000  H
  H168     1.0000 0.75990  0.07410  0.19260  Biso   1.000  H
  C257     1.0000 0.22880  0.15350  0.66230  Biso   1.000  C
  C258     1.0000 0.27120  0.84650  0.16230  Biso   1.000  C
  C259     1.0000 0.72880  0.34650  0.33770  Biso   1.000  C
  C260     1.0000 0.77120  0.65350  0.83770  Biso   1.000  C
  C261     1.0000 0.77120  0.84650  0.33770  Biso   1.000  C
  C262     1.0000 0.72880  0.15350  0.83770  Biso   1.000  C
  C263     1.0000 0.27120  0.65350  0.66230  Biso   1.000  C
  C264     1.0000 0.22880  0.34650  0.16230  Biso   1.000  C
  C265     1.0000 0.14330  0.13970  0.67230  Biso   1.000  C
  C266     1.0000 0.35670  0.86030  0.17230  Biso   1.000  C
  C267     1.0000 0.64330  0.36030  0.32770  Biso   1.000  C
  C268     1.0000 0.85670  0.63970  0.82770  Biso   1.000  C
  C269     1.0000 0.85670  0.86030  0.32770  Biso   1.000  C
  C270     1.0000 0.64330  0.13970  0.82770  Biso   1.000  C
  C271     1.0000 0.35670  0.63970  0.67230  Biso   1.000  C
  C272     1.0000 0.14330  0.36030  0.17230  Biso   1.000  C
  H169     1.0000 0.09310  0.15740  0.66050  Biso   1.000  H
  H170     1.0000 0.40690  0.84260  0.16050  Biso   1.000  H
  H171     1.0000 0.59310  0.34260  0.33950  Biso   1.000  H
  H172     1.0000 0.90690  0.65740  0.83950  Biso   1.000  H
  H173     1.0000 0.90690  0.84260  0.33950  Biso   1.000  H
  H174     1.0000 0.59310  0.15740  0.83950  Biso   1.000  H
  H175     1.0000 0.40690  0.65740  0.66050  Biso   1.000  H
  H176     1.0000 0.09310  0.34260  0.16050  Biso   1.000  H
  C273     1.0000 0.28420  0.08660  0.71140  Biso   1.000  C
  C274     1.0000 0.21580  0.91340  0.21140  Biso   1.000  C
  C275     1.0000 0.78420  0.41340  0.28860  Biso   1.000  C
  C276     1.0000 0.71580  0.58660  0.78860  Biso   1.000  C
  C277     1.0000 0.71580  0.91340  0.28860  Biso   1.000  C
  C278     1.0000 0.78420  0.08660  0.78860  Biso   1.000  C
  C279     1.0000 0.21580  0.58660  0.71140  Biso   1.000  C
  C280     1.0000 0.28420  0.41340  0.21140  Biso   1.000  C
  H177     1.0000 0.33360  0.06970  0.72490  Biso   1.000  H
  H178     1.0000 0.16640  0.93030  0.22490  Biso   1.000  H
  H179     1.0000 0.83360  0.43030  0.27510  Biso   1.000  H
  H180     1.0000 0.66640  0.56970  0.77510  Biso   1.000  H
  H181     1.0000 0.66640  0.93030  0.27510  Biso   1.000  H
  H182     1.0000 0.83360  0.06970  0.77510  Biso   1.000  H
  H183     1.0000 0.16640  0.56970  0.72490  Biso   1.000  H
  H184     1.0000 0.33360  0.43030  0.22490  Biso   1.000  H
  C281     1.0000 0.30230  0.12850  0.68010  Biso   1.000  C
  C282     1.0000 0.19770  0.87150  0.18010  Biso   1.000  C
  C283     1.0000 0.80230  0.37150  0.31990  Biso   1.000  C
  C284     1.0000 0.69770  0.62850  0.81990  Biso   1.000  C
  C285     1.0000 0.69770  0.87150  0.31990  Biso   1.000  C
  C286     1.0000 0.80230  0.12850  0.81990  Biso   1.000  C
  C287     1.0000 0.19770  0.62850  0.68010  Biso   1.000  C
  C288     1.0000 0.30230  0.37150  0.18010  Biso   1.000  C
  H185     1.0000 0.36280  0.13780  0.67270  Biso   1.000  H
  H186     1.0000 0.13720  0.86220  0.17270  Biso   1.000  H
  H187     1.0000 0.86280  0.36220  0.32730  Biso   1.000  H
  H188     1.0000 0.63720  0.63780  0.82730  Biso   1.000  H
  H189     1.0000 0.63720  0.86220  0.32730  Biso   1.000  H
  H190     1.0000 0.86280  0.13780  0.82730  Biso   1.000  H
  H191     1.0000 0.13720  0.63780  0.67270  Biso   1.000  H
  H192     1.0000 0.36280  0.36220  0.17270  Biso   1.000  H
  Li1      1.0000 0.48400  0.45010  0.48770  Biso   1.000  Li
  Li2      1.0000 0.01600  0.54990  0.98770  Biso   1.000  Li
  Li3      1.0000 0.98400  0.04990  0.51230  Biso   1.000  Li
  Li4      1.0000 0.51600  0.95010  0.01230  Biso   1.000  Li
  Li5      1.0000 0.51600  0.54990  0.51230  Biso   1.000  Li
  Li6      1.0000 0.98400  0.45010  0.01230  Biso   1.000  Li
  Li7      1.0000 0.01600  0.95010  0.48770  Biso   1.000  Li
  Li8      1.0000 0.48400  0.04990  0.98770  Biso   1.000  Li
  O97      1.0000 0.31410  0.20580  0.61440  Biso   1.000  O
  O98      1.0000 0.18590  0.79420  0.11440  Biso   1.000  O
  O99      1.0000 0.81410  0.29420  0.38560  Biso   1.000  O
  O100     1.0000 0.68590  0.70580  0.88560  Biso   1.000  O
  O101     1.0000 0.68590  0.79420  0.38560  Biso   1.000  O
  O102     1.0000 0.81410  0.20580  0.88560  Biso   1.000  O
  O103     1.0000 0.18590  0.70580  0.61440  Biso   1.000  O
  O104     1.0000 0.31410  0.29420  0.11440  Biso   1.000  O
  O105     1.0000 0.16700  0.22090  0.61520  Biso   1.000  O
  O106     1.0000 0.33300  0.77910  0.11520  Biso   1.000  O
  O107     1.0000 0.66700  0.27910  0.38480  Biso   1.000  O
  O108     1.0000 0.83300  0.72090  0.88480  Biso   1.000  O
  O109     1.0000 0.83300  0.77910  0.38480  Biso   1.000  O
  O110     1.0000 0.66700  0.22090  0.88480  Biso   1.000  O
  O111     1.0000 0.33300  0.72090  0.61520  Biso   1.000  O
  O112     1.0000 0.16700  0.27910  0.11520  Biso   1.000  O
  C289     1.0000 0.24120  0.19770  0.62870  Biso   1.000  C
  C290     1.0000 0.25880  0.80230  0.12870  Biso   1.000  C
  C291     1.0000 0.74120  0.30230  0.37130  Biso   1.000  C
  C292     1.0000 0.75880  0.69770  0.87130  Biso   1.000  C
  C293     1.0000 0.75880  0.80230  0.37130  Biso   1.000  C
  C294     1.0000 0.74120  0.19770  0.87130  Biso   1.000  C
  C295     1.0000 0.25880  0.69770  0.62870  Biso   1.000  C
  C296     1.0000 0.24120  0.30230  0.12870  Biso   1.000  C
  N49      1.0000 0.79290  0.16500  0.68500  Biso   1.000  N
  N50      1.0000 0.70710  0.83500  0.18500  Biso   1.000  N
  N51      1.0000 0.29290  0.33500  0.31500  Biso   1.000  N
  N52      1.0000 0.20710  0.66500  0.81500  Biso   1.000  N
  N53      1.0000 0.20710  0.83500  0.31500  Biso   1.000  N
  N54      1.0000 0.29290  0.16500  0.81500  Biso   1.000  N
  N55      1.0000 0.70710  0.66500  0.68500  Biso   1.000  N
  N56      1.0000 0.79290  0.33500  0.18500  Biso   1.000  N
  C297     1.0000 0.83710  0.19100  0.64920  Biso   1.000  C
  C298     1.0000 0.66290  0.80900  0.14920  Biso   1.000  C
  C299     1.0000 0.33710  0.30900  0.35080  Biso   1.000  C
  C300     1.0000 0.16290  0.69100  0.85080  Biso   1.000  C
  C301     1.0000 0.16290  0.80900  0.35080  Biso   1.000  C
  C302     1.0000 0.33710  0.19100  0.85080  Biso   1.000  C
  C303     1.0000 0.66290  0.69100  0.64920  Biso   1.000  C
  C304     1.0000 0.83710  0.30900  0.14920  Biso   1.000  C
  H193     1.0000 0.90050  0.18700  0.64430  Biso   1.000  H
  H194     1.0000 0.59950  0.81300  0.14430  Biso   1.000  H
  H195     1.0000 0.40050  0.31300  0.35570  Biso   1.000  H
  H196     1.0000 0.09950  0.68700  0.85570  Biso   1.000  H
  H197     1.0000 0.09950  0.81300  0.35570  Biso   1.000  H
  H198     1.0000 0.40050  0.18700  0.85570  Biso   1.000  H
  H199     1.0000 0.59950  0.68700  0.64430  Biso   1.000  H
  H200     1.0000 0.90050  0.31300  0.14430  Biso   1.000  H
  C305     1.0000 0.78650  0.22290  0.62080  Biso   1.000  C
  C306     1.0000 0.71350  0.77710  0.12080  Biso   1.000  C
  C307     1.0000 0.28650  0.27710  0.37920  Biso   1.000  C
  C308     1.0000 0.21350  0.72290  0.87920  Biso   1.000  C
  C309     1.0000 0.21350  0.77710  0.37920  Biso   1.000  C
  C310     1.0000 0.28650  0.22290  0.87920  Biso   1.000  C
  C311     1.0000 0.71350  0.72290  0.62080  Biso   1.000  C
  C312     1.0000 0.78650  0.27710  0.12080  Biso   1.000  C
  H201     1.0000 0.81600  0.24030  0.59690  Biso   1.000  H
  H202     1.0000 0.68400  0.75970  0.09690  Biso   1.000  H
  H203     1.0000 0.31600  0.25970  0.40310  Biso   1.000  H
  H204     1.0000 0.18400  0.74030  0.90310  Biso   1.000  H
  H205     1.0000 0.18400  0.75970  0.40310  Biso   1.000  H
  H206     1.0000 0.31600  0.24030  0.90310  Biso   1.000  H
  H207     1.0000 0.68400  0.74030  0.59690  Biso   1.000  H
  H208     1.0000 0.81600  0.25970  0.09690  Biso   1.000  H
  C313     1.0000 0.69160  0.22890  0.62820  Biso   1.000  C
  C314     1.0000 0.80840  0.77110  0.12820  Biso   1.000  C
  C315     1.0000 0.19160  0.27110  0.37180  Biso   1.000  C
  C316     1.0000 0.30840  0.72890  0.87180  Biso   1.000  C
  C317     1.0000 0.30840  0.77110  0.37180  Biso   1.000  C
  C318     1.0000 0.19160  0.22890  0.87180  Biso   1.000  C
  C319     1.0000 0.80840  0.72890  0.62820  Biso   1.000  C
  C320     1.0000 0.69160  0.27110  0.12820  Biso   1.000  C
  C321     1.0000 0.64750  0.20290  0.66390  Biso   1.000  C
  C322     1.0000 0.85250  0.79710  0.16390  Biso   1.000  C
  C323     1.0000 0.14750  0.29710  0.33610  Biso   1.000  C
  C324     1.0000 0.35250  0.70290  0.83610  Biso   1.000  C
  C325     1.0000 0.35250  0.79710  0.33610  Biso   1.000  C
  C326     1.0000 0.14750  0.20290  0.83610  Biso   1.000  C
  C327     1.0000 0.85250  0.70290  0.66390  Biso   1.000  C
  C328     1.0000 0.64750  0.29710  0.16390  Biso   1.000  C
  H209     1.0000 0.58400  0.20690  0.66890  Biso   1.000  H
  H210     1.0000 0.91600  0.79310  0.16890  Biso   1.000  H
  H211     1.0000 0.08400  0.29310  0.33110  Biso   1.000  H
  H212     1.0000 0.41600  0.70690  0.83110  Biso   1.000  H
  H213     1.0000 0.41600  0.79310  0.33110  Biso   1.000  H
  H214     1.0000 0.08400  0.20690  0.83110  Biso   1.000  H
  H215     1.0000 0.91600  0.70690  0.66890  Biso   1.000  H
  H216     1.0000 0.58400  0.29310  0.16890  Biso   1.000  H
  C329     1.0000 0.69810  0.17100  0.69240  Biso   1.000  C
  C330     1.0000 0.80190  0.82900  0.19240  Biso   1.000  C
  C331     1.0000 0.19810  0.32900  0.30760  Biso   1.000  C
  C332     1.0000 0.30190  0.67100  0.80760  Biso   1.000  C
  C333     1.0000 0.30190  0.82900  0.30760  Biso   1.000  C
  C334     1.0000 0.19810  0.17100  0.80760  Biso   1.000  C
  C335     1.0000 0.80190  0.67100  0.69240  Biso   1.000  C
  C336     1.0000 0.69810  0.32900  0.19240  Biso   1.000  C
  H217     1.0000 0.66850  0.15360  0.71630  Biso   1.000  H
  H218     1.0000 0.83150  0.84640  0.21630  Biso   1.000  H
  H219     1.0000 0.16850  0.34640  0.28370  Biso   1.000  H
  H220     1.0000 0.33150  0.65360  0.78370  Biso   1.000  H
  H221     1.0000 0.33150  0.84640  0.28370  Biso   1.000  H
  H222     1.0000 0.16850  0.15360  0.78370  Biso   1.000  H
  H223     1.0000 0.83150  0.65360  0.71630  Biso   1.000  H
  H224     1.0000 0.66850  0.34640  0.21630  Biso   1.000  H
  Li9      1.0000 0.42500  0.25960  0.63100  Biso   1.000  Li
  Li10     1.0000 0.07500  0.74040  0.13100  Biso   1.000  Li
  Li11     1.0000 0.92500  0.24040  0.36900  Biso   1.000  Li
  Li12     1.0000 0.57500  0.75960  0.86900  Biso   1.000  Li
  Li13     1.0000 0.57500  0.74040  0.36900  Biso   1.000  Li
  Li14     1.0000 0.92500  0.25960  0.86900  Biso   1.000  Li
  Li15     1.0000 0.07500  0.75960  0.63100  Biso   1.000  Li
  Li16     1.0000 0.42500  0.24040  0.13100  Biso   1.000  Li
  O113     1.0000 0.49000  0.31670  0.42220  Biso   1.000  O
  O114     1.0000 0.01000  0.68330  0.92220  Biso   1.000  O
  O115     1.0000 0.99000  0.18330  0.57780  Biso   1.000  O
  O116     1.0000 0.51000  0.81670  0.07780  Biso   1.000  O
  O117     1.0000 0.51000  0.68330  0.57780  Biso   1.000  O
  O118     1.0000 0.99000  0.31670  0.07780  Biso   1.000  O
  O119     1.0000 0.01000  0.81670  0.42220  Biso   1.000  O
  O120     1.0000 0.49000  0.18330  0.92220  Biso   1.000  O
  H225     1.0000 0.47960  0.27790  0.40560  Biso   1.000  H
  H226     1.0000 0.02040  0.72210  0.90560  Biso   1.000  H
  H227     1.0000 0.97960  0.22210  0.59440  Biso   1.000  H
  H228     1.0000 0.52040  0.77790  0.09440  Biso   1.000  H
  H229     1.0000 0.52040  0.72210  0.59440  Biso   1.000  H
  H230     1.0000 0.97960  0.27790  0.09440  Biso   1.000  H
  H231     1.0000 0.02040  0.77790  0.40560  Biso   1.000  H
  H232     1.0000 0.47960  0.22210  0.90560  Biso   1.000  H
  H233     1.0000 0.55190  0.33010  0.40010  Biso   1.000  H
  H234     1.0000 0.94810  0.66990  0.90010  Biso   1.000  H
  H235     1.0000 0.05190  0.16990  0.59990  Biso   1.000  H
  H236     1.0000 0.44810  0.83010  0.09990  Biso   1.000  H
  H237     1.0000 0.44810  0.66990  0.59990  Biso   1.000  H
  H238     1.0000 0.05190  0.33010  0.09990  Biso   1.000  H
  H239     1.0000 0.94810  0.83010  0.40010  Biso   1.000  H
  H240     1.0000 0.55190  0.16990  0.90010  Biso   1.000  H
  O121     1.0000 0.40800  0.26260  0.69290  Biso   1.000  O
  O122     1.0000 0.09200  0.73740  0.19290  Biso   1.000  O
  O123     1.0000 0.90800  0.23740  0.30710  Biso   1.000  O
  O124     1.0000 0.59200  0.76260  0.80710  Biso   1.000  O
  O125     1.0000 0.59200  0.73740  0.30710  Biso   1.000  O
  O126     1.0000 0.90800  0.26260  0.80710  Biso   1.000  O
  O127     1.0000 0.09200  0.76260  0.69290  Biso   1.000  O
  O128     1.0000 0.40800  0.23740  0.19290  Biso   1.000  O
  O129     1.0000 0.45500  0.29060  0.70490  Biso   1.000  O
  O130     1.0000 0.04500  0.70940  0.20490  Biso   1.000  O
  O131     1.0000 0.95500  0.20940  0.29510  Biso   1.000  O
  O132     1.0000 0.54500  0.79060  0.79510  Biso   1.000  O
  O133     1.0000 0.54500  0.70940  0.29510  Biso   1.000  O
  O134     1.0000 0.95500  0.29060  0.79510  Biso   1.000  O
  O135     1.0000 0.04500  0.79060  0.70490  Biso   1.000  O
  O136     1.0000 0.45500  0.20940  0.20490  Biso   1.000  O
