data_image0
_cell_length_a       14.881
_cell_length_b       14.881
_cell_length_c       38.3621
_cell_angle_alpha    90
_cell_angle_beta     90
_cell_angle_gamma    90

_symmetry_space_group_name_H-M    "P 1"
_symmetry_int_tables_number       1

loop_
  _symmetry_equiv_pos_as_xyz
  'x, y, z'

loop_
  _atom_site_label
  _atom_site_occupancy
  _atom_site_fract_x
  _atom_site_fract_y
  _atom_site_fract_z
  _atom_site_thermal_displace_type
  _atom_site_B_iso_or_equiv
  _atom_site_type_symbol
  I1       1.0000 0.60761  0.14995  0.03085  Biso   1.000  I
  I2       1.0000 0.10005  0.35761  0.28085  Biso   1.000  I
  I3       1.0000 0.39239  0.35005  0.03085  Biso   1.000  I
  I4       1.0000 0.39995  0.64239  0.78085  Biso   1.000  I
  I5       1.0000 0.60761  0.85005  0.46915  Biso   1.000  I
  I6       1.0000 0.89239  0.14995  0.96915  Biso   1.000  I
  I7       1.0000 0.89995  0.85761  0.21915  Biso   1.000  I
  I8       1.0000 0.10005  0.64239  0.21915  Biso   1.000  I
  I9       1.0000 0.10761  0.64995  0.53085  Biso   1.000  I
  I10      1.0000 0.60005  0.85761  0.78085  Biso   1.000  I
  I11      1.0000 0.89239  0.85005  0.53085  Biso   1.000  I
  I12      1.0000 0.89995  0.14239  0.28085  Biso   1.000  I
  I13      1.0000 0.10761  0.35005  0.96915  Biso   1.000  I
  I14      1.0000 0.39239  0.64995  0.46915  Biso   1.000  I
  I15      1.0000 0.39995  0.35761  0.71915  Biso   1.000  I
  I16      1.0000 0.60005  0.14239  0.71915  Biso   1.000  I
  I17      1.0000 0.39239  0.85005  0.96915  Biso   1.000  I
  I18      1.0000 0.39995  0.14239  0.21915  Biso   1.000  I
  I19      1.0000 0.60761  0.64995  0.96915  Biso   1.000  I
  I20      1.0000 0.10005  0.85761  0.71915  Biso   1.000  I
  I21      1.0000 0.39239  0.14995  0.53085  Biso   1.000  I
  I22      1.0000 0.10761  0.85005  0.03085  Biso   1.000  I
  I23      1.0000 0.60005  0.64239  0.28085  Biso   1.000  I
  I24      1.0000 0.39995  0.85761  0.28085  Biso   1.000  I
  I25      1.0000 0.89239  0.35005  0.46915  Biso   1.000  I
  I26      1.0000 0.89995  0.64239  0.71915  Biso   1.000  I
  I27      1.0000 0.10761  0.14995  0.46915  Biso   1.000  I
  I28      1.0000 0.60005  0.35761  0.21915  Biso   1.000  I
  I29      1.0000 0.89239  0.64995  0.03085  Biso   1.000  I
  I30      1.0000 0.60761  0.35005  0.53085  Biso   1.000  I
  I31      1.0000 0.10005  0.14239  0.78085  Biso   1.000  I
  I32      1.0000 0.89995  0.35761  0.78085  Biso   1.000  I
  Cu1      1.0000 0.56693  0.32103  0.01909  Biso   1.000  Cu
  Cu2      1.0000 0.92897  0.31693  0.26909  Biso   1.000  Cu
  Cu3      1.0000 0.43307  0.17897  0.01909  Biso   1.000  Cu
  Cu4      1.0000 0.57103  0.68307  0.76909  Biso   1.000  Cu
  Cu5      1.0000 0.56693  0.67897  0.48091  Biso   1.000  Cu
  Cu6      1.0000 0.93307  0.32103  0.98091  Biso   1.000  Cu
  Cu7      1.0000 0.07103  0.81693  0.23091  Biso   1.000  Cu
  Cu8      1.0000 0.92897  0.68307  0.23091  Biso   1.000  Cu
  Cu9      1.0000 0.06693  0.82103  0.51909  Biso   1.000  Cu
  Cu10     1.0000 0.42897  0.81693  0.76909  Biso   1.000  Cu
  Cu11     1.0000 0.93307  0.67897  0.51909  Biso   1.000  Cu
  Cu12     1.0000 0.07103  0.18307  0.26909  Biso   1.000  Cu
  Cu13     1.0000 0.06693  0.17897  0.98091  Biso   1.000  Cu
  Cu14     1.0000 0.43307  0.82103  0.48091  Biso   1.000  Cu
  Cu15     1.0000 0.57103  0.31693  0.73091  Biso   1.000  Cu
  Cu16     1.0000 0.42897  0.18307  0.73091  Biso   1.000  Cu
  Cu17     1.0000 0.43307  0.67897  0.98091  Biso   1.000  Cu
  Cu18     1.0000 0.57103  0.18307  0.23091  Biso   1.000  Cu
  Cu19     1.0000 0.56693  0.82103  0.98091  Biso   1.000  Cu
  Cu20     1.0000 0.92897  0.81693  0.73091  Biso   1.000  Cu
  Cu21     1.0000 0.43307  0.32103  0.51909  Biso   1.000  Cu
  Cu22     1.0000 0.06693  0.67897  0.01909  Biso   1.000  Cu
  Cu23     1.0000 0.42897  0.68307  0.26909  Biso   1.000  Cu
  Cu24     1.0000 0.57103  0.81693  0.26909  Biso   1.000  Cu
  Cu25     1.0000 0.93307  0.17897  0.48091  Biso   1.000  Cu
  Cu26     1.0000 0.07103  0.68307  0.73091  Biso   1.000  Cu
  Cu27     1.0000 0.06693  0.32103  0.48091  Biso   1.000  Cu
  Cu28     1.0000 0.42897  0.31693  0.23091  Biso   1.000  Cu
  Cu29     1.0000 0.93307  0.82103  0.01909  Biso   1.000  Cu
  Cu30     1.0000 0.56693  0.17897  0.51909  Biso   1.000  Cu
  Cu31     1.0000 0.92897  0.18307  0.76909  Biso   1.000  Cu
  Cu32     1.0000 0.07103  0.31693  0.76909  Biso   1.000  Cu
  N1       1.0000 0.59070  0.34040  0.96766  Biso   1.000  N
  N2       1.0000 0.90960  0.34070  0.21766  Biso   1.000  N
  N3       1.0000 0.40930  0.15960  0.96766  Biso   1.000  N
  N4       1.0000 0.59040  0.65930  0.71766  Biso   1.000  N
  N5       1.0000 0.59070  0.65960  0.53234  Biso   1.000  N
  N6       1.0000 0.90930  0.34040  0.03234  Biso   1.000  N
  N7       1.0000 0.09040  0.84070  0.28234  Biso   1.000  N
  N8       1.0000 0.90960  0.65930  0.28234  Biso   1.000  N
  N9       1.0000 0.09070  0.84040  0.46766  Biso   1.000  N
  N10      1.0000 0.40960  0.84070  0.71766  Biso   1.000  N
  N11      1.0000 0.90930  0.65960  0.46766  Biso   1.000  N
  N12      1.0000 0.09040  0.15930  0.21766  Biso   1.000  N
  N13      1.0000 0.09070  0.15960  0.03234  Biso   1.000  N
  N14      1.0000 0.40930  0.84040  0.53234  Biso   1.000  N
  N15      1.0000 0.59040  0.34070  0.78234  Biso   1.000  N
  N16      1.0000 0.40960  0.15930  0.78234  Biso   1.000  N
  N17      1.0000 0.40930  0.65960  0.03234  Biso   1.000  N
  N18      1.0000 0.59040  0.15930  0.28234  Biso   1.000  N
  N19      1.0000 0.59070  0.84040  0.03234  Biso   1.000  N
  N20      1.0000 0.90960  0.84070  0.78234  Biso   1.000  N
  N21      1.0000 0.40930  0.34040  0.46766  Biso   1.000  N
  N22      1.0000 0.09070  0.65960  0.96766  Biso   1.000  N
  N23      1.0000 0.40960  0.65930  0.21766  Biso   1.000  N
  N24      1.0000 0.59040  0.84070  0.21766  Biso   1.000  N
  N25      1.0000 0.90930  0.15960  0.53234  Biso   1.000  N
  N26      1.0000 0.09040  0.65930  0.78234  Biso   1.000  N
  N27      1.0000 0.09070  0.34040  0.53234  Biso   1.000  N
  N28      1.0000 0.40960  0.34070  0.28234  Biso   1.000  N
  N29      1.0000 0.90930  0.84040  0.96766  Biso   1.000  N
  N30      1.0000 0.59070  0.15960  0.46766  Biso   1.000  N
  N31      1.0000 0.90960  0.15930  0.71766  Biso   1.000  N
  N32      1.0000 0.09040  0.34070  0.71766  Biso   1.000  N
  C1       1.0000 0.64460  0.28860  0.94962  Biso   1.000  C
  C2       1.0000 0.96140  0.39460  0.19962  Biso   1.000  C
  C3       1.0000 0.35540  0.21140  0.94962  Biso   1.000  C
  C4       1.0000 0.53860  0.60540  0.69962  Biso   1.000  C
  C5       1.0000 0.64460  0.71140  0.55038  Biso   1.000  C
  C6       1.0000 0.85540  0.28860  0.05038  Biso   1.000  C
  C7       1.0000 0.03860  0.89460  0.30038  Biso   1.000  C
  C8       1.0000 0.96140  0.60540  0.30038  Biso   1.000  C
  C9       1.0000 0.14460  0.78860  0.44962  Biso   1.000  C
  C10      1.0000 0.46140  0.89460  0.69962  Biso   1.000  C
  C11      1.0000 0.85540  0.71140  0.44962  Biso   1.000  C
  C12      1.0000 0.03860  0.10540  0.19962  Biso   1.000  C
  C13      1.0000 0.14460  0.21140  0.05038  Biso   1.000  C
  C14      1.0000 0.35540  0.78860  0.55038  Biso   1.000  C
  C15      1.0000 0.53860  0.39460  0.80038  Biso   1.000  C
  C16      1.0000 0.46140  0.10540  0.80038  Biso   1.000  C
  C17      1.0000 0.35540  0.71140  0.05038  Biso   1.000  C
  C18      1.0000 0.53860  0.10540  0.30038  Biso   1.000  C
  C19      1.0000 0.64460  0.78860  0.05038  Biso   1.000  C
  C20      1.0000 0.96140  0.89460  0.80038  Biso   1.000  C
  C21      1.0000 0.35540  0.28860  0.44962  Biso   1.000  C
  C22      1.0000 0.14460  0.71140  0.94962  Biso   1.000  C
  C23      1.0000 0.46140  0.60540  0.19962  Biso   1.000  C
  C24      1.0000 0.53860  0.89460  0.19962  Biso   1.000  C
  C25      1.0000 0.85540  0.21140  0.55038  Biso   1.000  C
  C26      1.0000 0.03860  0.60540  0.80038  Biso   1.000  C
  C27      1.0000 0.14460  0.28860  0.55038  Biso   1.000  C
  C28      1.0000 0.46140  0.39460  0.30038  Biso   1.000  C
  C29      1.0000 0.85540  0.78860  0.94962  Biso   1.000  C
  C30      1.0000 0.64460  0.21140  0.44962  Biso   1.000  C
  C31      1.0000 0.96140  0.10540  0.69962  Biso   1.000  C
  C32      1.0000 0.03860  0.39460  0.69962  Biso   1.000  C
  H1       1.0000 0.68280  0.25020  0.96180  Biso   1.000  H
  H2       1.0000 0.99980  0.43280  0.21180  Biso   1.000  H
  H3       1.0000 0.31720  0.24980  0.96180  Biso   1.000  H
  H4       1.0000 0.50020  0.56720  0.71180  Biso   1.000  H
  H5       1.0000 0.68280  0.74980  0.53820  Biso   1.000  H
  H6       1.0000 0.81720  0.25020  0.03820  Biso   1.000  H
  H7       1.0000 0.00020  0.93280  0.28820  Biso   1.000  H
  H8       1.0000 0.99980  0.56720  0.28820  Biso   1.000  H
  H9       1.0000 0.18280  0.75020  0.46180  Biso   1.000  H
  H10      1.0000 0.49980  0.93280  0.71180  Biso   1.000  H
  H11      1.0000 0.81720  0.74980  0.46180  Biso   1.000  H
  H12      1.0000 0.00020  0.06720  0.21180  Biso   1.000  H
  H13      1.0000 0.18280  0.24980  0.03820  Biso   1.000  H
  H14      1.0000 0.31720  0.75020  0.53820  Biso   1.000  H
  H15      1.0000 0.50020  0.43280  0.78820  Biso   1.000  H
  H16      1.0000 0.49980  0.06720  0.78820  Biso   1.000  H
  H17      1.0000 0.31720  0.74980  0.03820  Biso   1.000  H
  H18      1.0000 0.50020  0.06720  0.28820  Biso   1.000  H
  H19      1.0000 0.68280  0.75020  0.03820  Biso   1.000  H
  H20      1.0000 0.99980  0.93280  0.78820  Biso   1.000  H
  H21      1.0000 0.31720  0.25020  0.46180  Biso   1.000  H
  H22      1.0000 0.18280  0.74980  0.96180  Biso   1.000  H
  H23      1.0000 0.49980  0.56720  0.21180  Biso   1.000  H
  H24      1.0000 0.50020  0.93280  0.21180  Biso   1.000  H
  H25      1.0000 0.81720  0.24980  0.53820  Biso   1.000  H
  H26      1.0000 0.00020  0.56720  0.78820  Biso   1.000  H
  H27      1.0000 0.18280  0.25020  0.53820  Biso   1.000  H
  H28      1.0000 0.49980  0.43280  0.28820  Biso   1.000  H
  H29      1.0000 0.81720  0.75020  0.96180  Biso   1.000  H
  H30      1.0000 0.68280  0.24980  0.46180  Biso   1.000  H
  H31      1.0000 0.99980  0.06720  0.71180  Biso   1.000  H
  H32      1.0000 0.00020  0.43280  0.71180  Biso   1.000  H
  C33      1.0000 0.54000  0.39550  0.94916  Biso   1.000  C
  C34      1.0000 0.85450  0.29000  0.19916  Biso   1.000  C
  C35      1.0000 0.46000  0.10450  0.94916  Biso   1.000  C
  C36      1.0000 0.64550  0.71000  0.69916  Biso   1.000  C
  C37      1.0000 0.54000  0.60450  0.55084  Biso   1.000  C
  C38      1.0000 0.96000  0.39550  0.05084  Biso   1.000  C
  C39      1.0000 0.14550  0.79000  0.30084  Biso   1.000  C
  C40      1.0000 0.85450  0.71000  0.30084  Biso   1.000  C
  C41      1.0000 0.04000  0.89550  0.44916  Biso   1.000  C
  C42      1.0000 0.35450  0.79000  0.69916  Biso   1.000  C
  C43      1.0000 0.96000  0.60450  0.44916  Biso   1.000  C
  C44      1.0000 0.14550  0.21000  0.19916  Biso   1.000  C
  C45      1.0000 0.04000  0.10450  0.05084  Biso   1.000  C
  C46      1.0000 0.46000  0.89550  0.55084  Biso   1.000  C
  C47      1.0000 0.64550  0.29000  0.80084  Biso   1.000  C
  C48      1.0000 0.35450  0.21000  0.80084  Biso   1.000  C
  C49      1.0000 0.46000  0.60450  0.05084  Biso   1.000  C
  C50      1.0000 0.64550  0.21000  0.30084  Biso   1.000  C
  C51      1.0000 0.54000  0.89550  0.05084  Biso   1.000  C
  C52      1.0000 0.85450  0.79000  0.80084  Biso   1.000  C
  C53      1.0000 0.46000  0.39550  0.44916  Biso   1.000  C
  C54      1.0000 0.04000  0.60450  0.94916  Biso   1.000  C
  C55      1.0000 0.35450  0.71000  0.19916  Biso   1.000  C
  C56      1.0000 0.64550  0.79000  0.19916  Biso   1.000  C
  C57      1.0000 0.96000  0.10450  0.55084  Biso   1.000  C
  C58      1.0000 0.14550  0.71000  0.80084  Biso   1.000  C
  C59      1.0000 0.04000  0.39550  0.55084  Biso   1.000  C
  C60      1.0000 0.35450  0.29000  0.30084  Biso   1.000  C
  C61      1.0000 0.96000  0.89550  0.94916  Biso   1.000  C
  C62      1.0000 0.54000  0.10450  0.44916  Biso   1.000  C
  C63      1.0000 0.85450  0.21000  0.69916  Biso   1.000  C
  C64      1.0000 0.14550  0.29000  0.69916  Biso   1.000  C
  H33      1.0000 0.50070  0.43260  0.96130  Biso   1.000  H
  H34      1.0000 0.81740  0.25070  0.21130  Biso   1.000  H
  H35      1.0000 0.49930  0.06740  0.96130  Biso   1.000  H
  H36      1.0000 0.68260  0.74930  0.71130  Biso   1.000  H
  H37      1.0000 0.50070  0.56740  0.53870  Biso   1.000  H
  H38      1.0000 0.99930  0.43260  0.03870  Biso   1.000  H
  H39      1.0000 0.18260  0.75070  0.28870  Biso   1.000  H
  H40      1.0000 0.81740  0.74930  0.28870  Biso   1.000  H
  H41      1.0000 0.00070  0.93260  0.46130  Biso   1.000  H
  H42      1.0000 0.31740  0.75070  0.71130  Biso   1.000  H
  H43      1.0000 0.99930  0.56740  0.46130  Biso   1.000  H
  H44      1.0000 0.18260  0.24930  0.21130  Biso   1.000  H
  H45      1.0000 0.00070  0.06740  0.03870  Biso   1.000  H
  H46      1.0000 0.49930  0.93260  0.53870  Biso   1.000  H
  H47      1.0000 0.68260  0.25070  0.78870  Biso   1.000  H
  H48      1.0000 0.31740  0.24930  0.78870  Biso   1.000  H
  H49      1.0000 0.49930  0.56740  0.03870  Biso   1.000  H
  H50      1.0000 0.68260  0.24930  0.28870  Biso   1.000  H
  H51      1.0000 0.50070  0.93260  0.03870  Biso   1.000  H
  H52      1.0000 0.81740  0.75070  0.78870  Biso   1.000  H
  H53      1.0000 0.49930  0.43260  0.46130  Biso   1.000  H
  H54      1.0000 0.00070  0.56740  0.96130  Biso   1.000  H
  H55      1.0000 0.31740  0.74930  0.21130  Biso   1.000  H
  H56      1.0000 0.68260  0.75070  0.21130  Biso   1.000  H
  H57      1.0000 0.99930  0.06740  0.53870  Biso   1.000  H
  H58      1.0000 0.18260  0.74930  0.78870  Biso   1.000  H
  H59      1.0000 0.00070  0.43260  0.53870  Biso   1.000  H
  H60      1.0000 0.31740  0.25070  0.28870  Biso   1.000  H
  H61      1.0000 0.99930  0.93260  0.96130  Biso   1.000  H
  H62      1.0000 0.50070  0.06740  0.46130  Biso   1.000  H
  H63      1.0000 0.81740  0.24930  0.71130  Biso   1.000  H
  H64      1.0000 0.18260  0.25070  0.71130  Biso   1.000  H
  N33      1.0000 0.62640  0.39520  0.05716  Biso   1.000  N
  N34      1.0000 0.85480  0.37640  0.30716  Biso   1.000  N
  N35      1.0000 0.37360  0.10480  0.05716  Biso   1.000  N
  N36      1.0000 0.64520  0.62360  0.80716  Biso   1.000  N
  N37      1.0000 0.62640  0.60480  0.44284  Biso   1.000  N
  N38      1.0000 0.87360  0.39520  0.94284  Biso   1.000  N
  N39      1.0000 0.14520  0.87640  0.19284  Biso   1.000  N
  N40      1.0000 0.85480  0.62360  0.19284  Biso   1.000  N
  N41      1.0000 0.12640  0.89520  0.55716  Biso   1.000  N
  N42      1.0000 0.35480  0.87640  0.80716  Biso   1.000  N
  N43      1.0000 0.87360  0.60480  0.55716  Biso   1.000  N
  N44      1.0000 0.14520  0.12360  0.30716  Biso   1.000  N
  N45      1.0000 0.12640  0.10480  0.94284  Biso   1.000  N
  N46      1.0000 0.37360  0.89520  0.44284  Biso   1.000  N
  N47      1.0000 0.64520  0.37640  0.69284  Biso   1.000  N
  N48      1.0000 0.35480  0.12360  0.69284  Biso   1.000  N
  N49      1.0000 0.37360  0.60480  0.94284  Biso   1.000  N
  N50      1.0000 0.64520  0.12360  0.19284  Biso   1.000  N
  N51      1.0000 0.62640  0.89520  0.94284  Biso   1.000  N
  N52      1.0000 0.85480  0.87640  0.69284  Biso   1.000  N
  N53      1.0000 0.37360  0.39520  0.55716  Biso   1.000  N
  N54      1.0000 0.12640  0.60480  0.05716  Biso   1.000  N
  N55      1.0000 0.35480  0.62360  0.30716  Biso   1.000  N
  N56      1.0000 0.64520  0.87640  0.30716  Biso   1.000  N
  N57      1.0000 0.87360  0.10480  0.44284  Biso   1.000  N
  N58      1.0000 0.14520  0.62360  0.69284  Biso   1.000  N
  N59      1.0000 0.12640  0.39520  0.44284  Biso   1.000  N
  N60      1.0000 0.35480  0.37640  0.19284  Biso   1.000  N
  N61      1.0000 0.87360  0.89520  0.05716  Biso   1.000  N
  N62      1.0000 0.62640  0.10480  0.55716  Biso   1.000  N
  N63      1.0000 0.85480  0.12360  0.80716  Biso   1.000  N
  N64      1.0000 0.14520  0.37640  0.80716  Biso   1.000  N
  C65      1.0000 0.61840  0.37010  0.09092  Biso   1.000  C
  C66      1.0000 0.87990  0.36840  0.34092  Biso   1.000  C
  C67      1.0000 0.38160  0.12990  0.09092  Biso   1.000  C
  C68      1.0000 0.62010  0.63160  0.84092  Biso   1.000  C
  C69      1.0000 0.61840  0.62990  0.40908  Biso   1.000  C
  C70      1.0000 0.88160  0.37010  0.90908  Biso   1.000  C
  C71      1.0000 0.12010  0.86840  0.15908  Biso   1.000  C
  C72      1.0000 0.87990  0.63160  0.15908  Biso   1.000  C
  C73      1.0000 0.11840  0.87010  0.59092  Biso   1.000  C
  C74      1.0000 0.37990  0.86840  0.84092  Biso   1.000  C
  C75      1.0000 0.88160  0.62990  0.59092  Biso   1.000  C
  C76      1.0000 0.12010  0.13160  0.34092  Biso   1.000  C
  C77      1.0000 0.11840  0.12990  0.90908  Biso   1.000  C
  C78      1.0000 0.38160  0.87010  0.40908  Biso   1.000  C
  C79      1.0000 0.62010  0.36840  0.65908  Biso   1.000  C
  C80      1.0000 0.37990  0.13160  0.65908  Biso   1.000  C
  C81      1.0000 0.38160  0.62990  0.90908  Biso   1.000  C
  C82      1.0000 0.62010  0.13160  0.15908  Biso   1.000  C
  C83      1.0000 0.61840  0.87010  0.90908  Biso   1.000  C
  C84      1.0000 0.87990  0.86840  0.65908  Biso   1.000  C
  C85      1.0000 0.38160  0.37010  0.59092  Biso   1.000  C
  C86      1.0000 0.11840  0.62990  0.09092  Biso   1.000  C
  C87      1.0000 0.37990  0.63160  0.34092  Biso   1.000  C
  C88      1.0000 0.62010  0.86840  0.34092  Biso   1.000  C
  C89      1.0000 0.88160  0.12990  0.40908  Biso   1.000  C
  C90      1.0000 0.12010  0.63160  0.65908  Biso   1.000  C
  C91      1.0000 0.11840  0.37010  0.40908  Biso   1.000  C
  C92      1.0000 0.37990  0.36840  0.15908  Biso   1.000  C
  C93      1.0000 0.88160  0.87010  0.09092  Biso   1.000  C
  C94      1.0000 0.61840  0.12990  0.59092  Biso   1.000  C
  C95      1.0000 0.87990  0.13160  0.84092  Biso   1.000  C
  C96      1.0000 0.12010  0.36840  0.84092  Biso   1.000  C
  H65      1.0000 0.58560  0.31870  0.09610  Biso   1.000  H
  H66      1.0000 0.93130  0.33560  0.34610  Biso   1.000  H
  H67      1.0000 0.41440  0.18130  0.09610  Biso   1.000  H
  H68      1.0000 0.56870  0.66440  0.84610  Biso   1.000  H
  H69      1.0000 0.58560  0.68130  0.40390  Biso   1.000  H
  H70      1.0000 0.91440  0.31870  0.90390  Biso   1.000  H
  H71      1.0000 0.06870  0.83560  0.15390  Biso   1.000  H
  H72      1.0000 0.93130  0.66440  0.15390  Biso   1.000  H
  H73      1.0000 0.08560  0.81870  0.59610  Biso   1.000  H
  H74      1.0000 0.43130  0.83560  0.84610  Biso   1.000  H
  H75      1.0000 0.91440  0.68130  0.59610  Biso   1.000  H
  H76      1.0000 0.06870  0.16440  0.34610  Biso   1.000  H
  H77      1.0000 0.08560  0.18130  0.90390  Biso   1.000  H
  H78      1.0000 0.41440  0.81870  0.40390  Biso   1.000  H
  H79      1.0000 0.56870  0.33560  0.65390  Biso   1.000  H
  H80      1.0000 0.43130  0.16440  0.65390  Biso   1.000  H
  H81      1.0000 0.41440  0.68130  0.90390  Biso   1.000  H
  H82      1.0000 0.56870  0.16440  0.15390  Biso   1.000  H
  H83      1.0000 0.58560  0.81870  0.90390  Biso   1.000  H
  H84      1.0000 0.93130  0.83560  0.65390  Biso   1.000  H
  H85      1.0000 0.41440  0.31870  0.59610  Biso   1.000  H
  H86      1.0000 0.08560  0.68130  0.09610  Biso   1.000  H
  H87      1.0000 0.43130  0.66440  0.34610  Biso   1.000  H
  H88      1.0000 0.56870  0.83560  0.34610  Biso   1.000  H
  H89      1.0000 0.91440  0.18130  0.40390  Biso   1.000  H
  H90      1.0000 0.06870  0.66440  0.65390  Biso   1.000  H
  H91      1.0000 0.08560  0.31870  0.40390  Biso   1.000  H
  H92      1.0000 0.43130  0.33560  0.15390  Biso   1.000  H
  H93      1.0000 0.91440  0.81870  0.09610  Biso   1.000  H
  H94      1.0000 0.58560  0.18130  0.59610  Biso   1.000  H
  H95      1.0000 0.93130  0.16440  0.84610  Biso   1.000  H
  H96      1.0000 0.06870  0.33560  0.84610  Biso   1.000  H
  C97      1.0000 0.59410  0.34600  0.89491  Biso   1.000  C
  C98      1.0000 0.90400  0.34410  0.14491  Biso   1.000  C
  C99      1.0000 0.40590  0.15400  0.89491  Biso   1.000  C
  C100     1.0000 0.59600  0.65590  0.64491  Biso   1.000  C
  C101     1.0000 0.59410  0.65400  0.60509  Biso   1.000  C
  C102     1.0000 0.90590  0.34600  0.10509  Biso   1.000  C
  C103     1.0000 0.09600  0.84410  0.35509  Biso   1.000  C
  C104     1.0000 0.90400  0.65590  0.35509  Biso   1.000  C
  C105     1.0000 0.09410  0.84600  0.39491  Biso   1.000  C
  C106     1.0000 0.40400  0.84410  0.64491  Biso   1.000  C
  C107     1.0000 0.90590  0.65400  0.39491  Biso   1.000  C
  C108     1.0000 0.09600  0.15590  0.14491  Biso   1.000  C
  C109     1.0000 0.09410  0.15400  0.10509  Biso   1.000  C
  C110     1.0000 0.40590  0.84600  0.60509  Biso   1.000  C
  C111     1.0000 0.59600  0.34410  0.85509  Biso   1.000  C
  C112     1.0000 0.40400  0.15590  0.85509  Biso   1.000  C
  C113     1.0000 0.40590  0.65400  0.10509  Biso   1.000  C
  C114     1.0000 0.59600  0.15590  0.35509  Biso   1.000  C
  C115     1.0000 0.59410  0.84600  0.10509  Biso   1.000  C
  C116     1.0000 0.90400  0.84410  0.85509  Biso   1.000  C
  C117     1.0000 0.40590  0.34600  0.39491  Biso   1.000  C
  C118     1.0000 0.09410  0.65400  0.89491  Biso   1.000  C
  C119     1.0000 0.40400  0.65590  0.14491  Biso   1.000  C
  C120     1.0000 0.59600  0.84410  0.14491  Biso   1.000  C
  C121     1.0000 0.90590  0.15400  0.60509  Biso   1.000  C
  C122     1.0000 0.09600  0.65590  0.85509  Biso   1.000  C
  C123     1.0000 0.09410  0.34600  0.60509  Biso   1.000  C
  C124     1.0000 0.40400  0.34410  0.35509  Biso   1.000  C
  C125     1.0000 0.90590  0.84600  0.89491  Biso   1.000  C
  C126     1.0000 0.59410  0.15400  0.39491  Biso   1.000  C
  C127     1.0000 0.90400  0.15590  0.64491  Biso   1.000  C
  C128     1.0000 0.09600  0.34410  0.64491  Biso   1.000  C
  C129     1.0000 0.54060  0.40260  0.91358  Biso   1.000  C
  C130     1.0000 0.84740  0.29060  0.16358  Biso   1.000  C
  C131     1.0000 0.45940  0.09740  0.91358  Biso   1.000  C
  C132     1.0000 0.65260  0.70940  0.66358  Biso   1.000  C
  C133     1.0000 0.54060  0.59740  0.58642  Biso   1.000  C
  C134     1.0000 0.95940  0.40260  0.08642  Biso   1.000  C
  C135     1.0000 0.15260  0.79060  0.33642  Biso   1.000  C
  C136     1.0000 0.84740  0.70940  0.33642  Biso   1.000  C
  C137     1.0000 0.04060  0.90260  0.41358  Biso   1.000  C
  C138     1.0000 0.34740  0.79060  0.66358  Biso   1.000  C
  C139     1.0000 0.95940  0.59740  0.41358  Biso   1.000  C
  C140     1.0000 0.15260  0.20940  0.16358  Biso   1.000  C
  C141     1.0000 0.04060  0.09740  0.08642  Biso   1.000  C
  C142     1.0000 0.45940  0.90260  0.58642  Biso   1.000  C
  C143     1.0000 0.65260  0.29060  0.83642  Biso   1.000  C
  C144     1.0000 0.34740  0.20940  0.83642  Biso   1.000  C
  C145     1.0000 0.45940  0.59740  0.08642  Biso   1.000  C
  C146     1.0000 0.65260  0.20940  0.33642  Biso   1.000  C
  C147     1.0000 0.54060  0.90260  0.08642  Biso   1.000  C
  C148     1.0000 0.84740  0.79060  0.83642  Biso   1.000  C
  C149     1.0000 0.45940  0.40260  0.41358  Biso   1.000  C
  C150     1.0000 0.04060  0.59740  0.91358  Biso   1.000  C
  C151     1.0000 0.34740  0.70940  0.16358  Biso   1.000  C
  C152     1.0000 0.65260  0.79060  0.16358  Biso   1.000  C
  C153     1.0000 0.95940  0.09740  0.58642  Biso   1.000  C
  C154     1.0000 0.15260  0.70940  0.83642  Biso   1.000  C
  C155     1.0000 0.04060  0.40260  0.58642  Biso   1.000  C
  C156     1.0000 0.34740  0.29060  0.33642  Biso   1.000  C
  C157     1.0000 0.95940  0.90260  0.91358  Biso   1.000  C
  C158     1.0000 0.54060  0.09740  0.41358  Biso   1.000  C
  C159     1.0000 0.84740  0.20940  0.66358  Biso   1.000  C
  C160     1.0000 0.15260  0.29060  0.66358  Biso   1.000  C
  H97      1.0000 0.50520  0.44520  0.90240  Biso   1.000  H
  H98      1.0000 0.80480  0.25520  0.15240  Biso   1.000  H
  H99      1.0000 0.49480  0.05480  0.90240  Biso   1.000  H
  H100     1.0000 0.69520  0.74480  0.65240  Biso   1.000  H
  H101     1.0000 0.50520  0.55480  0.59760  Biso   1.000  H
  H102     1.0000 0.99480  0.44520  0.09760  Biso   1.000  H
  H103     1.0000 0.19520  0.75520  0.34760  Biso   1.000  H
  H104     1.0000 0.80480  0.74480  0.34760  Biso   1.000  H
  H105     1.0000 0.00520  0.94520  0.40240  Biso   1.000  H
  H106     1.0000 0.30480  0.75520  0.65240  Biso   1.000  H
  H107     1.0000 0.99480  0.55480  0.40240  Biso   1.000  H
  H108     1.0000 0.19520  0.24480  0.15240  Biso   1.000  H
  H109     1.0000 0.00520  0.05480  0.09760  Biso   1.000  H
  H110     1.0000 0.49480  0.94520  0.59760  Biso   1.000  H
  H111     1.0000 0.69520  0.25520  0.84760  Biso   1.000  H
  H112     1.0000 0.30480  0.24480  0.84760  Biso   1.000  H
  H113     1.0000 0.49480  0.55480  0.09760  Biso   1.000  H
  H114     1.0000 0.69520  0.24480  0.34760  Biso   1.000  H
  H115     1.0000 0.50520  0.94520  0.09760  Biso   1.000  H
  H116     1.0000 0.80480  0.75520  0.84760  Biso   1.000  H
  H117     1.0000 0.49480  0.44520  0.40240  Biso   1.000  H
  H118     1.0000 0.00520  0.55480  0.90240  Biso   1.000  H
  H119     1.0000 0.30480  0.74480  0.15240  Biso   1.000  H
  H120     1.0000 0.69520  0.75520  0.15240  Biso   1.000  H
  H121     1.0000 0.99480  0.05480  0.59760  Biso   1.000  H
  H122     1.0000 0.19520  0.74480  0.84760  Biso   1.000  H
  H123     1.0000 0.00520  0.44520  0.59760  Biso   1.000  H
  H124     1.0000 0.30480  0.25520  0.34760  Biso   1.000  H
  H125     1.0000 0.99480  0.94520  0.90240  Biso   1.000  H
  H126     1.0000 0.50520  0.05480  0.40240  Biso   1.000  H
  H127     1.0000 0.80480  0.24480  0.65240  Biso   1.000  H
  H128     1.0000 0.19520  0.25520  0.65240  Biso   1.000  H
  C161     1.0000 0.64810  0.28760  0.91357  Biso   1.000  C
  C162     1.0000 0.96240  0.39810  0.16357  Biso   1.000  C
  C163     1.0000 0.35190  0.21240  0.91357  Biso   1.000  C
  C164     1.0000 0.53760  0.60190  0.66357  Biso   1.000  C
  C165     1.0000 0.64810  0.71240  0.58643  Biso   1.000  C
  C166     1.0000 0.85190  0.28760  0.08643  Biso   1.000  C
  C167     1.0000 0.03760  0.89810  0.33643  Biso   1.000  C
  C168     1.0000 0.96240  0.60190  0.33643  Biso   1.000  C
  C169     1.0000 0.14810  0.78760  0.41357  Biso   1.000  C
  C170     1.0000 0.46240  0.89810  0.66357  Biso   1.000  C
  C171     1.0000 0.85190  0.71240  0.41357  Biso   1.000  C
  C172     1.0000 0.03760  0.10190  0.16357  Biso   1.000  C
  C173     1.0000 0.14810  0.21240  0.08643  Biso   1.000  C
  C174     1.0000 0.35190  0.78760  0.58643  Biso   1.000  C
  C175     1.0000 0.53760  0.39810  0.83643  Biso   1.000  C
  C176     1.0000 0.46240  0.10190  0.83643  Biso   1.000  C
  C177     1.0000 0.35190  0.71240  0.08643  Biso   1.000  C
  C178     1.0000 0.53760  0.10190  0.33643  Biso   1.000  C
  C179     1.0000 0.64810  0.78760  0.08643  Biso   1.000  C
  C180     1.0000 0.96240  0.89810  0.83643  Biso   1.000  C
  C181     1.0000 0.35190  0.28760  0.41357  Biso   1.000  C
  C182     1.0000 0.14810  0.71240  0.91357  Biso   1.000  C
  C183     1.0000 0.46240  0.60190  0.16357  Biso   1.000  C
  C184     1.0000 0.53760  0.89810  0.16357  Biso   1.000  C
  C185     1.0000 0.85190  0.21240  0.58643  Biso   1.000  C
  C186     1.0000 0.03760  0.60190  0.83643  Biso   1.000  C
  C187     1.0000 0.14810  0.28760  0.58643  Biso   1.000  C
  C188     1.0000 0.46240  0.39810  0.33643  Biso   1.000  C
  C189     1.0000 0.85190  0.78760  0.91357  Biso   1.000  C
  C190     1.0000 0.64810  0.21240  0.41357  Biso   1.000  C
  C191     1.0000 0.96240  0.10190  0.66357  Biso   1.000  C
  C192     1.0000 0.03760  0.39810  0.66357  Biso   1.000  C
  H129     1.0000 0.68630  0.24810  0.90200  Biso   1.000  H
  H130     1.0000 0.00190  0.43630  0.15200  Biso   1.000  H
  H131     1.0000 0.31370  0.25190  0.90200  Biso   1.000  H
  H132     1.0000 0.49810  0.56370  0.65200  Biso   1.000  H
  H133     1.0000 0.68630  0.75190  0.59800  Biso   1.000  H
  H134     1.0000 0.81370  0.24810  0.09800  Biso   1.000  H
  H135     1.0000 0.99810  0.93630  0.34800  Biso   1.000  H
  H136     1.0000 0.00190  0.56370  0.34800  Biso   1.000  H
  H137     1.0000 0.18630  0.74810  0.40200  Biso   1.000  H
  H138     1.0000 0.50190  0.93630  0.65200  Biso   1.000  H
  H139     1.0000 0.81370  0.75190  0.40200  Biso   1.000  H
  H140     1.0000 0.99810  0.06370  0.15200  Biso   1.000  H
  H141     1.0000 0.18630  0.25190  0.09800  Biso   1.000  H
  H142     1.0000 0.31370  0.74810  0.59800  Biso   1.000  H
  H143     1.0000 0.49810  0.43630  0.84800  Biso   1.000  H
  H144     1.0000 0.50190  0.06370  0.84800  Biso   1.000  H
  H145     1.0000 0.31370  0.75190  0.09800  Biso   1.000  H
  H146     1.0000 0.49810  0.06370  0.34800  Biso   1.000  H
  H147     1.0000 0.68630  0.74810  0.09800  Biso   1.000  H
  H148     1.0000 0.00190  0.93630  0.84800  Biso   1.000  H
  H149     1.0000 0.31370  0.24810  0.40200  Biso   1.000  H
  H150     1.0000 0.18630  0.75190  0.90200  Biso   1.000  H
  H151     1.0000 0.50190  0.56370  0.15200  Biso   1.000  H
  H152     1.0000 0.49810  0.93630  0.15200  Biso   1.000  H
  H153     1.0000 0.81370  0.25190  0.59800  Biso   1.000  H
  H154     1.0000 0.99810  0.56370  0.84800  Biso   1.000  H
  H155     1.0000 0.18630  0.24810  0.59800  Biso   1.000  H
  H156     1.0000 0.50190  0.43630  0.34800  Biso   1.000  H
  H157     1.0000 0.81370  0.74810  0.90200  Biso   1.000  H
  H158     1.0000 0.68630  0.25190  0.40200  Biso   1.000  H
  H159     1.0000 0.00190  0.06370  0.65200  Biso   1.000  H
  H160     1.0000 0.99810  0.43630  0.65200  Biso   1.000  H
  C193     1.0000 0.67360  0.46940  0.05064  Biso   1.000  C
  C194     1.0000 0.78060  0.42360  0.30064  Biso   1.000  C
  C195     1.0000 0.32640  0.03060  0.05064  Biso   1.000  C
  C196     1.0000 0.71940  0.57640  0.80064  Biso   1.000  C
  C197     1.0000 0.67360  0.53060  0.44936  Biso   1.000  C
  C198     1.0000 0.82640  0.46940  0.94936  Biso   1.000  C
  C199     1.0000 0.21940  0.92360  0.19936  Biso   1.000  C
  C200     1.0000 0.78060  0.57640  0.19936  Biso   1.000  C
  C201     1.0000 0.17360  0.96940  0.55064  Biso   1.000  C
  C202     1.0000 0.28060  0.92360  0.80064  Biso   1.000  C
  C203     1.0000 0.82640  0.53060  0.55064  Biso   1.000  C
  C204     1.0000 0.21940  0.07640  0.30064  Biso   1.000  C
  C205     1.0000 0.17360  0.03060  0.94936  Biso   1.000  C
  C206     1.0000 0.32640  0.96940  0.44936  Biso   1.000  C
  C207     1.0000 0.71940  0.42360  0.69936  Biso   1.000  C
  C208     1.0000 0.28060  0.07640  0.69936  Biso   1.000  C
  C209     1.0000 0.32640  0.53060  0.94936  Biso   1.000  C
  C210     1.0000 0.71940  0.07640  0.19936  Biso   1.000  C
  C211     1.0000 0.67360  0.96940  0.94936  Biso   1.000  C
  C212     1.0000 0.78060  0.92360  0.69936  Biso   1.000  C
  C213     1.0000 0.32640  0.46940  0.55064  Biso   1.000  C
  C214     1.0000 0.17360  0.53060  0.05064  Biso   1.000  C
  C215     1.0000 0.28060  0.57640  0.30064  Biso   1.000  C
  C216     1.0000 0.71940  0.92360  0.30064  Biso   1.000  C
  C217     1.0000 0.82640  0.03060  0.44936  Biso   1.000  C
  C218     1.0000 0.21940  0.57640  0.69936  Biso   1.000  C
  C219     1.0000 0.17360  0.46940  0.44936  Biso   1.000  C
  C220     1.0000 0.28060  0.42360  0.19936  Biso   1.000  C
  C221     1.0000 0.82640  0.96940  0.05064  Biso   1.000  C
  C222     1.0000 0.67360  0.03060  0.55064  Biso   1.000  C
  C223     1.0000 0.78060  0.07640  0.80064  Biso   1.000  C
  C224     1.0000 0.21940  0.42360  0.80064  Biso   1.000  C
  H161     1.0000 0.68020  0.48820  0.02770  Biso   1.000  H
  H162     1.0000 0.76180  0.43020  0.27770  Biso   1.000  H
  H163     1.0000 0.31980  0.01180  0.02770  Biso   1.000  H
  H164     1.0000 0.73820  0.56980  0.77770  Biso   1.000  H
  H165     1.0000 0.68020  0.51180  0.47230  Biso   1.000  H
  H166     1.0000 0.81980  0.48820  0.97230  Biso   1.000  H
  H167     1.0000 0.23820  0.93020  0.22230  Biso   1.000  H
  H168     1.0000 0.76180  0.56980  0.22230  Biso   1.000  H
  H169     1.0000 0.18020  0.98820  0.52770  Biso   1.000  H
  H170     1.0000 0.26180  0.93020  0.77770  Biso   1.000  H
  H171     1.0000 0.81980  0.51180  0.52770  Biso   1.000  H
  H172     1.0000 0.23820  0.06980  0.27770  Biso   1.000  H
  H173     1.0000 0.18020  0.01180  0.97230  Biso   1.000  H
  H174     1.0000 0.31980  0.98820  0.47230  Biso   1.000  H
  H175     1.0000 0.73820  0.43020  0.72230  Biso   1.000  H
  H176     1.0000 0.26180  0.06980  0.72230  Biso   1.000  H
  H177     1.0000 0.31980  0.51180  0.97230  Biso   1.000  H
  H178     1.0000 0.73820  0.06980  0.22230  Biso   1.000  H
  H179     1.0000 0.68020  0.98820  0.97230  Biso   1.000  H
  H180     1.0000 0.76180  0.93020  0.72230  Biso   1.000  H
  H181     1.0000 0.31980  0.48820  0.52770  Biso   1.000  H
  H182     1.0000 0.18020  0.51180  0.02770  Biso   1.000  H
  H183     1.0000 0.26180  0.56980  0.27770  Biso   1.000  H
  H184     1.0000 0.73820  0.93020  0.27770  Biso   1.000  H
  H185     1.0000 0.81980  0.01180  0.47230  Biso   1.000  H
  H186     1.0000 0.23820  0.56980  0.72230  Biso   1.000  H
  H187     1.0000 0.18020  0.48820  0.47230  Biso   1.000  H
  H188     1.0000 0.26180  0.43020  0.22230  Biso   1.000  H
  H189     1.0000 0.81980  0.98820  0.02770  Biso   1.000  H
  H190     1.0000 0.68020  0.01180  0.52770  Biso   1.000  H
  H191     1.0000 0.76180  0.06980  0.77770  Biso   1.000  H
  H192     1.0000 0.23820  0.43020  0.77770  Biso   1.000  H
  C225     1.0000 0.71270  0.51880  0.07648  Biso   1.000  C
  C226     1.0000 0.73120  0.46270  0.32648  Biso   1.000  C
  C227     1.0000 0.28730  0.98120  0.07648  Biso   1.000  C
  C228     1.0000 0.76880  0.53730  0.82648  Biso   1.000  C
  C229     1.0000 0.71270  0.48120  0.42352  Biso   1.000  C
  C230     1.0000 0.78730  0.51880  0.92352  Biso   1.000  C
  C231     1.0000 0.26880  0.96270  0.17352  Biso   1.000  C
  C232     1.0000 0.73120  0.53730  0.17352  Biso   1.000  C
  C233     1.0000 0.21270  0.01880  0.57648  Biso   1.000  C
  C234     1.0000 0.23120  0.96270  0.82648  Biso   1.000  C
  C235     1.0000 0.78730  0.48120  0.57648  Biso   1.000  C
  C236     1.0000 0.26880  0.03730  0.32648  Biso   1.000  C
  C237     1.0000 0.21270  0.98120  0.92352  Biso   1.000  C
  C238     1.0000 0.28730  0.01880  0.42352  Biso   1.000  C
  C239     1.0000 0.76880  0.46270  0.67352  Biso   1.000  C
  C240     1.0000 0.23120  0.03730  0.67352  Biso   1.000  C
  C241     1.0000 0.28730  0.48120  0.92352  Biso   1.000  C
  C242     1.0000 0.76880  0.03730  0.17352  Biso   1.000  C
  C243     1.0000 0.71270  0.01880  0.92352  Biso   1.000  C
  C244     1.0000 0.73120  0.96270  0.67352  Biso   1.000  C
  C245     1.0000 0.28730  0.51880  0.57648  Biso   1.000  C
  C246     1.0000 0.21270  0.48120  0.07648  Biso   1.000  C
  C247     1.0000 0.23120  0.53730  0.32648  Biso   1.000  C
  C248     1.0000 0.76880  0.96270  0.32648  Biso   1.000  C
  C249     1.0000 0.78730  0.98120  0.42352  Biso   1.000  C
  C250     1.0000 0.26880  0.53730  0.67352  Biso   1.000  C
  C251     1.0000 0.21270  0.51880  0.42352  Biso   1.000  C
  C252     1.0000 0.23120  0.46270  0.17352  Biso   1.000  C
  C253     1.0000 0.78730  0.01880  0.07648  Biso   1.000  C
  C254     1.0000 0.71270  0.98120  0.57648  Biso   1.000  C
  C255     1.0000 0.73120  0.03730  0.82648  Biso   1.000  C
  C256     1.0000 0.26880  0.46270  0.82648  Biso   1.000  C
  H193     1.0000 0.74360  0.57110  0.07070  Biso   1.000  H
  H194     1.0000 0.67890  0.49360  0.32070  Biso   1.000  H
  H195     1.0000 0.25640  0.92890  0.07070  Biso   1.000  H
  H196     1.0000 0.82110  0.50640  0.82070  Biso   1.000  H
  H197     1.0000 0.74360  0.42890  0.42930  Biso   1.000  H
  H198     1.0000 0.75640  0.57110  0.92930  Biso   1.000  H
  H199     1.0000 0.32110  0.99360  0.17930  Biso   1.000  H
  H200     1.0000 0.67890  0.50640  0.17930  Biso   1.000  H
  H201     1.0000 0.24360  0.07110  0.57070  Biso   1.000  H
  H202     1.0000 0.17890  0.99360  0.82070  Biso   1.000  H
  H203     1.0000 0.75640  0.42890  0.57070  Biso   1.000  H
  H204     1.0000 0.32110  0.00640  0.32070  Biso   1.000  H
  H205     1.0000 0.24360  0.92890  0.92930  Biso   1.000  H
  H206     1.0000 0.25640  0.07110  0.42930  Biso   1.000  H
  H207     1.0000 0.82110  0.49360  0.67930  Biso   1.000  H
  H208     1.0000 0.17890  0.00640  0.67930  Biso   1.000  H
  H209     1.0000 0.25640  0.42890  0.92930  Biso   1.000  H
  H210     1.0000 0.82110  0.00640  0.17930  Biso   1.000  H
  H211     1.0000 0.74360  0.07110  0.92930  Biso   1.000  H
  H212     1.0000 0.67890  0.99360  0.67930  Biso   1.000  H
  H213     1.0000 0.25640  0.57110  0.57070  Biso   1.000  H
  H214     1.0000 0.24360  0.42890  0.07070  Biso   1.000  H
  H215     1.0000 0.17890  0.50640  0.32070  Biso   1.000  H
  H216     1.0000 0.82110  0.99360  0.32070  Biso   1.000  H
  H217     1.0000 0.75640  0.92890  0.42930  Biso   1.000  H
  H218     1.0000 0.32110  0.50640  0.67930  Biso   1.000  H
  H219     1.0000 0.24360  0.57110  0.42930  Biso   1.000  H
  H220     1.0000 0.17890  0.49360  0.17930  Biso   1.000  H
  H221     1.0000 0.75640  0.07110  0.07070  Biso   1.000  H
  H222     1.0000 0.74360  0.92890  0.57070  Biso   1.000  H
  H223     1.0000 0.67890  0.00640  0.82070  Biso   1.000  H
  H224     1.0000 0.32110  0.49360  0.82070  Biso   1.000  H
  C257     1.0000 0.70750  0.49290  0.11102  Biso   1.000  C
  C258     1.0000 0.75710  0.45750  0.36102  Biso   1.000  C
  C259     1.0000 0.29250  0.00710  0.11102  Biso   1.000  C
  C260     1.0000 0.74290  0.54250  0.86102  Biso   1.000  C
  C261     1.0000 0.70750  0.50710  0.38898  Biso   1.000  C
  C262     1.0000 0.79250  0.49290  0.88898  Biso   1.000  C
  C263     1.0000 0.24290  0.95750  0.13898  Biso   1.000  C
  C264     1.0000 0.75710  0.54250  0.13898  Biso   1.000  C
  C265     1.0000 0.20750  0.99290  0.61102  Biso   1.000  C
  C266     1.0000 0.25710  0.95750  0.86102  Biso   1.000  C
  C267     1.0000 0.79250  0.50710  0.61102  Biso   1.000  C
  C268     1.0000 0.24290  0.04250  0.36102  Biso   1.000  C
  C269     1.0000 0.20750  0.00710  0.88898  Biso   1.000  C
  C270     1.0000 0.29250  0.99290  0.38898  Biso   1.000  C
  C271     1.0000 0.74290  0.45750  0.63898  Biso   1.000  C
  C272     1.0000 0.25710  0.04250  0.63898  Biso   1.000  C
  C273     1.0000 0.29250  0.50710  0.88898  Biso   1.000  C
  C274     1.0000 0.74290  0.04250  0.13898  Biso   1.000  C
  C275     1.0000 0.70750  0.99290  0.88898  Biso   1.000  C
  C276     1.0000 0.75710  0.95750  0.63898  Biso   1.000  C
  C277     1.0000 0.29250  0.49290  0.61102  Biso   1.000  C
  C278     1.0000 0.20750  0.50710  0.11102  Biso   1.000  C
  C279     1.0000 0.25710  0.54250  0.36102  Biso   1.000  C
  C280     1.0000 0.74290  0.95750  0.36102  Biso   1.000  C
  C281     1.0000 0.79250  0.00710  0.38898  Biso   1.000  C
  C282     1.0000 0.24290  0.54250  0.63898  Biso   1.000  C
  C283     1.0000 0.20750  0.49290  0.38898  Biso   1.000  C
  C284     1.0000 0.25710  0.45750  0.13898  Biso   1.000  C
  C285     1.0000 0.79250  0.99290  0.11102  Biso   1.000  C
  C286     1.0000 0.70750  0.00710  0.61102  Biso   1.000  C
  C287     1.0000 0.75710  0.04250  0.86102  Biso   1.000  C
  C288     1.0000 0.24290  0.45750  0.86102  Biso   1.000  C
  C289     1.0000 0.65690  0.41750  0.11783  Biso   1.000  C
  C290     1.0000 0.83250  0.40690  0.36783  Biso   1.000  C
  C291     1.0000 0.34310  0.08250  0.11783  Biso   1.000  C
  C292     1.0000 0.66750  0.59310  0.86783  Biso   1.000  C
  C293     1.0000 0.65690  0.58250  0.38217  Biso   1.000  C
  C294     1.0000 0.84310  0.41750  0.88217  Biso   1.000  C
  C295     1.0000 0.16750  0.90690  0.13217  Biso   1.000  C
  C296     1.0000 0.83250  0.59310  0.13217  Biso   1.000  C
  C297     1.0000 0.15690  0.91750  0.61783  Biso   1.000  C
  C298     1.0000 0.33250  0.90690  0.86783  Biso   1.000  C
  C299     1.0000 0.84310  0.58250  0.61783  Biso   1.000  C
  C300     1.0000 0.16750  0.09310  0.36783  Biso   1.000  C
  C301     1.0000 0.15690  0.08250  0.88217  Biso   1.000  C
  C302     1.0000 0.34310  0.91750  0.38217  Biso   1.000  C
  C303     1.0000 0.66750  0.40690  0.63217  Biso   1.000  C
  C304     1.0000 0.33250  0.09310  0.63217  Biso   1.000  C
  C305     1.0000 0.34310  0.58250  0.88217  Biso   1.000  C
  C306     1.0000 0.66750  0.09310  0.13217  Biso   1.000  C
  C307     1.0000 0.65690  0.91750  0.88217  Biso   1.000  C
  C308     1.0000 0.83250  0.90690  0.63217  Biso   1.000  C
  C309     1.0000 0.34310  0.41750  0.61783  Biso   1.000  C
  C310     1.0000 0.15690  0.58250  0.11783  Biso   1.000  C
  C311     1.0000 0.33250  0.59310  0.36783  Biso   1.000  C
  C312     1.0000 0.66750  0.90690  0.36783  Biso   1.000  C
  C313     1.0000 0.84310  0.08250  0.38217  Biso   1.000  C
  C314     1.0000 0.16750  0.59310  0.63217  Biso   1.000  C
  C315     1.0000 0.15690  0.41750  0.38217  Biso   1.000  C
  C316     1.0000 0.33250  0.40690  0.13217  Biso   1.000  C
  C317     1.0000 0.84310  0.91750  0.11783  Biso   1.000  C
  C318     1.0000 0.65690  0.08250  0.61783  Biso   1.000  C
  C319     1.0000 0.83250  0.09310  0.86783  Biso   1.000  C
  C320     1.0000 0.16750  0.40690  0.86783  Biso   1.000  C
  H225     1.0000 0.64880  0.39850  0.14070  Biso   1.000  H
  H226     1.0000 0.85150  0.39880  0.39070  Biso   1.000  H
  H227     1.0000 0.35120  0.10150  0.14070  Biso   1.000  H
  H228     1.0000 0.64850  0.60120  0.89070  Biso   1.000  H
  H229     1.0000 0.64880  0.60150  0.35930  Biso   1.000  H
  H230     1.0000 0.85120  0.39850  0.85930  Biso   1.000  H
  H231     1.0000 0.14850  0.89880  0.10930  Biso   1.000  H
  H232     1.0000 0.85150  0.60120  0.10930  Biso   1.000  H
  H233     1.0000 0.14880  0.89850  0.64070  Biso   1.000  H
  H234     1.0000 0.35150  0.89880  0.89070  Biso   1.000  H
  H235     1.0000 0.85120  0.60150  0.64070  Biso   1.000  H
  H236     1.0000 0.14850  0.10120  0.39070  Biso   1.000  H
  H237     1.0000 0.14880  0.10150  0.85930  Biso   1.000  H
  H238     1.0000 0.35120  0.89850  0.35930  Biso   1.000  H
  H239     1.0000 0.64850  0.39880  0.60930  Biso   1.000  H
  H240     1.0000 0.35150  0.10120  0.60930  Biso   1.000  H
  H241     1.0000 0.35120  0.60150  0.85930  Biso   1.000  H
  H242     1.0000 0.64850  0.10120  0.10930  Biso   1.000  H
  H243     1.0000 0.64880  0.89850  0.85930  Biso   1.000  H
  H244     1.0000 0.85150  0.89880  0.60930  Biso   1.000  H
  H245     1.0000 0.35120  0.39850  0.64070  Biso   1.000  H
  H246     1.0000 0.14880  0.60150  0.14070  Biso   1.000  H
  H247     1.0000 0.35150  0.60120  0.39070  Biso   1.000  H
  H248     1.0000 0.64850  0.89880  0.39070  Biso   1.000  H
  H249     1.0000 0.85120  0.10150  0.35930  Biso   1.000  H
  H250     1.0000 0.14850  0.60120  0.60930  Biso   1.000  H
  H251     1.0000 0.14880  0.39850  0.35930  Biso   1.000  H
  H252     1.0000 0.35150  0.39880  0.10930  Biso   1.000  H
  H253     1.0000 0.85120  0.89850  0.14070  Biso   1.000  H
  H254     1.0000 0.64880  0.10150  0.64070  Biso   1.000  H
  H255     1.0000 0.85150  0.10120  0.89070  Biso   1.000  H
  H256     1.0000 0.14850  0.39880  0.89070  Biso   1.000  H
