data_image0
_cell_length_a       14.749
_cell_length_b       14.749
_cell_length_c       38.475
_cell_angle_alpha    90
_cell_angle_beta     90
_cell_angle_gamma    90

_symmetry_space_group_name_H-M    "P 1"
_symmetry_int_tables_number       1

loop_
  _symmetry_equiv_pos_as_xyz
  'x, y, z'

loop_
  _atom_site_label
  _atom_site_occupancy
  _atom_site_fract_x
  _atom_site_fract_y
  _atom_site_fract_z
  _atom_site_thermal_displace_type
  _atom_site_B_iso_or_equiv
  _atom_site_type_symbol
  Cu1      1.0000 0.56713  0.31980  0.01873  Biso   1.000  Cu
  Cu2      1.0000 0.93020  0.31713  0.26873  Biso   1.000  Cu
  Cu3      1.0000 0.56980  0.68287  0.76873  Biso   1.000  Cu
  Cu4      1.0000 0.56980  0.31713  0.73127  Biso   1.000  Cu
  Cu5      1.0000 0.93020  0.68287  0.23127  Biso   1.000  Cu
  Cu6      1.0000 0.06713  0.81980  0.51873  Biso   1.000  Cu
  Cu7      1.0000 0.43020  0.81713  0.76873  Biso   1.000  Cu
  Cu8      1.0000 0.06980  0.18287  0.26873  Biso   1.000  Cu
  Cu9      1.0000 0.06980  0.81713  0.23127  Biso   1.000  Cu
  Cu10     1.0000 0.93287  0.68020  0.51873  Biso   1.000  Cu
  Cu11     1.0000 0.93287  0.31980  0.98127  Biso   1.000  Cu
  Cu12     1.0000 0.56713  0.68020  0.48127  Biso   1.000  Cu
  Cu13     1.0000 0.43287  0.18020  0.01873  Biso   1.000  Cu
  Cu14     1.0000 0.43287  0.81980  0.48127  Biso   1.000  Cu
  Cu15     1.0000 0.06713  0.18020  0.98127  Biso   1.000  Cu
  Cu16     1.0000 0.43020  0.18287  0.73127  Biso   1.000  Cu
  Cu17     1.0000 0.43287  0.68020  0.98127  Biso   1.000  Cu
  Cu18     1.0000 0.56980  0.18287  0.23127  Biso   1.000  Cu
  Cu19     1.0000 0.93020  0.81713  0.73127  Biso   1.000  Cu
  Cu20     1.0000 0.93020  0.18287  0.76873  Biso   1.000  Cu
  Cu21     1.0000 0.56980  0.81713  0.26873  Biso   1.000  Cu
  Cu22     1.0000 0.93287  0.18020  0.48127  Biso   1.000  Cu
  Cu23     1.0000 0.06980  0.68287  0.73127  Biso   1.000  Cu
  Cu24     1.0000 0.43020  0.31713  0.23127  Biso   1.000  Cu
  Cu25     1.0000 0.43020  0.68287  0.26873  Biso   1.000  Cu
  Cu26     1.0000 0.06713  0.31980  0.48127  Biso   1.000  Cu
  Cu27     1.0000 0.06713  0.68020  0.01873  Biso   1.000  Cu
  Cu28     1.0000 0.43287  0.31980  0.51873  Biso   1.000  Cu
  Cu29     1.0000 0.56713  0.81980  0.98127  Biso   1.000  Cu
  Cu30     1.0000 0.56713  0.18020  0.51873  Biso   1.000  Cu
  Cu31     1.0000 0.93287  0.81980  0.01873  Biso   1.000  Cu
  Cu32     1.0000 0.06980  0.31713  0.76873  Biso   1.000  Cu
  I1       1.0000 0.39185  0.35239  0.03024  Biso   1.000  I
  I2       1.0000 0.89761  0.14185  0.28024  Biso   1.000  I
  I3       1.0000 0.60239  0.85815  0.78024  Biso   1.000  I
  I4       1.0000 0.60239  0.14185  0.71976  Biso   1.000  I
  I5       1.0000 0.89761  0.85815  0.21976  Biso   1.000  I
  I6       1.0000 0.89185  0.85239  0.53024  Biso   1.000  I
  I7       1.0000 0.39761  0.64185  0.78024  Biso   1.000  I
  I8       1.0000 0.10239  0.35815  0.28024  Biso   1.000  I
  I9       1.0000 0.10239  0.64185  0.21976  Biso   1.000  I
  I10      1.0000 0.10815  0.64761  0.53024  Biso   1.000  I
  I11      1.0000 0.10815  0.35239  0.96976  Biso   1.000  I
  I12      1.0000 0.39185  0.64761  0.46976  Biso   1.000  I
  I13      1.0000 0.60815  0.14761  0.03024  Biso   1.000  I
  I14      1.0000 0.60815  0.85239  0.46976  Biso   1.000  I
  I15      1.0000 0.89185  0.14761  0.96976  Biso   1.000  I
  I16      1.0000 0.39761  0.35815  0.71976  Biso   1.000  I
  I17      1.0000 0.60815  0.64761  0.96976  Biso   1.000  I
  I18      1.0000 0.60239  0.35815  0.21976  Biso   1.000  I
  I19      1.0000 0.89761  0.64185  0.71976  Biso   1.000  I
  I20      1.0000 0.89761  0.35815  0.78024  Biso   1.000  I
  I21      1.0000 0.60239  0.64185  0.28024  Biso   1.000  I
  I22      1.0000 0.10815  0.14761  0.46976  Biso   1.000  I
  I23      1.0000 0.10239  0.85815  0.71976  Biso   1.000  I
  I24      1.0000 0.39761  0.14185  0.21976  Biso   1.000  I
  I25      1.0000 0.39761  0.85815  0.28024  Biso   1.000  I
  I26      1.0000 0.89185  0.35239  0.46976  Biso   1.000  I
  I27      1.0000 0.89185  0.64761  0.03024  Biso   1.000  I
  I28      1.0000 0.60815  0.35239  0.53024  Biso   1.000  I
  I29      1.0000 0.39185  0.85239  0.96976  Biso   1.000  I
  I30      1.0000 0.39185  0.14761  0.53024  Biso   1.000  I
  I31      1.0000 0.10815  0.85239  0.03024  Biso   1.000  I
  I32      1.0000 0.10239  0.14185  0.78024  Biso   1.000  I
  N1       1.0000 0.58990  0.33990  0.96740  Biso   1.000  N
  N2       1.0000 0.91010  0.33990  0.21740  Biso   1.000  N
  N3       1.0000 0.58990  0.66010  0.71740  Biso   1.000  N
  N4       1.0000 0.58990  0.33990  0.78260  Biso   1.000  N
  N5       1.0000 0.91010  0.66010  0.28260  Biso   1.000  N
  N6       1.0000 0.08990  0.83990  0.46740  Biso   1.000  N
  N7       1.0000 0.41010  0.83990  0.71740  Biso   1.000  N
  N8       1.0000 0.08990  0.16010  0.21740  Biso   1.000  N
  N9       1.0000 0.08990  0.83990  0.28260  Biso   1.000  N
  N10      1.0000 0.91010  0.66010  0.46740  Biso   1.000  N
  N11      1.0000 0.91010  0.33990  0.03260  Biso   1.000  N
  N12      1.0000 0.58990  0.66010  0.53260  Biso   1.000  N
  N13      1.0000 0.41010  0.16010  0.96740  Biso   1.000  N
  N14      1.0000 0.41010  0.83990  0.53260  Biso   1.000  N
  N15      1.0000 0.08990  0.16010  0.03260  Biso   1.000  N
  N16      1.0000 0.41010  0.16010  0.78260  Biso   1.000  N
  N17      1.0000 0.41010  0.66010  0.03260  Biso   1.000  N
  N18      1.0000 0.58990  0.16010  0.28260  Biso   1.000  N
  N19      1.0000 0.91010  0.83990  0.78260  Biso   1.000  N
  N20      1.0000 0.91010  0.16010  0.71740  Biso   1.000  N
  N21      1.0000 0.58990  0.83990  0.21740  Biso   1.000  N
  N22      1.0000 0.91010  0.16010  0.53260  Biso   1.000  N
  N23      1.0000 0.08990  0.66010  0.78260  Biso   1.000  N
  N24      1.0000 0.41010  0.33990  0.28260  Biso   1.000  N
  N25      1.0000 0.41010  0.66010  0.21740  Biso   1.000  N
  N26      1.0000 0.08990  0.33990  0.53260  Biso   1.000  N
  N27      1.0000 0.08990  0.66010  0.96740  Biso   1.000  N
  N28      1.0000 0.41010  0.33990  0.46740  Biso   1.000  N
  N29      1.0000 0.58990  0.83990  0.03260  Biso   1.000  N
  N30      1.0000 0.58990  0.16010  0.46740  Biso   1.000  N
  N31      1.0000 0.91010  0.83990  0.96740  Biso   1.000  N
  N32      1.0000 0.08990  0.33990  0.71740  Biso   1.000  N
  C1       1.0000 0.64410  0.28670  0.94920  Biso   1.000  C
  C2       1.0000 0.96330  0.39410  0.19920  Biso   1.000  C
  C3       1.0000 0.53670  0.60590  0.69920  Biso   1.000  C
  C4       1.0000 0.53670  0.39410  0.80080  Biso   1.000  C
  C5       1.0000 0.96330  0.60590  0.30080  Biso   1.000  C
  C6       1.0000 0.14410  0.78670  0.44920  Biso   1.000  C
  C7       1.0000 0.46330  0.89410  0.69920  Biso   1.000  C
  C8       1.0000 0.03670  0.10590  0.19920  Biso   1.000  C
  C9       1.0000 0.03670  0.89410  0.30080  Biso   1.000  C
  C10      1.0000 0.85590  0.71330  0.44920  Biso   1.000  C
  C11      1.0000 0.85590  0.28670  0.05080  Biso   1.000  C
  C12      1.0000 0.64410  0.71330  0.55080  Biso   1.000  C
  C13      1.0000 0.35590  0.21330  0.94920  Biso   1.000  C
  C14      1.0000 0.35590  0.78670  0.55080  Biso   1.000  C
  C15      1.0000 0.14410  0.21330  0.05080  Biso   1.000  C
  C16      1.0000 0.46330  0.10590  0.80080  Biso   1.000  C
  C17      1.0000 0.35590  0.71330  0.05080  Biso   1.000  C
  C18      1.0000 0.53670  0.10590  0.30080  Biso   1.000  C
  C19      1.0000 0.96330  0.89410  0.80080  Biso   1.000  C
  C20      1.0000 0.96330  0.10590  0.69920  Biso   1.000  C
  C21      1.0000 0.53670  0.89410  0.19920  Biso   1.000  C
  C22      1.0000 0.85590  0.21330  0.55080  Biso   1.000  C
  C23      1.0000 0.03670  0.60590  0.80080  Biso   1.000  C
  C24      1.0000 0.46330  0.39410  0.30080  Biso   1.000  C
  C25      1.0000 0.46330  0.60590  0.19920  Biso   1.000  C
  C26      1.0000 0.14410  0.28670  0.55080  Biso   1.000  C
  C27      1.0000 0.14410  0.71330  0.94920  Biso   1.000  C
  C28      1.0000 0.35590  0.28670  0.44920  Biso   1.000  C
  C29      1.0000 0.64410  0.78670  0.05080  Biso   1.000  C
  C30      1.0000 0.64410  0.21330  0.44920  Biso   1.000  C
  C31      1.0000 0.85590  0.78670  0.94920  Biso   1.000  C
  C32      1.0000 0.03670  0.39410  0.69920  Biso   1.000  C
  H1       1.0000 0.68190  0.24550  0.96150  Biso   1.000  H
  H2       1.0000 0.00450  0.43190  0.21150  Biso   1.000  H
  H3       1.0000 0.49550  0.56810  0.71150  Biso   1.000  H
  H4       1.0000 0.49550  0.43190  0.78850  Biso   1.000  H
  H5       1.0000 0.00450  0.56810  0.28850  Biso   1.000  H
  H6       1.0000 0.18190  0.74550  0.46150  Biso   1.000  H
  H7       1.0000 0.50450  0.93190  0.71150  Biso   1.000  H
  H8       1.0000 0.99550  0.06810  0.21150  Biso   1.000  H
  H9       1.0000 0.99550  0.93190  0.28850  Biso   1.000  H
  H10      1.0000 0.81810  0.75450  0.46150  Biso   1.000  H
  H11      1.0000 0.81810  0.24550  0.03850  Biso   1.000  H
  H12      1.0000 0.68190  0.75450  0.53850  Biso   1.000  H
  H13      1.0000 0.31810  0.25450  0.96150  Biso   1.000  H
  H14      1.0000 0.31810  0.74550  0.53850  Biso   1.000  H
  H15      1.0000 0.18190  0.25450  0.03850  Biso   1.000  H
  H16      1.0000 0.50450  0.06810  0.78850  Biso   1.000  H
  H17      1.0000 0.31810  0.75450  0.03850  Biso   1.000  H
  H18      1.0000 0.49550  0.06810  0.28850  Biso   1.000  H
  H19      1.0000 0.00450  0.93190  0.78850  Biso   1.000  H
  H20      1.0000 0.00450  0.06810  0.71150  Biso   1.000  H
  H21      1.0000 0.49550  0.93190  0.21150  Biso   1.000  H
  H22      1.0000 0.81810  0.25450  0.53850  Biso   1.000  H
  H23      1.0000 0.99550  0.56810  0.78850  Biso   1.000  H
  H24      1.0000 0.50450  0.43190  0.28850  Biso   1.000  H
  H25      1.0000 0.50450  0.56810  0.21150  Biso   1.000  H
  H26      1.0000 0.18190  0.24550  0.53850  Biso   1.000  H
  H27      1.0000 0.18190  0.75450  0.96150  Biso   1.000  H
  H28      1.0000 0.31810  0.24550  0.46150  Biso   1.000  H
  H29      1.0000 0.68190  0.74550  0.03850  Biso   1.000  H
  H30      1.0000 0.68190  0.25450  0.46150  Biso   1.000  H
  H31      1.0000 0.81810  0.74550  0.96150  Biso   1.000  H
  H32      1.0000 0.99550  0.43190  0.71150  Biso   1.000  H
  C33      1.0000 0.64930  0.28730  0.91330  Biso   1.000  C
  C34      1.0000 0.96270  0.39930  0.16330  Biso   1.000  C
  C35      1.0000 0.53730  0.60070  0.66330  Biso   1.000  C
  C36      1.0000 0.53730  0.39930  0.83670  Biso   1.000  C
  C37      1.0000 0.96270  0.60070  0.33670  Biso   1.000  C
  C38      1.0000 0.14930  0.78730  0.41330  Biso   1.000  C
  C39      1.0000 0.46270  0.89930  0.66330  Biso   1.000  C
  C40      1.0000 0.03730  0.10070  0.16330  Biso   1.000  C
  C41      1.0000 0.03730  0.89930  0.33670  Biso   1.000  C
  C42      1.0000 0.85070  0.71270  0.41330  Biso   1.000  C
  C43      1.0000 0.85070  0.28730  0.08670  Biso   1.000  C
  C44      1.0000 0.64930  0.71270  0.58670  Biso   1.000  C
  C45      1.0000 0.35070  0.21270  0.91330  Biso   1.000  C
  C46      1.0000 0.35070  0.78730  0.58670  Biso   1.000  C
  C47      1.0000 0.14930  0.21270  0.08670  Biso   1.000  C
  C48      1.0000 0.46270  0.10070  0.83670  Biso   1.000  C
  C49      1.0000 0.35070  0.71270  0.08670  Biso   1.000  C
  C50      1.0000 0.53730  0.10070  0.33670  Biso   1.000  C
  C51      1.0000 0.96270  0.89930  0.83670  Biso   1.000  C
  C52      1.0000 0.96270  0.10070  0.66330  Biso   1.000  C
  C53      1.0000 0.53730  0.89930  0.16330  Biso   1.000  C
  C54      1.0000 0.85070  0.21270  0.58670  Biso   1.000  C
  C55      1.0000 0.03730  0.60070  0.83670  Biso   1.000  C
  C56      1.0000 0.46270  0.39930  0.33670  Biso   1.000  C
  C57      1.0000 0.46270  0.60070  0.16330  Biso   1.000  C
  C58      1.0000 0.14930  0.28730  0.58670  Biso   1.000  C
  C59      1.0000 0.14930  0.71270  0.91330  Biso   1.000  C
  C60      1.0000 0.35070  0.28730  0.41330  Biso   1.000  C
  C61      1.0000 0.64930  0.78730  0.08670  Biso   1.000  C
  C62      1.0000 0.64930  0.21270  0.41330  Biso   1.000  C
  C63      1.0000 0.85070  0.78730  0.91330  Biso   1.000  C
  C64      1.0000 0.03730  0.39930  0.66330  Biso   1.000  C
  H33      1.0000 0.69020  0.24780  0.90180  Biso   1.000  H
  H34      1.0000 0.00220  0.44020  0.15180  Biso   1.000  H
  H35      1.0000 0.49780  0.55980  0.65180  Biso   1.000  H
  H36      1.0000 0.49780  0.44020  0.84820  Biso   1.000  H
  H37      1.0000 0.00220  0.55980  0.34820  Biso   1.000  H
  H38      1.0000 0.19020  0.74780  0.40180  Biso   1.000  H
  H39      1.0000 0.50220  0.94020  0.65180  Biso   1.000  H
  H40      1.0000 0.99780  0.05980  0.15180  Biso   1.000  H
  H41      1.0000 0.99780  0.94020  0.34820  Biso   1.000  H
  H42      1.0000 0.80980  0.75220  0.40180  Biso   1.000  H
  H43      1.0000 0.80980  0.24780  0.09820  Biso   1.000  H
  H44      1.0000 0.69020  0.75220  0.59820  Biso   1.000  H
  H45      1.0000 0.30980  0.25220  0.90180  Biso   1.000  H
  H46      1.0000 0.30980  0.74780  0.59820  Biso   1.000  H
  H47      1.0000 0.19020  0.25220  0.09820  Biso   1.000  H
  H48      1.0000 0.50220  0.05980  0.84820  Biso   1.000  H
  H49      1.0000 0.30980  0.75220  0.09820  Biso   1.000  H
  H50      1.0000 0.49780  0.05980  0.34820  Biso   1.000  H
  H51      1.0000 0.00220  0.94020  0.84820  Biso   1.000  H
  H52      1.0000 0.00220  0.05980  0.65180  Biso   1.000  H
  H53      1.0000 0.49780  0.94020  0.15180  Biso   1.000  H
  H54      1.0000 0.80980  0.25220  0.59820  Biso   1.000  H
  H55      1.0000 0.99780  0.55980  0.84820  Biso   1.000  H
  H56      1.0000 0.50220  0.44020  0.34820  Biso   1.000  H
  H57      1.0000 0.50220  0.55980  0.15180  Biso   1.000  H
  H58      1.0000 0.19020  0.24780  0.59820  Biso   1.000  H
  H59      1.0000 0.19020  0.75220  0.90180  Biso   1.000  H
  H60      1.0000 0.30980  0.24780  0.40180  Biso   1.000  H
  H61      1.0000 0.69020  0.74780  0.09820  Biso   1.000  H
  H62      1.0000 0.69020  0.25220  0.40180  Biso   1.000  H
  H63      1.0000 0.80980  0.74780  0.90180  Biso   1.000  H
  H64      1.0000 0.99780  0.44020  0.65180  Biso   1.000  H
  C65      1.0000 0.59540  0.34490  0.89420  Biso   1.000  C
  C66      1.0000 0.90510  0.34540  0.14420  Biso   1.000  C
  C67      1.0000 0.59490  0.65460  0.64420  Biso   1.000  C
  C68      1.0000 0.59490  0.34540  0.85580  Biso   1.000  C
  C69      1.0000 0.90510  0.65460  0.35580  Biso   1.000  C
  C70      1.0000 0.09540  0.84490  0.39420  Biso   1.000  C
  C71      1.0000 0.40510  0.84540  0.64420  Biso   1.000  C
  C72      1.0000 0.09490  0.15460  0.14420  Biso   1.000  C
  C73      1.0000 0.09490  0.84540  0.35580  Biso   1.000  C
  C74      1.0000 0.90460  0.65510  0.39420  Biso   1.000  C
  C75      1.0000 0.90460  0.34490  0.10580  Biso   1.000  C
  C76      1.0000 0.59540  0.65510  0.60580  Biso   1.000  C
  C77      1.0000 0.40460  0.15510  0.89420  Biso   1.000  C
  C78      1.0000 0.40460  0.84490  0.60580  Biso   1.000  C
  C79      1.0000 0.09540  0.15510  0.10580  Biso   1.000  C
  C80      1.0000 0.40510  0.15460  0.85580  Biso   1.000  C
  C81      1.0000 0.40460  0.65510  0.10580  Biso   1.000  C
  C82      1.0000 0.59490  0.15460  0.35580  Biso   1.000  C
  C83      1.0000 0.90510  0.84540  0.85580  Biso   1.000  C
  C84      1.0000 0.90510  0.15460  0.64420  Biso   1.000  C
  C85      1.0000 0.59490  0.84540  0.14420  Biso   1.000  C
  C86      1.0000 0.90460  0.15510  0.60580  Biso   1.000  C
  C87      1.0000 0.09490  0.65460  0.85580  Biso   1.000  C
  C88      1.0000 0.40510  0.34540  0.35580  Biso   1.000  C
  C89      1.0000 0.40510  0.65460  0.14420  Biso   1.000  C
  C90      1.0000 0.09540  0.34490  0.60580  Biso   1.000  C
  C91      1.0000 0.09540  0.65510  0.89420  Biso   1.000  C
  C92      1.0000 0.40460  0.34490  0.39420  Biso   1.000  C
  C93      1.0000 0.59540  0.84490  0.10580  Biso   1.000  C
  C94      1.0000 0.59540  0.15510  0.39420  Biso   1.000  C
  C95      1.0000 0.90460  0.84490  0.89420  Biso   1.000  C
  C96      1.0000 0.09490  0.34540  0.64420  Biso   1.000  C
  C97      1.0000 0.54030  0.40090  0.91350  Biso   1.000  C
  C98      1.0000 0.84910  0.29030  0.16350  Biso   1.000  C
  C99      1.0000 0.65090  0.70970  0.66350  Biso   1.000  C
  C100     1.0000 0.65090  0.29030  0.83650  Biso   1.000  C
  C101     1.0000 0.84910  0.70970  0.33650  Biso   1.000  C
  C102     1.0000 0.04030  0.90090  0.41350  Biso   1.000  C
  C103     1.0000 0.34910  0.79030  0.66350  Biso   1.000  C
  C104     1.0000 0.15090  0.20970  0.16350  Biso   1.000  C
  C105     1.0000 0.15090  0.79030  0.33650  Biso   1.000  C
  C106     1.0000 0.95970  0.59910  0.41350  Biso   1.000  C
  C107     1.0000 0.95970  0.40090  0.08650  Biso   1.000  C
  C108     1.0000 0.54030  0.59910  0.58650  Biso   1.000  C
  C109     1.0000 0.45970  0.09910  0.91350  Biso   1.000  C
  C110     1.0000 0.45970  0.90090  0.58650  Biso   1.000  C
  C111     1.0000 0.04030  0.09910  0.08650  Biso   1.000  C
  C112     1.0000 0.34910  0.20970  0.83650  Biso   1.000  C
  C113     1.0000 0.45970  0.59910  0.08650  Biso   1.000  C
  C114     1.0000 0.65090  0.20970  0.33650  Biso   1.000  C
  C115     1.0000 0.84910  0.79030  0.83650  Biso   1.000  C
  C116     1.0000 0.84910  0.20970  0.66350  Biso   1.000  C
  C117     1.0000 0.65090  0.79030  0.16350  Biso   1.000  C
  C118     1.0000 0.95970  0.09910  0.58650  Biso   1.000  C
  C119     1.0000 0.15090  0.70970  0.83650  Biso   1.000  C
  C120     1.0000 0.34910  0.29030  0.33650  Biso   1.000  C
  C121     1.0000 0.34910  0.70970  0.16350  Biso   1.000  C
  C122     1.0000 0.04030  0.40090  0.58650  Biso   1.000  C
  C123     1.0000 0.04030  0.59910  0.91350  Biso   1.000  C
  C124     1.0000 0.45970  0.40090  0.41350  Biso   1.000  C
  C125     1.0000 0.54030  0.90090  0.08650  Biso   1.000  C
  C126     1.0000 0.54030  0.09910  0.41350  Biso   1.000  C
  C127     1.0000 0.95970  0.90090  0.91350  Biso   1.000  C
  C128     1.0000 0.15090  0.29030  0.66350  Biso   1.000  C
  H65      1.0000 0.50230  0.44320  0.90180  Biso   1.000  H
  H66      1.0000 0.80680  0.25230  0.15180  Biso   1.000  H
  H67      1.0000 0.69320  0.74770  0.65180  Biso   1.000  H
  H68      1.0000 0.69320  0.25230  0.84820  Biso   1.000  H
  H69      1.0000 0.80680  0.74770  0.34820  Biso   1.000  H
  H70      1.0000 0.00230  0.94320  0.40180  Biso   1.000  H
  H71      1.0000 0.30680  0.75230  0.65180  Biso   1.000  H
  H72      1.0000 0.19320  0.24770  0.15180  Biso   1.000  H
  H73      1.0000 0.19320  0.75230  0.34820  Biso   1.000  H
  H74      1.0000 0.99770  0.55680  0.40180  Biso   1.000  H
  H75      1.0000 0.99770  0.44320  0.09820  Biso   1.000  H
  H76      1.0000 0.50230  0.55680  0.59820  Biso   1.000  H
  H77      1.0000 0.49770  0.05680  0.90180  Biso   1.000  H
  H78      1.0000 0.49770  0.94320  0.59820  Biso   1.000  H
  H79      1.0000 0.00230  0.05680  0.09820  Biso   1.000  H
  H80      1.0000 0.30680  0.24770  0.84820  Biso   1.000  H
  H81      1.0000 0.49770  0.55680  0.09820  Biso   1.000  H
  H82      1.0000 0.69320  0.24770  0.34820  Biso   1.000  H
  H83      1.0000 0.80680  0.75230  0.84820  Biso   1.000  H
  H84      1.0000 0.80680  0.24770  0.65180  Biso   1.000  H
  H85      1.0000 0.69320  0.75230  0.15180  Biso   1.000  H
  H86      1.0000 0.99770  0.05680  0.59820  Biso   1.000  H
  H87      1.0000 0.19320  0.74770  0.84820  Biso   1.000  H
  H88      1.0000 0.30680  0.25230  0.34820  Biso   1.000  H
  H89      1.0000 0.30680  0.74770  0.15180  Biso   1.000  H
  H90      1.0000 0.00230  0.44320  0.59820  Biso   1.000  H
  H91      1.0000 0.00230  0.55680  0.90180  Biso   1.000  H
  H92      1.0000 0.49770  0.44320  0.40180  Biso   1.000  H
  H93      1.0000 0.50230  0.94320  0.09820  Biso   1.000  H
  H94      1.0000 0.50230  0.05680  0.40180  Biso   1.000  H
  H95      1.0000 0.99770  0.94320  0.90180  Biso   1.000  H
  H96      1.0000 0.19320  0.25230  0.65180  Biso   1.000  H
  C129     1.0000 0.53900  0.39690  0.94930  Biso   1.000  C
  C130     1.0000 0.85310  0.28900  0.19930  Biso   1.000  C
  C131     1.0000 0.64690  0.71100  0.69930  Biso   1.000  C
  C132     1.0000 0.64690  0.28900  0.80070  Biso   1.000  C
  C133     1.0000 0.85310  0.71100  0.30070  Biso   1.000  C
  C134     1.0000 0.03900  0.89690  0.44930  Biso   1.000  C
  C135     1.0000 0.35310  0.78900  0.69930  Biso   1.000  C
  C136     1.0000 0.14690  0.21100  0.19930  Biso   1.000  C
  C137     1.0000 0.14690  0.78900  0.30070  Biso   1.000  C
  C138     1.0000 0.96100  0.60310  0.44930  Biso   1.000  C
  C139     1.0000 0.96100  0.39690  0.05070  Biso   1.000  C
  C140     1.0000 0.53900  0.60310  0.55070  Biso   1.000  C
  C141     1.0000 0.46100  0.10310  0.94930  Biso   1.000  C
  C142     1.0000 0.46100  0.89690  0.55070  Biso   1.000  C
  C143     1.0000 0.03900  0.10310  0.05070  Biso   1.000  C
  C144     1.0000 0.35310  0.21100  0.80070  Biso   1.000  C
  C145     1.0000 0.46100  0.60310  0.05070  Biso   1.000  C
  C146     1.0000 0.64690  0.21100  0.30070  Biso   1.000  C
  C147     1.0000 0.85310  0.78900  0.80070  Biso   1.000  C
  C148     1.0000 0.85310  0.21100  0.69930  Biso   1.000  C
  C149     1.0000 0.64690  0.78900  0.19930  Biso   1.000  C
  C150     1.0000 0.96100  0.10310  0.55070  Biso   1.000  C
  C151     1.0000 0.14690  0.71100  0.80070  Biso   1.000  C
  C152     1.0000 0.35310  0.28900  0.30070  Biso   1.000  C
  C153     1.0000 0.35310  0.71100  0.19930  Biso   1.000  C
  C154     1.0000 0.03900  0.39690  0.55070  Biso   1.000  C
  C155     1.0000 0.03900  0.60310  0.94930  Biso   1.000  C
  C156     1.0000 0.46100  0.39690  0.44930  Biso   1.000  C
  C157     1.0000 0.53900  0.89690  0.05070  Biso   1.000  C
  C158     1.0000 0.53900  0.10310  0.44930  Biso   1.000  C
  C159     1.0000 0.96100  0.89690  0.94930  Biso   1.000  C
  C160     1.0000 0.14690  0.28900  0.69930  Biso   1.000  C
  H97      1.0000 0.49990  0.43690  0.96160  Biso   1.000  H
  H98      1.0000 0.81310  0.24990  0.21160  Biso   1.000  H
  H99      1.0000 0.68690  0.75010  0.71160  Biso   1.000  H
  H100     1.0000 0.68690  0.24990  0.78840  Biso   1.000  H
  H101     1.0000 0.81310  0.75010  0.28840  Biso   1.000  H
  H102     1.0000 0.99990  0.93690  0.46160  Biso   1.000  H
  H103     1.0000 0.31310  0.74990  0.71160  Biso   1.000  H
  H104     1.0000 0.18690  0.25010  0.21160  Biso   1.000  H
  H105     1.0000 0.18690  0.74990  0.28840  Biso   1.000  H
  H106     1.0000 0.00010  0.56310  0.46160  Biso   1.000  H
  H107     1.0000 0.00010  0.43690  0.03840  Biso   1.000  H
  H108     1.0000 0.49990  0.56310  0.53840  Biso   1.000  H
  H109     1.0000 0.50010  0.06310  0.96160  Biso   1.000  H
  H110     1.0000 0.50010  0.93690  0.53840  Biso   1.000  H
  H111     1.0000 0.99990  0.06310  0.03840  Biso   1.000  H
  H112     1.0000 0.31310  0.25010  0.78840  Biso   1.000  H
  H113     1.0000 0.50010  0.56310  0.03840  Biso   1.000  H
  H114     1.0000 0.68690  0.25010  0.28840  Biso   1.000  H
  H115     1.0000 0.81310  0.74990  0.78840  Biso   1.000  H
  H116     1.0000 0.81310  0.25010  0.71160  Biso   1.000  H
  H117     1.0000 0.68690  0.74990  0.21160  Biso   1.000  H
  H118     1.0000 0.00010  0.06310  0.53840  Biso   1.000  H
  H119     1.0000 0.18690  0.75010  0.78840  Biso   1.000  H
  H120     1.0000 0.31310  0.24990  0.28840  Biso   1.000  H
  H121     1.0000 0.31310  0.75010  0.21160  Biso   1.000  H
  H122     1.0000 0.99990  0.43690  0.53840  Biso   1.000  H
  H123     1.0000 0.99990  0.56310  0.96160  Biso   1.000  H
  H124     1.0000 0.50010  0.43690  0.46160  Biso   1.000  H
  H125     1.0000 0.49990  0.93690  0.03840  Biso   1.000  H
  H126     1.0000 0.49990  0.06310  0.46160  Biso   1.000  H
  H127     1.0000 0.00010  0.93690  0.96160  Biso   1.000  H
  H128     1.0000 0.18690  0.24990  0.71160  Biso   1.000  H
  N33      1.0000 0.62660  0.39310  0.05720  Biso   1.000  N
  N34      1.0000 0.85690  0.37660  0.30720  Biso   1.000  N
  N35      1.0000 0.64310  0.62340  0.80720  Biso   1.000  N
  N36      1.0000 0.64310  0.37660  0.69280  Biso   1.000  N
  N37      1.0000 0.85690  0.62340  0.19280  Biso   1.000  N
  N38      1.0000 0.12660  0.89310  0.55720  Biso   1.000  N
  N39      1.0000 0.35690  0.87660  0.80720  Biso   1.000  N
  N40      1.0000 0.14310  0.12340  0.30720  Biso   1.000  N
  N41      1.0000 0.14310  0.87660  0.19280  Biso   1.000  N
  N42      1.0000 0.87340  0.60690  0.55720  Biso   1.000  N
  N43      1.0000 0.87340  0.39310  0.94280  Biso   1.000  N
  N44      1.0000 0.62660  0.60690  0.44280  Biso   1.000  N
  N45      1.0000 0.37340  0.10690  0.05720  Biso   1.000  N
  N46      1.0000 0.37340  0.89310  0.44280  Biso   1.000  N
  N47      1.0000 0.12660  0.10690  0.94280  Biso   1.000  N
  N48      1.0000 0.35690  0.12340  0.69280  Biso   1.000  N
  N49      1.0000 0.37340  0.60690  0.94280  Biso   1.000  N
  N50      1.0000 0.64310  0.12340  0.19280  Biso   1.000  N
  N51      1.0000 0.85690  0.87660  0.69280  Biso   1.000  N
  N52      1.0000 0.85690  0.12340  0.80720  Biso   1.000  N
  N53      1.0000 0.64310  0.87660  0.30720  Biso   1.000  N
  N54      1.0000 0.87340  0.10690  0.44280  Biso   1.000  N
  N55      1.0000 0.14310  0.62340  0.69280  Biso   1.000  N
  N56      1.0000 0.35690  0.37660  0.19280  Biso   1.000  N
  N57      1.0000 0.35690  0.62340  0.30720  Biso   1.000  N
  N58      1.0000 0.12660  0.39310  0.44280  Biso   1.000  N
  N59      1.0000 0.12660  0.60690  0.05720  Biso   1.000  N
  N60      1.0000 0.37340  0.39310  0.55720  Biso   1.000  N
  N61      1.0000 0.62660  0.89310  0.94280  Biso   1.000  N
  N62      1.0000 0.62660  0.10690  0.55720  Biso   1.000  N
  N63      1.0000 0.87340  0.89310  0.05720  Biso   1.000  N
  N64      1.0000 0.14310  0.37660  0.80720  Biso   1.000  N
  C161     1.0000 0.67290  0.46880  0.05090  Biso   1.000  C
  C162     1.0000 0.78120  0.42290  0.30090  Biso   1.000  C
  C163     1.0000 0.71880  0.57710  0.80090  Biso   1.000  C
  C164     1.0000 0.71880  0.42290  0.69910  Biso   1.000  C
  C165     1.0000 0.78120  0.57710  0.19910  Biso   1.000  C
  C166     1.0000 0.17290  0.96880  0.55090  Biso   1.000  C
  C167     1.0000 0.28120  0.92290  0.80090  Biso   1.000  C
  C168     1.0000 0.21880  0.07710  0.30090  Biso   1.000  C
  C169     1.0000 0.21880  0.92290  0.19910  Biso   1.000  C
  C170     1.0000 0.82710  0.53120  0.55090  Biso   1.000  C
  C171     1.0000 0.82710  0.46880  0.94910  Biso   1.000  C
  C172     1.0000 0.67290  0.53120  0.44910  Biso   1.000  C
  C173     1.0000 0.32710  0.03120  0.05090  Biso   1.000  C
  C174     1.0000 0.32710  0.96880  0.44910  Biso   1.000  C
  C175     1.0000 0.17290  0.03120  0.94910  Biso   1.000  C
  C176     1.0000 0.28120  0.07710  0.69910  Biso   1.000  C
  C177     1.0000 0.32710  0.53120  0.94910  Biso   1.000  C
  C178     1.0000 0.71880  0.07710  0.19910  Biso   1.000  C
  C179     1.0000 0.78120  0.92290  0.69910  Biso   1.000  C
  C180     1.0000 0.78120  0.07710  0.80090  Biso   1.000  C
  C181     1.0000 0.71880  0.92290  0.30090  Biso   1.000  C
  C182     1.0000 0.82710  0.03120  0.44910  Biso   1.000  C
  C183     1.0000 0.21880  0.57710  0.69910  Biso   1.000  C
  C184     1.0000 0.28120  0.42290  0.19910  Biso   1.000  C
  C185     1.0000 0.28120  0.57710  0.30090  Biso   1.000  C
  C186     1.0000 0.17290  0.46880  0.44910  Biso   1.000  C
  C187     1.0000 0.17290  0.53120  0.05090  Biso   1.000  C
  C188     1.0000 0.32710  0.46880  0.55090  Biso   1.000  C
  C189     1.0000 0.67290  0.96880  0.94910  Biso   1.000  C
  C190     1.0000 0.67290  0.03120  0.55090  Biso   1.000  C
  C191     1.0000 0.82710  0.96880  0.05090  Biso   1.000  C
  C192     1.0000 0.21880  0.42290  0.80090  Biso   1.000  C
  H129     1.0000 0.67890  0.48800  0.02750  Biso   1.000  H
  H130     1.0000 0.76200  0.42890  0.27750  Biso   1.000  H
  H131     1.0000 0.73800  0.57110  0.77750  Biso   1.000  H
  H132     1.0000 0.73800  0.42890  0.72250  Biso   1.000  H
  H133     1.0000 0.76200  0.57110  0.22250  Biso   1.000  H
  H134     1.0000 0.17890  0.98800  0.52750  Biso   1.000  H
  H135     1.0000 0.26200  0.92890  0.77750  Biso   1.000  H
  H136     1.0000 0.23800  0.07110  0.27750  Biso   1.000  H
  H137     1.0000 0.23800  0.92890  0.22250  Biso   1.000  H
  H138     1.0000 0.82110  0.51200  0.52750  Biso   1.000  H
  H139     1.0000 0.82110  0.48800  0.97250  Biso   1.000  H
  H140     1.0000 0.67890  0.51200  0.47250  Biso   1.000  H
  H141     1.0000 0.32110  0.01200  0.02750  Biso   1.000  H
  H142     1.0000 0.32110  0.98800  0.47250  Biso   1.000  H
  H143     1.0000 0.17890  0.01200  0.97250  Biso   1.000  H
  H144     1.0000 0.26200  0.07110  0.72250  Biso   1.000  H
  H145     1.0000 0.32110  0.51200  0.97250  Biso   1.000  H
  H146     1.0000 0.73800  0.07110  0.22250  Biso   1.000  H
  H147     1.0000 0.76200  0.92890  0.72250  Biso   1.000  H
  H148     1.0000 0.76200  0.07110  0.77750  Biso   1.000  H
  H149     1.0000 0.73800  0.92890  0.27750  Biso   1.000  H
  H150     1.0000 0.82110  0.01200  0.47250  Biso   1.000  H
  H151     1.0000 0.23800  0.57110  0.72250  Biso   1.000  H
  H152     1.0000 0.26200  0.42890  0.22250  Biso   1.000  H
  H153     1.0000 0.26200  0.57110  0.27750  Biso   1.000  H
  H154     1.0000 0.17890  0.48800  0.47250  Biso   1.000  H
  H155     1.0000 0.17890  0.51200  0.02750  Biso   1.000  H
  H156     1.0000 0.32110  0.48800  0.52750  Biso   1.000  H
  H157     1.0000 0.67890  0.98800  0.97250  Biso   1.000  H
  H158     1.0000 0.67890  0.01200  0.52750  Biso   1.000  H
  H159     1.0000 0.82110  0.98800  0.02750  Biso   1.000  H
  H160     1.0000 0.23800  0.42890  0.77750  Biso   1.000  H
  C193     1.0000 0.71290  0.52100  0.07650  Biso   1.000  C
  C194     1.0000 0.72900  0.46290  0.32650  Biso   1.000  C
  C195     1.0000 0.77100  0.53710  0.82650  Biso   1.000  C
  C196     1.0000 0.77100  0.46290  0.67350  Biso   1.000  C
  C197     1.0000 0.72900  0.53710  0.17350  Biso   1.000  C
  C198     1.0000 0.21290  0.02100  0.57650  Biso   1.000  C
  C199     1.0000 0.22900  0.96290  0.82650  Biso   1.000  C
  C200     1.0000 0.27100  0.03710  0.32650  Biso   1.000  C
  C201     1.0000 0.27100  0.96290  0.17350  Biso   1.000  C
  C202     1.0000 0.78710  0.47900  0.57650  Biso   1.000  C
  C203     1.0000 0.78710  0.52100  0.92350  Biso   1.000  C
  C204     1.0000 0.71290  0.47900  0.42350  Biso   1.000  C
  C205     1.0000 0.28710  0.97900  0.07650  Biso   1.000  C
  C206     1.0000 0.28710  0.02100  0.42350  Biso   1.000  C
  C207     1.0000 0.21290  0.97900  0.92350  Biso   1.000  C
  C208     1.0000 0.22900  0.03710  0.67350  Biso   1.000  C
  C209     1.0000 0.28710  0.47900  0.92350  Biso   1.000  C
  C210     1.0000 0.77100  0.03710  0.17350  Biso   1.000  C
  C211     1.0000 0.72900  0.96290  0.67350  Biso   1.000  C
  C212     1.0000 0.72900  0.03710  0.82650  Biso   1.000  C
  C213     1.0000 0.77100  0.96290  0.32650  Biso   1.000  C
  C214     1.0000 0.78710  0.97900  0.42350  Biso   1.000  C
  C215     1.0000 0.27100  0.53710  0.67350  Biso   1.000  C
  C216     1.0000 0.22900  0.46290  0.17350  Biso   1.000  C
  C217     1.0000 0.22900  0.53710  0.32650  Biso   1.000  C
  C218     1.0000 0.21290  0.52100  0.42350  Biso   1.000  C
  C219     1.0000 0.21290  0.47900  0.07650  Biso   1.000  C
  C220     1.0000 0.28710  0.52100  0.57650  Biso   1.000  C
  C221     1.0000 0.71290  0.02100  0.92350  Biso   1.000  C
  C222     1.0000 0.71290  0.97900  0.57650  Biso   1.000  C
  C223     1.0000 0.78710  0.02100  0.07650  Biso   1.000  C
  C224     1.0000 0.27100  0.46290  0.82650  Biso   1.000  C
  H161     1.0000 0.74330  0.57560  0.07060  Biso   1.000  H
  H162     1.0000 0.67440  0.49330  0.32060  Biso   1.000  H
  H163     1.0000 0.82560  0.50670  0.82060  Biso   1.000  H
  H164     1.0000 0.82560  0.49330  0.67940  Biso   1.000  H
  H165     1.0000 0.67440  0.50670  0.17940  Biso   1.000  H
  H166     1.0000 0.24330  0.07560  0.57060  Biso   1.000  H
  H167     1.0000 0.17440  0.99330  0.82060  Biso   1.000  H
  H168     1.0000 0.32560  0.00670  0.32060  Biso   1.000  H
  H169     1.0000 0.32560  0.99330  0.17940  Biso   1.000  H
  H170     1.0000 0.75670  0.42440  0.57060  Biso   1.000  H
  H171     1.0000 0.75670  0.57560  0.92940  Biso   1.000  H
  H172     1.0000 0.74330  0.42440  0.42940  Biso   1.000  H
  H173     1.0000 0.25670  0.92440  0.07060  Biso   1.000  H
  H174     1.0000 0.25670  0.07560  0.42940  Biso   1.000  H
  H175     1.0000 0.24330  0.92440  0.92940  Biso   1.000  H
  H176     1.0000 0.17440  0.00670  0.67940  Biso   1.000  H
  H177     1.0000 0.25670  0.42440  0.92940  Biso   1.000  H
  H178     1.0000 0.82560  0.00670  0.17940  Biso   1.000  H
  H179     1.0000 0.67440  0.99330  0.67940  Biso   1.000  H
  H180     1.0000 0.67440  0.00670  0.82060  Biso   1.000  H
  H181     1.0000 0.82560  0.99330  0.32060  Biso   1.000  H
  H182     1.0000 0.75670  0.92440  0.42940  Biso   1.000  H
  H183     1.0000 0.32560  0.50670  0.67940  Biso   1.000  H
  H184     1.0000 0.17440  0.49330  0.17940  Biso   1.000  H
  H185     1.0000 0.17440  0.50670  0.32060  Biso   1.000  H
  H186     1.0000 0.24330  0.57560  0.42940  Biso   1.000  H
  H187     1.0000 0.24330  0.42440  0.07060  Biso   1.000  H
  H188     1.0000 0.25670  0.57560  0.57060  Biso   1.000  H
  H189     1.0000 0.74330  0.07560  0.92940  Biso   1.000  H
  H190     1.0000 0.74330  0.92440  0.57060  Biso   1.000  H
  H191     1.0000 0.75670  0.07560  0.07060  Biso   1.000  H
  H192     1.0000 0.32560  0.49330  0.82060  Biso   1.000  H
  C225     1.0000 0.70820  0.49320  0.11100  Biso   1.000  C
  C226     1.0000 0.75680  0.45820  0.36100  Biso   1.000  C
  C227     1.0000 0.74320  0.54180  0.86100  Biso   1.000  C
  C228     1.0000 0.74320  0.45820  0.63900  Biso   1.000  C
  C229     1.0000 0.75680  0.54180  0.13900  Biso   1.000  C
  C230     1.0000 0.20820  0.99320  0.61100  Biso   1.000  C
  C231     1.0000 0.25680  0.95820  0.86100  Biso   1.000  C
  C232     1.0000 0.24320  0.04180  0.36100  Biso   1.000  C
  C233     1.0000 0.24320  0.95820  0.13900  Biso   1.000  C
  C234     1.0000 0.79180  0.50680  0.61100  Biso   1.000  C
  C235     1.0000 0.79180  0.49320  0.88900  Biso   1.000  C
  C236     1.0000 0.70820  0.50680  0.38900  Biso   1.000  C
  C237     1.0000 0.29180  0.00680  0.11100  Biso   1.000  C
  C238     1.0000 0.29180  0.99320  0.38900  Biso   1.000  C
  C239     1.0000 0.20820  0.00680  0.88900  Biso   1.000  C
  C240     1.0000 0.25680  0.04180  0.63900  Biso   1.000  C
  C241     1.0000 0.29180  0.50680  0.88900  Biso   1.000  C
  C242     1.0000 0.74320  0.04180  0.13900  Biso   1.000  C
  C243     1.0000 0.75680  0.95820  0.63900  Biso   1.000  C
  C244     1.0000 0.75680  0.04180  0.86100  Biso   1.000  C
  C245     1.0000 0.74320  0.95820  0.36100  Biso   1.000  C
  C246     1.0000 0.79180  0.00680  0.38900  Biso   1.000  C
  C247     1.0000 0.24320  0.54180  0.63900  Biso   1.000  C
  C248     1.0000 0.25680  0.45820  0.13900  Biso   1.000  C
  C249     1.0000 0.25680  0.54180  0.36100  Biso   1.000  C
  C250     1.0000 0.20820  0.49320  0.38900  Biso   1.000  C
  C251     1.0000 0.20820  0.50680  0.11100  Biso   1.000  C
  C252     1.0000 0.29180  0.49320  0.61100  Biso   1.000  C
  C253     1.0000 0.70820  0.99320  0.88900  Biso   1.000  C
  C254     1.0000 0.70820  0.00680  0.61100  Biso   1.000  C
  C255     1.0000 0.79180  0.99320  0.11100  Biso   1.000  C
  C256     1.0000 0.24320  0.45820  0.86100  Biso   1.000  C
  C257     1.0000 0.65790  0.41550  0.11800  Biso   1.000  C
  C258     1.0000 0.83450  0.40790  0.36800  Biso   1.000  C
  C259     1.0000 0.66550  0.59210  0.86800  Biso   1.000  C
  C260     1.0000 0.66550  0.40790  0.63200  Biso   1.000  C
  C261     1.0000 0.83450  0.59210  0.13200  Biso   1.000  C
  C262     1.0000 0.15790  0.91550  0.61800  Biso   1.000  C
  C263     1.0000 0.33450  0.90790  0.86800  Biso   1.000  C
  C264     1.0000 0.16550  0.09210  0.36800  Biso   1.000  C
  C265     1.0000 0.16550  0.90790  0.13200  Biso   1.000  C
  C266     1.0000 0.84210  0.58450  0.61800  Biso   1.000  C
  C267     1.0000 0.84210  0.41550  0.88200  Biso   1.000  C
  C268     1.0000 0.65790  0.58450  0.38200  Biso   1.000  C
  C269     1.0000 0.34210  0.08450  0.11800  Biso   1.000  C
  C270     1.0000 0.34210  0.91550  0.38200  Biso   1.000  C
  C271     1.0000 0.15790  0.08450  0.88200  Biso   1.000  C
  C272     1.0000 0.33450  0.09210  0.63200  Biso   1.000  C
  C273     1.0000 0.34210  0.58450  0.88200  Biso   1.000  C
  C274     1.0000 0.66550  0.09210  0.13200  Biso   1.000  C
  C275     1.0000 0.83450  0.90790  0.63200  Biso   1.000  C
  C276     1.0000 0.83450  0.09210  0.86800  Biso   1.000  C
  C277     1.0000 0.66550  0.90790  0.36800  Biso   1.000  C
  C278     1.0000 0.84210  0.08450  0.38200  Biso   1.000  C
  C279     1.0000 0.16550  0.59210  0.63200  Biso   1.000  C
  C280     1.0000 0.33450  0.40790  0.13200  Biso   1.000  C
  C281     1.0000 0.33450  0.59210  0.36800  Biso   1.000  C
  C282     1.0000 0.15790  0.41550  0.38200  Biso   1.000  C
  C283     1.0000 0.15790  0.58450  0.11800  Biso   1.000  C
  C284     1.0000 0.34210  0.41550  0.61800  Biso   1.000  C
  C285     1.0000 0.65790  0.91550  0.88200  Biso   1.000  C
  C286     1.0000 0.65790  0.08450  0.61800  Biso   1.000  C
  C287     1.0000 0.84210  0.91550  0.11800  Biso   1.000  C
  C288     1.0000 0.16550  0.40790  0.86800  Biso   1.000  C
  H193     1.0000 0.65080  0.39480  0.14120  Biso   1.000  H
  H194     1.0000 0.85520  0.40080  0.39120  Biso   1.000  H
  H195     1.0000 0.64480  0.59920  0.89120  Biso   1.000  H
  H196     1.0000 0.64480  0.40080  0.60880  Biso   1.000  H
  H197     1.0000 0.85520  0.59920  0.10880  Biso   1.000  H
  H198     1.0000 0.15080  0.89480  0.64120  Biso   1.000  H
  H199     1.0000 0.35520  0.90080  0.89120  Biso   1.000  H
  H200     1.0000 0.14480  0.09920  0.39120  Biso   1.000  H
  H201     1.0000 0.14480  0.90080  0.10880  Biso   1.000  H
  H202     1.0000 0.84920  0.60520  0.64120  Biso   1.000  H
  H203     1.0000 0.84920  0.39480  0.85880  Biso   1.000  H
  H204     1.0000 0.65080  0.60520  0.35880  Biso   1.000  H
  H205     1.0000 0.34920  0.10520  0.14120  Biso   1.000  H
  H206     1.0000 0.34920  0.89480  0.35880  Biso   1.000  H
  H207     1.0000 0.15080  0.10520  0.85880  Biso   1.000  H
  H208     1.0000 0.35520  0.09920  0.60880  Biso   1.000  H
  H209     1.0000 0.34920  0.60520  0.85880  Biso   1.000  H
  H210     1.0000 0.64480  0.09920  0.10880  Biso   1.000  H
  H211     1.0000 0.85520  0.90080  0.60880  Biso   1.000  H
  H212     1.0000 0.85520  0.09920  0.89120  Biso   1.000  H
  H213     1.0000 0.64480  0.90080  0.39120  Biso   1.000  H
  H214     1.0000 0.84920  0.10520  0.35880  Biso   1.000  H
  H215     1.0000 0.14480  0.59920  0.60880  Biso   1.000  H
  H216     1.0000 0.35520  0.40080  0.10880  Biso   1.000  H
  H217     1.0000 0.35520  0.59920  0.39120  Biso   1.000  H
  H218     1.0000 0.15080  0.39480  0.35880  Biso   1.000  H
  H219     1.0000 0.15080  0.60520  0.14120  Biso   1.000  H
  H220     1.0000 0.34920  0.39480  0.64120  Biso   1.000  H
  H221     1.0000 0.65080  0.89480  0.85880  Biso   1.000  H
  H222     1.0000 0.65080  0.10520  0.64120  Biso   1.000  H
  H223     1.0000 0.84920  0.89480  0.14120  Biso   1.000  H
  H224     1.0000 0.14480  0.40080  0.89120  Biso   1.000  H
  C289     1.0000 0.61820  0.36880  0.09070  Biso   1.000  C
  C290     1.0000 0.88120  0.36820  0.34070  Biso   1.000  C
  C291     1.0000 0.61880  0.63180  0.84070  Biso   1.000  C
  C292     1.0000 0.61880  0.36820  0.65930  Biso   1.000  C
  C293     1.0000 0.88120  0.63180  0.15930  Biso   1.000  C
  C294     1.0000 0.11820  0.86880  0.59070  Biso   1.000  C
  C295     1.0000 0.38120  0.86820  0.84070  Biso   1.000  C
  C296     1.0000 0.11880  0.13180  0.34070  Biso   1.000  C
  C297     1.0000 0.11880  0.86820  0.15930  Biso   1.000  C
  C298     1.0000 0.88180  0.63120  0.59070  Biso   1.000  C
  C299     1.0000 0.88180  0.36880  0.90930  Biso   1.000  C
  C300     1.0000 0.61820  0.63120  0.40930  Biso   1.000  C
  C301     1.0000 0.38180  0.13120  0.09070  Biso   1.000  C
  C302     1.0000 0.38180  0.86880  0.40930  Biso   1.000  C
  C303     1.0000 0.11820  0.13120  0.90930  Biso   1.000  C
  C304     1.0000 0.38120  0.13180  0.65930  Biso   1.000  C
  C305     1.0000 0.38180  0.63120  0.90930  Biso   1.000  C
  C306     1.0000 0.61880  0.13180  0.15930  Biso   1.000  C
  C307     1.0000 0.88120  0.86820  0.65930  Biso   1.000  C
  C308     1.0000 0.88120  0.13180  0.84070  Biso   1.000  C
  C309     1.0000 0.61880  0.86820  0.34070  Biso   1.000  C
  C310     1.0000 0.88180  0.13120  0.40930  Biso   1.000  C
  C311     1.0000 0.11880  0.63180  0.65930  Biso   1.000  C
  C312     1.0000 0.38120  0.36820  0.15930  Biso   1.000  C
  C313     1.0000 0.38120  0.63180  0.34070  Biso   1.000  C
  C314     1.0000 0.11820  0.36880  0.40930  Biso   1.000  C
  C315     1.0000 0.11820  0.63120  0.09070  Biso   1.000  C
  C316     1.0000 0.38180  0.36880  0.59070  Biso   1.000  C
  C317     1.0000 0.61820  0.86880  0.90930  Biso   1.000  C
  C318     1.0000 0.61820  0.13120  0.59070  Biso   1.000  C
  C319     1.0000 0.88180  0.86880  0.09070  Biso   1.000  C
  C320     1.0000 0.11880  0.36820  0.84070  Biso   1.000  C
  H225     1.0000 0.58310  0.31660  0.09590  Biso   1.000  H
  H226     1.0000 0.93340  0.33310  0.34590  Biso   1.000  H
  H227     1.0000 0.56660  0.66690  0.84590  Biso   1.000  H
  H228     1.0000 0.56660  0.33310  0.65410  Biso   1.000  H
  H229     1.0000 0.93340  0.66690  0.15410  Biso   1.000  H
  H230     1.0000 0.08310  0.81660  0.59590  Biso   1.000  H
  H231     1.0000 0.43340  0.83310  0.84590  Biso   1.000  H
  H232     1.0000 0.06660  0.16690  0.34590  Biso   1.000  H
  H233     1.0000 0.06660  0.83310  0.15410  Biso   1.000  H
  H234     1.0000 0.91690  0.68340  0.59590  Biso   1.000  H
  H235     1.0000 0.91690  0.31660  0.90410  Biso   1.000  H
  H236     1.0000 0.58310  0.68340  0.40410  Biso   1.000  H
  H237     1.0000 0.41690  0.18340  0.09590  Biso   1.000  H
  H238     1.0000 0.41690  0.81660  0.40410  Biso   1.000  H
  H239     1.0000 0.08310  0.18340  0.90410  Biso   1.000  H
  H240     1.0000 0.43340  0.16690  0.65410  Biso   1.000  H
  H241     1.0000 0.41690  0.68340  0.90410  Biso   1.000  H
  H242     1.0000 0.56660  0.16690  0.15410  Biso   1.000  H
  H243     1.0000 0.93340  0.83310  0.65410  Biso   1.000  H
  H244     1.0000 0.93340  0.16690  0.84590  Biso   1.000  H
  H245     1.0000 0.56660  0.83310  0.34590  Biso   1.000  H
  H246     1.0000 0.91690  0.18340  0.40410  Biso   1.000  H
  H247     1.0000 0.06660  0.66690  0.65410  Biso   1.000  H
  H248     1.0000 0.43340  0.33310  0.15410  Biso   1.000  H
  H249     1.0000 0.43340  0.66690  0.34590  Biso   1.000  H
  H250     1.0000 0.08310  0.31660  0.40410  Biso   1.000  H
  H251     1.0000 0.08310  0.68340  0.09590  Biso   1.000  H
  H252     1.0000 0.41690  0.31660  0.59590  Biso   1.000  H
  H253     1.0000 0.58310  0.81660  0.90410  Biso   1.000  H
  H254     1.0000 0.58310  0.18340  0.59590  Biso   1.000  H
  H255     1.0000 0.91690  0.81660  0.09590  Biso   1.000  H
  H256     1.0000 0.06660  0.33310  0.84590  Biso   1.000  H
