data_image0
_cell_length_a       20.0534
_cell_length_b       24.1087
_cell_length_c       24.2218
_cell_angle_alpha    117.76
_cell_angle_beta     98.364
_cell_angle_gamma    96.981

_symmetry_space_group_name_H-M    "P 1"
_symmetry_int_tables_number       1

loop_
  _symmetry_equiv_pos_as_xyz
  'x, y, z'

loop_
  _atom_site_label
  _atom_site_occupancy
  _atom_site_fract_x
  _atom_site_fract_y
  _atom_site_fract_z
  _atom_site_thermal_displace_type
  _atom_site_B_iso_or_equiv
  _atom_site_type_symbol
  Mo1      1.0000 0.55479  0.73021  0.18012  Biso   1.000  Mo
  Mo2      1.0000 0.44521  0.26979  0.81988  Biso   1.000  Mo
  Mo3      1.0000 0.43734  0.82431  0.20557  Biso   1.000  Mo
  Mo4      1.0000 0.56266  0.17569  0.79443  Biso   1.000  Mo
  Mo5      1.0000 0.55942  0.84240  0.12746  Biso   1.000  Mo
  Mo6      1.0000 0.44058  0.15760  0.87254  Biso   1.000  Mo
  Mo7      1.0000 0.33660  0.79408  0.05651  Biso   1.000  Mo
  Mo8      1.0000 0.66340  0.20592  0.94349  Biso   1.000  Mo
  Mo9      1.0000 0.65609  0.87199  0.27732  Biso   1.000  Mo
  Mo10     1.0000 0.34391  0.12801  0.72268  Biso   1.000  Mo
  Mo11     1.0000 0.44076  0.93622  0.15257  Biso   1.000  Mo
  Mo12     1.0000 0.55924  0.06378  0.84743  Biso   1.000  Mo
  Mo13     1.0000 0.61334  0.99311  0.26276  Biso   1.000  Mo
  Mo14     1.0000 0.38666  0.00689  0.73724  Biso   1.000  Mo
  Mo15     1.0000 0.38227  0.67569  0.07276  Biso   1.000  Mo
  Mo16     1.0000 0.61773  0.32431  0.92724  Biso   1.000  Mo
  Mo17     1.0000 0.82057  0.71962  0.11521  Biso   1.000  Mo
  Mo18     1.0000 0.17943  0.28038  0.88479  Biso   1.000  Mo
  Mo19     1.0000 0.17478  0.94683  0.21855  Biso   1.000  Mo
  Mo20     1.0000 0.82522  0.05317  0.78145  Biso   1.000  Mo
  Mo21     1.0000 0.09299  0.93532  0.32177  Biso   1.000  Mo
  Mo22     1.0000 0.90701  0.06468  0.67823  Biso   1.000  Mo
  Mo23     1.0000 0.90305  0.73138  0.01304  Biso   1.000  Mo
  Mo24     1.0000 0.09695  0.26862  0.98696  Biso   1.000  Mo
  Mo25     1.0000 0.03537  0.84924  0.06217  Biso   1.000  Mo
  Mo26     1.0000 0.96463  0.15076  0.93783  Biso   1.000  Mo
  Mo27     1.0000 0.92557  0.86371  0.16634  Biso   1.000  Mo
  Mo28     1.0000 0.07443  0.13629  0.83366  Biso   1.000  Mo
  Mo29     1.0000 0.07048  0.80195  0.16771  Biso   1.000  Mo
  Mo30     1.0000 0.92952  0.19805  0.83229  Biso   1.000  Mo
  Mo31     1.0000 0.96113  0.81579  0.27140  Biso   1.000  Mo
  Mo32     1.0000 0.03887  0.18421  0.72860  Biso   1.000  Mo
  Mo33     1.0000 0.12000  0.59301  0.65765  Biso   1.000  Mo
  Mo34     1.0000 0.88000  0.40699  0.34235  Biso   1.000  Mo
  Mo35     1.0000 0.15954  0.60667  0.53687  Biso   1.000  Mo
  Mo36     1.0000 0.84046  0.39333  0.46313  Biso   1.000  Mo
  Mo37     1.0000 0.94677  0.48831  0.60397  Biso   1.000  Mo
  Mo38     1.0000 0.05323  0.51169  0.39603  Biso   1.000  Mo
  Mo39     1.0000 0.06084  0.45920  0.50844  Biso   1.000  Mo
  Mo40     1.0000 0.93916  0.54080  0.49156  Biso   1.000  Mo
  Mo41     1.0000 0.59413  0.65307  0.60559  Biso   1.000  Mo
  Mo42     1.0000 0.40587  0.34693  0.39441  Biso   1.000  Mo
  Mo43     1.0000 0.67419  0.54846  0.61960  Biso   1.000  Mo
  Mo44     1.0000 0.32581  0.45154  0.38040  Biso   1.000  Mo
  Mo45     1.0000 0.46502  0.60671  0.48352  Biso   1.000  Mo
  Mo46     1.0000 0.53498  0.39329  0.51648  Biso   1.000  Mo
  Mo47     1.0000 0.57438  0.50045  0.47276  Biso   1.000  Mo
  Mo48     1.0000 0.42562  0.49955  0.52724  Biso   1.000  Mo
  Cu1      1.0000 0.05354  0.69822  0.24771  Biso   1.000  Cu
  Cu2      1.0000 0.94646  0.30178  0.75229  Biso   1.000  Cu
  Cu3      1.0000 0.85880  0.27256  0.08723  Biso   1.000  Cu
  Cu4      1.0000 0.14120  0.72744  0.91277  Biso   1.000  Cu
  Cu5      1.0000 0.58022  0.91056  0.01013  Biso   1.000  Cu
  Cu6      1.0000 0.41978  0.08944  0.98987  Biso   1.000  Cu
  Cu7      1.0000 0.34474  0.74921  0.59677  Biso   1.000  Cu
  Cu8      1.0000 0.65526  0.25079  0.40323  Biso   1.000  Cu
  Cu9      1.0000 0.93782  0.96169  0.08074  Biso   1.000  Cu
  Cu10     1.0000 0.06218  0.03831  0.91926  Biso   1.000  Cu
  Cu11     1.0000 0.64118  0.90077  0.72662  Biso   1.000  Cu
  Cu12     1.0000 0.35882  0.09923  0.27338  Biso   1.000  Cu
  Cu13     1.0000 0.40814  0.74969  0.31552  Biso   1.000  Cu
  Cu14     1.0000 0.59186  0.25031  0.68448  Biso   1.000  Cu
  Cu15     1.0000 0.12636  0.38364  0.23197  Biso   1.000  Cu
  Cu16     1.0000 0.87364  0.61636  0.76803  Biso   1.000  Cu
  Cu17     1.0000 0.37619  0.42856  0.94354  Biso   1.000  Cu
  Cu18     1.0000 0.62381  0.57144  0.05646  Biso   1.000  Cu
  Cu19     1.0000 0.08760  0.34351  0.57882  Biso   1.000  Cu
  Cu20     1.0000 0.91240  0.65649  0.42118  Biso   1.000  Cu
  Cu21     1.0000 0.84382  0.93676  0.42321  Biso   1.000  Cu
  Cu22     1.0000 0.15618  0.06324  0.57679  Biso   1.000  Cu
  Cu23     1.0000 0.55773  0.58723  0.37144  Biso   1.000  Cu
  Cu24     1.0000 0.44227  0.41277  0.62856  Biso   1.000  Cu
  O1       1.0000 0.68580  0.02550  0.25200  Biso   1.000  O
  O2       1.0000 0.31420  0.97450  0.74800  Biso   1.000  O
  O3       1.0000 0.73860  0.87520  0.11910  Biso   1.000  O
  O4       1.0000 0.26140  0.12480  0.88090  Biso   1.000  O
  H1       1.0000 0.70050  0.85250  0.12550  Biso   1.000  H
  H2       1.0000 0.29950  0.14750  0.87450  Biso   1.000  H
  H3       1.0000 0.75170  0.84660  0.08090  Biso   1.000  H
  H4       1.0000 0.24830  0.15340  0.91910  Biso   1.000  H
  H5       1.0000 0.77700  0.89170  0.15520  Biso   1.000  H
  H6       1.0000 0.22300  0.10830  0.84480  Biso   1.000  H
  O5       1.0000 0.36240  0.71060  0.02050  Biso   1.000  O
  O6       1.0000 0.63760  0.28940  0.97950  Biso   1.000  O
  O7       1.0000 0.24530  0.44860  0.54060  Biso   1.000  O
  O8       1.0000 0.75470  0.55140  0.45940  Biso   1.000  O
  H7       1.0000 0.20880  0.45810  0.51820  Biso   1.000  H
  H8       1.0000 0.79120  0.54190  0.48180  Biso   1.000  H
  H9       1.0000 0.28590  0.48210  0.55670  Biso   1.000  H
  H10      1.0000 0.71410  0.51790  0.44330  Biso   1.000  H
  H11      1.0000 0.25510  0.40840  0.51180  Biso   1.000  H
  H12      1.0000 0.74490  0.59160  0.48820  Biso   1.000  H
  O9       1.0000 0.31070  0.64120  0.08260  Biso   1.000  O
  O10      1.0000 0.68930  0.35880  0.91740  Biso   1.000  O
  O11      1.0000 0.25240  0.77890  0.20480  Biso   1.000  O
  O12      1.0000 0.74760  0.22110  0.79520  Biso   1.000  O
  H13      1.0000 0.28100  0.79000  0.18130  Biso   1.000  H
  H14      1.0000 0.71900  0.21000  0.81870  Biso   1.000  H
  H15      1.0000 0.20480  0.76760  0.18290  Biso   1.000  H
  H16      1.0000 0.79520  0.23240  0.81710  Biso   1.000  H
  H17      1.0000 0.25920  0.81500  0.24700  Biso   1.000  H
  H18      1.0000 0.74080  0.18500  0.75300  Biso   1.000  H
  O13      1.0000 0.45110  0.94240  0.08820  Biso   1.000  O
  O14      1.0000 0.54890  0.05760  0.91180  Biso   1.000  O
  O15      1.0000 0.62930  0.95580  0.31310  Biso   1.000  O
  O16      1.0000 0.37070  0.04420  0.68690  Biso   1.000  O
  O17      1.0000 0.57850  0.85710  0.06920  Biso   1.000  O
  O18      1.0000 0.42150  0.14290  0.93080  Biso   1.000  O
  O19      1.0000 0.35830  0.80970  0.99930  Biso   1.000  O
  O20      1.0000 0.64170  0.19030  0.00070  Biso   1.000  O
  O21      1.0000 0.58480  0.05650  0.31230  Biso   1.000  O
  O22      1.0000 0.41520  0.94350  0.68770  Biso   1.000  O
  O23      1.0000 0.42540  0.00790  0.20440  Biso   1.000  O
  O24      1.0000 0.57460  0.99210  0.79560  Biso   1.000  O
  O25      1.0000 0.41640  0.61460  0.02530  Biso   1.000  O
  O26      1.0000 0.58360  0.38540  0.97470  Biso   1.000  O
  O27      1.0000 0.63260  0.85610  0.33390  Biso   1.000  O
  O28      1.0000 0.36740  0.14390  0.66610  Biso   1.000  O
  O29      1.0000 0.54140  0.94900  0.18860  Biso   1.000  O
  O30      1.0000 0.45860  0.05100  0.81140  Biso   1.000  O
  O31      1.0000 0.54590  0.72040  0.24310  Biso   1.000  O
  O32      1.0000 0.45410  0.27960  0.75690  Biso   1.000  O
  O33      1.0000 0.53430  0.82770  0.21680  Biso   1.000  O
  O34      1.0000 0.46570  0.17230  0.78320  Biso   1.000  O
  O35      1.0000 0.41650  0.81040  0.26460  Biso   1.000  O
  O36      1.0000 0.58350  0.18960  0.73540  Biso   1.000  O
  O37      1.0000 0.56770  0.65910  0.12380  Biso   1.000  O
  O38      1.0000 0.43230  0.34090  0.87620  Biso   1.000  O
  O39      1.0000 0.24990  0.77320  0.03660  Biso   1.000  O
  O40      1.0000 0.75010  0.22680  0.96340  Biso   1.000  O
  O41      1.0000 0.56090  0.76320  0.10030  Biso   1.000  O
  O42      1.0000 0.43910  0.23680  0.89970  Biso   1.000  O
  O43      1.0000 0.43480  0.90440  0.23220  Biso   1.000  O
  O44      1.0000 0.56520  0.09560  0.76780  Biso   1.000  O
  O45      1.0000 0.45410  0.72150  0.14780  Biso   1.000  O
  O46      1.0000 0.54590  0.27850  0.85220  Biso   1.000  O
  O47      1.0000 0.74190  0.89240  0.29880  Biso   1.000  O
  O48      1.0000 0.25810  0.10760  0.70120  Biso   1.000  O
  O49      1.0000 0.46390  0.83900  0.11810  Biso   1.000  O
  O50      1.0000 0.53610  0.16100  0.88190  Biso   1.000  O
  O51      1.0000 0.63640  0.88730  0.19540  Biso   1.000  O
  O52      1.0000 0.36360  0.11270  0.80460  Biso   1.000  O
  O53      1.0000 0.34900  0.88270  0.12170  Biso   1.000  O
  O54      1.0000 0.65100  0.11730  0.87830  Biso   1.000  O
  O55      1.0000 0.64600  0.78360  0.21210  Biso   1.000  O
  O56      1.0000 0.35400  0.21640  0.78790  Biso   1.000  O
  O57      1.0000 0.35940  0.77860  0.13740  Biso   1.000  O
  O58      1.0000 0.64060  0.22140  0.86260  Biso   1.000  O
  O59      1.0000 0.74070  0.70220  0.06690  Biso   1.000  O
  O60      1.0000 0.25930  0.29780  0.93310  Biso   1.000  O
  O61      1.0000 0.25320  0.96440  0.26610  Biso   1.000  O
  O62      1.0000 0.74680  0.03560  0.73390  Biso   1.000  O
  O63      1.0000 0.04660  0.91680  0.05480  Biso   1.000  O
  O64      1.0000 0.95340  0.08320  0.94520  Biso   1.000  O
  O65      1.0000 0.95190  0.74820  0.27890  Biso   1.000  O
  O66      1.0000 0.04810  0.25180  0.72110  Biso   1.000  O
  O67      1.0000 0.81600  0.66660  0.14210  Biso   1.000  O
  O68      1.0000 0.18400  0.33340  0.85790  Biso   1.000  O
  O69      1.0000 0.17780  0.99920  0.19040  Biso   1.000  O
  O70      1.0000 0.82220  0.00080  0.80960  Biso   1.000  O
  O71      1.0000 0.94990  0.67990  0.97190  Biso   1.000  O
  O72      1.0000 0.05010  0.32010  0.02810  Biso   1.000  O
  O73      1.0000 0.77430  0.78760  0.18840  Biso   1.000  O
  O74      1.0000 0.22570  0.21240  0.81160  Biso   1.000  O
  H19      1.0000 0.73360  0.77160  0.18220  Biso   1.000  H
  H20      1.0000 0.26640  0.22840  0.81780  Biso   1.000  H
  O75      1.0000 0.22220  0.87880  0.14620  Biso   1.000  O
  O76      1.0000 0.77780  0.12120  0.85380  Biso   1.000  O
  H21      1.0000 0.26260  0.89540  0.15210  Biso   1.000  H
  H22      1.0000 0.73740  0.10460  0.84790  Biso   1.000  H
  O77      1.0000 0.91010  0.86090  0.31630  Biso   1.000  O
  O78      1.0000 0.08990  0.13910  0.68370  Biso   1.000  O
  O79      1.0000 0.08310  0.80100  0.01610  Biso   1.000  O
  O80      1.0000 0.91690  0.19900  0.98390  Biso   1.000  O
  O81      1.0000 0.82770  0.71040  0.95900  Biso   1.000  O
  O82      1.0000 0.17230  0.28960  0.04100  Biso   1.000  O
  O83      1.0000 0.94500  0.80630  0.01060  Biso   1.000  O
  O84      1.0000 0.05500  0.19370  0.98940  Biso   1.000  O
  O85      1.0000 0.16880  0.95650  0.37530  Biso   1.000  O
  O86      1.0000 0.83120  0.04350  0.62470  Biso   1.000  O
  O87      1.0000 0.04710  0.98780  0.36380  Biso   1.000  O
  O88      1.0000 0.95290  0.01220  0.63620  Biso   1.000  O
  O89      1.0000 0.03120  0.75700  0.19820  Biso   1.000  O
  O90      1.0000 0.96880  0.24300  0.80180  Biso   1.000  O
  O91      1.0000 0.05130  0.85970  0.32320  Biso   1.000  O
  O92      1.0000 0.94870  0.14030  0.67680  Biso   1.000  O
  O93      1.0000 0.87660  0.68560  0.05760  Biso   1.000  O
  O94      1.0000 0.12340  0.31440  0.94240  Biso   1.000  O
  O95      1.0000 0.96520  0.90830  0.13570  Biso   1.000  O
  O96      1.0000 0.03480  0.09170  0.86430  Biso   1.000  O
  O97      1.0000 0.11870  0.98040  0.27550  Biso   1.000  O
  O98      1.0000 0.88130  0.01960  0.72450  Biso   1.000  O
  O99      1.0000 0.87660  0.91040  0.21340  Biso   1.000  O
  O100     1.0000 0.12340  0.08960  0.78660  Biso   1.000  O
  O101     1.0000 0.11810  0.75420  0.12010  Biso   1.000  O
  O102     1.0000 0.88190  0.24580  0.87990  Biso   1.000  O
  O103     1.0000 0.09490  0.87840  0.14530  Biso   1.000  O
  O104     1.0000 0.90510  0.12160  0.85470  Biso   1.000  O
  O105     1.0000 0.00400  0.87440  0.23060  Biso   1.000  O
  O106     1.0000 0.99600  0.12560  0.76940  Biso   1.000  O
  O107     1.0000 0.90080  0.78770  0.18810  Biso   1.000  O
  O108     1.0000 0.09920  0.21230  0.81190  Biso   1.000  O
  O109     1.0000 0.13670  0.86430  0.24040  Biso   1.000  O
  O110     1.0000 0.86330  0.13570  0.75960  Biso   1.000  O
  O111     1.0000 0.99180  0.79140  0.10370  Biso   1.000  O
  O112     1.0000 0.00820  0.20860  0.89630  Biso   1.000  O
  O113     1.0000 0.85900  0.80140  0.09350  Biso   1.000  O
  O114     1.0000 0.14100  0.19860  0.90650  Biso   1.000  O
  O115     1.0000 0.19260  0.57990  0.69020  Biso   1.000  O
  O116     1.0000 0.80740  0.42010  0.30980  Biso   1.000  O
  O117     1.0000 0.13440  0.66380  0.52160  Biso   1.000  O
  O118     1.0000 0.86560  0.33620  0.47840  Biso   1.000  O
  O119     1.0000 0.13860  0.52510  0.55150  Biso   1.000  O
  O120     1.0000 0.86140  0.47490  0.44850  Biso   1.000  O
  O121     1.0000 0.13760  0.64430  0.62160  Biso   1.000  O
  O122     1.0000 0.86240  0.35570  0.37840  Biso   1.000  O
  O123     1.0000 0.95520  0.42510  0.61290  Biso   1.000  O
  O124     1.0000 0.04480  0.57490  0.38710  Biso   1.000  O
  O125     1.0000 0.04740  0.51910  0.61280  Biso   1.000  O
  O126     1.0000 0.95260  0.48090  0.38720  Biso   1.000  O
  O127     1.0000 0.93570  0.54520  0.67560  Biso   1.000  O
  O128     1.0000 0.06430  0.45480  0.32440  Biso   1.000  O
  O129     1.0000 0.06050  0.43100  0.42870  Biso   1.000  O
  O130     1.0000 0.93950  0.56900  0.57130  Biso   1.000  O
  O131     1.0000 0.09070  0.64230  0.72130  Biso   1.000  O
  O132     1.0000 0.90930  0.35770  0.27870  Biso   1.000  O
  O133     1.0000 0.14520  0.54040  0.44750  Biso   1.000  O
  O134     1.0000 0.85480  0.45960  0.55250  Biso   1.000  O
  O135     1.0000 0.24710  0.62550  0.55570  Biso   1.000  O
  O136     1.0000 0.75290  0.37450  0.44430  Biso   1.000  O
  O137     1.0000 0.03600  0.54900  0.49440  Biso   1.000  O
  O138     1.0000 0.96400  0.45100  0.50560  Biso   1.000  O
  O139     1.0000 0.08130  0.39950  0.52170  Biso   1.000  O
  O140     1.0000 0.91870  0.60050  0.47830  Biso   1.000  O
  O141     1.0000 0.67510  0.51770  0.66990  Biso   1.000  O
  O142     1.0000 0.32490  0.48230  0.33010  Biso   1.000  O
  O143     1.0000 0.75470  0.59710  0.64400  Biso   1.000  O
  O144     1.0000 0.24530  0.40290  0.35600  Biso   1.000  O
  O145     1.0000 0.72510  0.47770  0.55460  Biso   1.000  O
  O146     1.0000 0.27490  0.52230  0.44540  Biso   1.000  O
  H23      1.0000 0.70530  0.46470  0.51740  Biso   1.000  H
  H24      1.0000 0.29470  0.53530  0.48260  Biso   1.000  H
  O147     1.0000 0.41510  0.65370  0.52750  Biso   1.000  O
  O148     1.0000 0.58490  0.34630  0.47250  Biso   1.000  O
  O149     1.0000 0.67050  0.70470  0.62830  Biso   1.000  O
  O150     1.0000 0.32950  0.29530  0.37170  Biso   1.000  O
  O151     1.0000 0.45890  0.61590  0.41710  Biso   1.000  O
  O152     1.0000 0.54110  0.38410  0.58290  Biso   1.000  O
  O153     1.0000 0.53770  0.53230  0.42700  Biso   1.000  O
  O154     1.0000 0.46230  0.46770  0.57300  Biso   1.000  O
  O155     1.0000 0.55520  0.65640  0.53030  Biso   1.000  O
  O156     1.0000 0.44480  0.34360  0.46970  Biso   1.000  O
  O157     1.0000 0.54720  0.69680  0.65630  Biso   1.000  O
  O158     1.0000 0.45280  0.30320  0.34370  Biso   1.000  O
  O159     1.0000 0.61620  0.60540  0.65090  Biso   1.000  O
  O160     1.0000 0.38380  0.39460  0.34910  Biso   1.000  O
  O161     1.0000 0.62430  0.45320  0.42920  Biso   1.000  O
  O162     1.0000 0.37570  0.54680  0.57080  Biso   1.000  O
  O163     1.0000 0.50550  0.56340  0.54160  Biso   1.000  O
  O164     1.0000 0.49450  0.43660  0.45840  Biso   1.000  O
  O165     1.0000 0.63930  0.57200  0.53820  Biso   1.000  O
  O166     1.0000 0.36070  0.42800  0.46180  Biso   1.000  O
  O167     1.0000 0.40460  0.52410  0.45220  Biso   1.000  O
  O168     1.0000 0.59540  0.47590  0.54780  Biso   1.000  O
  N1       1.0000 0.12890  0.75200  0.31990  Biso   1.000  N
  N2       1.0000 0.87110  0.24800  0.68010  Biso   1.000  N
  N3       1.0000 0.18100  0.79500  0.32120  Biso   1.000  N
  N4       1.0000 0.81900  0.20500  0.67880  Biso   1.000  N
  H25      1.0000 0.18190  0.80450  0.29120  Biso   1.000  H
  H26      1.0000 0.81810  0.19550  0.70880  Biso   1.000  H
  N5       1.0000 0.30570  0.78190  0.54620  Biso   1.000  N
  N6       1.0000 0.69430  0.21810  0.45380  Biso   1.000  N
  N7       1.0000 0.30650  0.84530  0.57120  Biso   1.000  N
  N8       1.0000 0.69350  0.15470  0.42880  Biso   1.000  N
  H27      1.0000 0.32540  0.87340  0.61050  Biso   1.000  H
  H28      1.0000 0.67460  0.12660  0.38950  Biso   1.000  H
  N9       1.0000 0.99910  0.61610  0.18290  Biso   1.000  N
  N10      1.0000 0.00090  0.38390  0.81710  Biso   1.000  N
  N11      1.0000 0.94430  0.60970  0.13820  Biso   1.000  N
  N12      1.0000 0.05570  0.39030  0.86180  Biso   1.000  N
  H29      1.0000 0.93260  0.64100  0.13430  Biso   1.000  H
  H30      1.0000 0.06740  0.35900  0.86570  Biso   1.000  H
  N13      1.0000 0.89290  0.34330  0.07930  Biso   1.000  N
  N14      1.0000 0.10710  0.65670  0.92070  Biso   1.000  N
  N15      1.0000 0.90810  0.33860  0.02430  Biso   1.000  N
  N16      1.0000 0.09190  0.66140  0.97570  Biso   1.000  N
  H31      1.0000 0.90290  0.30290  0.98950  Biso   1.000  H
  H32      1.0000 0.09710  0.69710  0.01050  Biso   1.000  H
  N17      1.0000 0.82390  0.23970  0.17810  Biso   1.000  N
  N18      1.0000 0.17610  0.76030  0.82190  Biso   1.000  N
  H33      1.0000 0.84370  0.27780  0.20830  Biso   1.000  H
  H34      1.0000 0.15630  0.72220  0.79170  Biso   1.000  H
  N19      1.0000 0.82180  0.21800  0.11490  Biso   1.000  N
  N20      1.0000 0.17820  0.78200  0.88510  Biso   1.000  N
  N21      1.0000 0.70740  0.98010  0.10510  Biso   1.000  N
  N22      1.0000 0.29260  0.01990  0.89490  Biso   1.000  N
  H35      1.0000 0.71100  0.94750  0.11020  Biso   1.000  H
  H36      1.0000 0.28900  0.05250  0.88980  Biso   1.000  H
  N23      1.0000 0.65260  0.98220  0.06640  Biso   1.000  N
  N24      1.0000 0.34740  0.01780  0.93360  Biso   1.000  N
  N25      1.0000 0.51470  0.84980  0.93470  Biso   1.000  N
  N26      1.0000 0.48530  0.15020  0.06530  Biso   1.000  N
  N27      1.0000 0.45850  0.81010  0.93300  Biso   1.000  N
  N28      1.0000 0.54150  0.18990  0.06700  Biso   1.000  N
  H37      1.0000 0.44910  0.80930  0.96620  Biso   1.000  H
  H38      1.0000 0.55090  0.19070  0.03380  Biso   1.000  H
  N29      1.0000 0.38370  0.74020  0.66580  Biso   1.000  N
  N30      1.0000 0.61630  0.25980  0.33420  Biso   1.000  N
  N31      1.0000 0.39810  0.68500  0.66200  Biso   1.000  N
  N32      1.0000 0.60190  0.31500  0.33800  Biso   1.000  N
  H39      1.0000 0.38950  0.64900  0.62690  Biso   1.000  H
  H40      1.0000 0.61050  0.35100  0.37310  Biso   1.000  H
  N33      1.0000 0.99050  0.04460  0.14550  Biso   1.000  N
  N34      1.0000 0.00950  0.95540  0.85450  Biso   1.000  N
  N35      1.0000 0.04320  0.05410  0.19270  Biso   1.000  N
  N36      1.0000 0.95680  0.94590  0.80730  Biso   1.000  N
  H41      1.0000 0.05520  0.02380  0.19860  Biso   1.000  H
  H42      1.0000 0.94480  0.97620  0.80140  Biso   1.000  H
  N37      1.0000 0.08140  0.31610  0.24160  Biso   1.000  N
  N38      1.0000 0.91860  0.68390  0.75840  Biso   1.000  N
  N39      1.0000 0.06910  0.32340  0.29790  Biso   1.000  N
  N40      1.0000 0.93090  0.67660  0.70210  Biso   1.000  N
  H43      1.0000 0.07250  0.36000  0.33120  Biso   1.000  H
  H44      1.0000 0.92750  0.64000  0.66880  Biso   1.000  H
  N41      1.0000 0.81240  0.86480  0.00630  Biso   1.000  N
  N42      1.0000 0.18760  0.13520  0.99370  Biso   1.000  N
  H45      1.0000 0.81260  0.85380  0.03540  Biso   1.000  H
  H46      1.0000 0.18740  0.14620  0.96460  Biso   1.000  H
  N43      1.0000 0.86280  0.90910  0.00950  Biso   1.000  N
  N44      1.0000 0.13720  0.09090  0.99050  Biso   1.000  N
  N45      1.0000 0.69800  0.81140  0.75230  Biso   1.000  N
  N46      1.0000 0.30200  0.18860  0.24770  Biso   1.000  N
  H47      1.0000 0.68380  0.78310  0.71240  Biso   1.000  H
  H48      1.0000 0.31620  0.21690  0.28760  Biso   1.000  H
  N47      1.0000 0.68990  0.87310  0.77770  Biso   1.000  N
  N48      1.0000 0.31010  0.12690  0.22230  Biso   1.000  N
  N49      1.0000 0.59420  0.91200  0.66070  Biso   1.000  N
  N50      1.0000 0.40580  0.08800  0.33930  Biso   1.000  N
  N51      1.0000 0.58340  0.96830  0.66700  Biso   1.000  N
  N52      1.0000 0.41660  0.03170  0.33300  Biso   1.000  N
  H49      1.0000 0.59270  0.00340  0.70300  Biso   1.000  H
  H50      1.0000 0.40730  0.99660  0.29700  Biso   1.000  H
  N53      1.0000 0.47260  0.81090  0.39170  Biso   1.000  N
  N54      1.0000 0.52740  0.18910  0.60830  Biso   1.000  N
  N55      1.0000 0.52540  0.85550  0.39710  Biso   1.000  N
  N56      1.0000 0.47460  0.14450  0.60290  Biso   1.000  N
  H51      1.0000 0.53440  0.85940  0.36530  Biso   1.000  H
  H52      1.0000 0.46560  0.14060  0.63470  Biso   1.000  H
  N57      1.0000 0.33650  0.67730  0.26010  Biso   1.000  N
  N58      1.0000 0.66350  0.32270  0.73990  Biso   1.000  N
  N59      1.0000 0.28240  0.67610  0.21880  Biso   1.000  N
  N60      1.0000 0.71760  0.32390  0.78120  Biso   1.000  N
  H53      1.0000 0.27730  0.70740  0.21190  Biso   1.000  H
  H54      1.0000 0.72270  0.29260  0.78810  Biso   1.000  H
  N61      1.0000 0.17660  0.43570  0.20710  Biso   1.000  N
  N62      1.0000 0.82340  0.56430  0.79290  Biso   1.000  N
  N63      1.0000 0.18850  0.41360  0.14720  Biso   1.000  N
  N64      1.0000 0.81150  0.58640  0.85280  Biso   1.000  N
  H55      1.0000 0.17650  0.37400  0.11760  Biso   1.000  H
  H56      1.0000 0.82350  0.62600  0.88240  Biso   1.000  H
  N65      1.0000 0.45430  0.47330  0.27830  Biso   1.000  N
  N66      1.0000 0.54570  0.52670  0.72170  Biso   1.000  N
  H57      1.0000 0.44170  0.46820  0.30840  Biso   1.000  H
  H58      1.0000 0.55830  0.53180  0.69160  Biso   1.000  H
  N67      1.0000 0.50650  0.52210  0.28840  Biso   1.000  N
  N68      1.0000 0.49350  0.47790  0.71160  Biso   1.000  N
  N69      1.0000 0.42940  0.36550  0.01050  Biso   1.000  N
  N70      1.0000 0.57060  0.63450  0.98950  Biso   1.000  N
  H59      1.0000 0.42640  0.33120  0.97500  Biso   1.000  H
  H60      1.0000 0.57360  0.66880  0.02500  Biso   1.000  H
  N71      1.0000 0.41320  0.42050  0.01460  Biso   1.000  N
  N72      1.0000 0.58680  0.57950  0.98540  Biso   1.000  N
  N73      1.0000 0.33250  0.45330  0.88750  Biso   1.000  N
  N74      1.0000 0.66750  0.54670  0.11250  Biso   1.000  N
  N75      1.0000 0.33040  0.51600  0.90820  Biso   1.000  N
  N76      1.0000 0.66960  0.48400  0.09180  Biso   1.000  N
  H61      1.0000 0.34850  0.54630  0.94670  Biso   1.000  H
  H62      1.0000 0.65150  0.45370  0.05330  Biso   1.000  H
  N77      1.0000 0.15990  0.40080  0.65040  Biso   1.000  N
  N78      1.0000 0.84010  0.59920  0.34960  Biso   1.000  N
  N79      1.0000 0.21300  0.43890  0.64810  Biso   1.000  N
  N80      1.0000 0.78700  0.56110  0.35190  Biso   1.000  N
  H63      1.0000 0.21510  0.44360  0.61530  Biso   1.000  H
  H64      1.0000 0.78490  0.55640  0.38470  Biso   1.000  H
  N81      1.0000 0.02230  0.26870  0.51840  Biso   1.000  N
  N82      1.0000 0.97770  0.73130  0.48160  Biso   1.000  N
  N83      1.0000 0.96650  0.26660  0.47780  Biso   1.000  N
  N84      1.0000 0.03350  0.73340  0.52220  Biso   1.000  N
  H65      1.0000 0.95670  0.29960  0.47610  Biso   1.000  H
  H66      1.0000 0.04330  0.70040  0.52390  Biso   1.000  H
  N85      1.0000 0.89040  0.00110  0.41220  Biso   1.000  N
  N86      1.0000 0.10960  0.99890  0.58780  Biso   1.000  N
  N87      1.0000 0.89890  0.99620  0.35630  Biso   1.000  N
  N88      1.0000 0.10110  0.00380  0.64370  Biso   1.000  N
  H67      1.0000 0.88670  0.96100  0.32030  Biso   1.000  H
  H68      1.0000 0.11330  0.03900  0.67970  Biso   1.000  H
  N89      1.0000 0.79480  0.91560  0.51720  Biso   1.000  N
  N90      1.0000 0.20520  0.08440  0.48280  Biso   1.000  N
  H69      1.0000 0.81070  0.95550  0.54500  Biso   1.000  H
  H70      1.0000 0.18930  0.04450  0.45500  Biso   1.000  H
  N91      1.0000 0.79820  0.88950  0.45460  Biso   1.000  N
  N92      1.0000 0.20180  0.11050  0.54540  Biso   1.000  N
  N93      1.0000 0.68570  0.66330  0.46820  Biso   1.000  N
  N94      1.0000 0.31430  0.33670  0.53180  Biso   1.000  N
  H71      1.0000 0.68820  0.63390  0.47860  Biso   1.000  H
  H72      1.0000 0.31180  0.36610  0.52140  Biso   1.000  H
  N95      1.0000 0.63230  0.66050  0.42460  Biso   1.000  N
  N96      1.0000 0.36770  0.33950  0.57540  Biso   1.000  N
  C1       1.0000 0.09930  0.70940  0.38910  Biso   1.000  C
  C2       1.0000 0.90070  0.29060  0.61090  Biso   1.000  C
  H73      1.0000 0.05810  0.68740  0.35550  Biso   1.000  H
  H74      1.0000 0.94190  0.31260  0.64450  Biso   1.000  H
  H75      1.0000 0.08720  0.73580  0.42870  Biso   1.000  H
  H76      1.0000 0.91280  0.26420  0.57130  Biso   1.000  H
  H77      1.0000 0.12260  0.67860  0.39320  Biso   1.000  H
  H78      1.0000 0.87740  0.32140  0.60680  Biso   1.000  H
  C3       1.0000 0.14580  0.75060  0.37330  Biso   1.000  C
  C4       1.0000 0.85420  0.24940  0.62670  Biso   1.000  C
  C5       1.0000 0.21180  0.79130  0.40960  Biso   1.000  C
  C6       1.0000 0.78820  0.20870  0.59040  Biso   1.000  C
  C7       1.0000 0.23070  0.82080  0.37530  Biso   1.000  C
  C8       1.0000 0.76930  0.17920  0.62470  Biso   1.000  C
  C9       1.0000 0.29270  0.86880  0.38670  Biso   1.000  C
  C10      1.0000 0.70730  0.13120  0.61330  Biso   1.000  C
  H79      1.0000 0.28800  0.87870  0.35250  Biso   1.000  H
  H80      1.0000 0.71200  0.12130  0.64750  Biso   1.000  H
  H81      1.0000 0.33310  0.85150  0.38850  Biso   1.000  H
  H82      1.0000 0.66690  0.14850  0.61150  Biso   1.000  H
  H83      1.0000 0.29700  0.90720  0.42660  Biso   1.000  H
  H84      1.0000 0.70300  0.09280  0.57340  Biso   1.000  H
  C11      1.0000 0.26100  0.68490  0.44190  Biso   1.000  C
  C12      1.0000 0.73900  0.31510  0.55810  Biso   1.000  C
  H85      1.0000 0.28000  0.66580  0.46580  Biso   1.000  H
  H86      1.0000 0.72000  0.33420  0.53420  Biso   1.000  H
  H87      1.0000 0.28490  0.67830  0.40840  Biso   1.000  H
  H88      1.0000 0.71510  0.32170  0.59160  Biso   1.000  H
  H89      1.0000 0.21290  0.66550  0.42330  Biso   1.000  H
  H90      1.0000 0.78710  0.33450  0.57670  Biso   1.000  H
  C13      1.0000 0.26930  0.75490  0.48530  Biso   1.000  C
  C14      1.0000 0.73070  0.24510  0.51470  Biso   1.000  C
  C15      1.0000 0.24930  0.80230  0.47200  Biso   1.000  C
  C16      1.0000 0.75070  0.19770  0.52800  Biso   1.000  C
  C17      1.0000 0.27460  0.85990  0.52810  Biso   1.000  C
  C18      1.0000 0.72540  0.14010  0.47190  Biso   1.000  C
  C19      1.0000 0.26930  0.92660  0.54700  Biso   1.000  C
  C20      1.0000 0.73070  0.07340  0.45300  Biso   1.000  C
  H91      1.0000 0.29380  0.95450  0.59080  Biso   1.000  H
  H92      1.0000 0.70620  0.04550  0.40920  Biso   1.000  H
  H93      1.0000 0.22170  0.92930  0.54260  Biso   1.000  H
  H94      1.0000 0.77830  0.07070  0.45740  Biso   1.000  H
  H95      1.0000 0.28910  0.93950  0.51980  Biso   1.000  H
  H96      1.0000 0.71090  0.06050  0.48020  Biso   1.000  H
  C21      1.0000 0.05260  0.54480  0.21430  Biso   1.000  C
  C22      1.0000 0.94740  0.45520  0.78570  Biso   1.000  C
  H97      1.0000 0.08260  0.58480  0.24660  Biso   1.000  H
  H98      1.0000 0.91740  0.41520  0.75340  Biso   1.000  H
  H99      1.0000 0.07930  0.51720  0.18820  Biso   1.000  H
  H100     1.0000 0.92070  0.48280  0.81180  Biso   1.000  H
  H101     1.0000 0.02980  0.52450  0.23450  Biso   1.000  H
  H102     1.0000 0.97020  0.47550  0.76550  Biso   1.000  H
  C23      1.0000 0.99990  0.55710  0.17320  Biso   1.000  C
  C24      1.0000 0.00010  0.44290  0.82680  Biso   1.000  C
  C25      1.0000 0.94640  0.51190  0.12080  Biso   1.000  C
  C26      1.0000 0.05360  0.48810  0.87920  Biso   1.000  C
  C27      1.0000 0.91030  0.54670  0.10040  Biso   1.000  C
  C28      1.0000 0.08970  0.45330  0.89960  Biso   1.000  C
  C29      1.0000 0.84810  0.52690  0.04850  Biso   1.000  C
  C30      1.0000 0.15190  0.47310  0.95150  Biso   1.000  C
  H103     1.0000 0.83670  0.56410  0.04790  Biso   1.000  H
  H104     1.0000 0.16330  0.43590  0.95210  Biso   1.000  H
  H105     1.0000 0.81010  0.50510  0.05610  Biso   1.000  H
  H106     1.0000 0.18990  0.49490  0.94390  Biso   1.000  H
  H107     1.0000 0.85720  0.49850  0.00800  Biso   1.000  H
  H108     1.0000 0.14280  0.50150  0.99200  Biso   1.000  H
  C31      1.0000 0.89710  0.43080  0.18740  Biso   1.000  C
  C32      1.0000 0.10290  0.56920  0.81260  Biso   1.000  C
  H109     1.0000 0.88010  0.39520  0.19300  Biso   1.000  H
  H110     1.0000 0.11990  0.60480  0.80700  Biso   1.000  H
  H111     1.0000 0.86510  0.45860  0.19560  Biso   1.000  H
  H112     1.0000 0.13490  0.54140  0.80440  Biso   1.000  H
  H113     1.0000 0.94110  0.45420  0.21660  Biso   1.000  H
  H114     1.0000 0.05890  0.54580  0.78340  Biso   1.000  H
  C33      1.0000 0.90520  0.40640  0.12030  Biso   1.000  C
  C34      1.0000 0.09480  0.59360  0.87970  Biso   1.000  C
  C35      1.0000 0.92910  0.44200  0.09180  Biso   1.000  C
  C36      1.0000 0.07090  0.55800  0.90820  Biso   1.000  C
  C37      1.0000 0.93200  0.39580  0.03110  Biso   1.000  C
  C38      1.0000 0.06800  0.60420  0.96890  Biso   1.000  C
  C39      1.0000 0.96010  0.40270  0.98070  Biso   1.000  C
  C40      1.0000 0.03990  0.59730  0.01930  Biso   1.000  C
  H115     1.0000 0.95420  0.36110  0.94390  Biso   1.000  H
  H116     1.0000 0.04580  0.63890  0.05610  Biso   1.000  H
  H117     1.0000 0.00830  0.42270  0.99690  Biso   1.000  H
  H118     1.0000 0.99170  0.57730  0.00310  Biso   1.000  H
  H119     1.0000 0.93600  0.42890  0.96860  Biso   1.000  H
  H120     1.0000 0.06400  0.57110  0.03140  Biso   1.000  H
  C41      1.0000 0.78600  0.20740  0.25370  Biso   1.000  C
  C42      1.0000 0.21400  0.79260  0.74630  Biso   1.000  C
  H121     1.0000 0.80910  0.25090  0.28430  Biso   1.000  H
  H122     1.0000 0.19090  0.74910  0.71570  Biso   1.000  H
  H123     1.0000 0.80730  0.17860  0.26370  Biso   1.000  H
  H124     1.0000 0.19270  0.82140  0.73630  Biso   1.000  H
  H125     1.0000 0.73830  0.20130  0.25550  Biso   1.000  H
  H126     1.0000 0.26170  0.79870  0.74450  Biso   1.000  H
  C43      1.0000 0.79100  0.19400  0.18720  Biso   1.000  C
  C44      1.0000 0.20900  0.80600  0.81280  Biso   1.000  C
  C45      1.0000 0.76620  0.13950  0.12820  Biso   1.000  C
  C46      1.0000 0.23380  0.86050  0.87180  Biso   1.000  C
  C47      1.0000 0.78760  0.15610  0.08470  Biso   1.000  C
  C48      1.0000 0.21240  0.84390  0.91530  Biso   1.000  C
  C49      1.0000 0.77950  0.11580  0.01490  Biso   1.000  C
  C50      1.0000 0.22050  0.88420  0.98510  Biso   1.000  C
  H127     1.0000 0.79950  0.14120  0.99820  Biso   1.000  H
  H128     1.0000 0.20050  0.85880  0.00180  Biso   1.000  H
  H129     1.0000 0.73130  0.09910  0.99450  Biso   1.000  H
  H130     1.0000 0.26870  0.90090  0.00550  Biso   1.000  H
  H131     1.0000 0.80230  0.08090  0.00670  Biso   1.000  H
  H132     1.0000 0.19770  0.91910  0.99330  Biso   1.000  H
  C51      1.0000 0.81900  0.04530  0.18170  Biso   1.000  C
  C52      1.0000 0.18100  0.95470  0.81830  Biso   1.000  C
  H133     1.0000 0.81930  0.00720  0.18490  Biso   1.000  H
  H134     1.0000 0.18070  0.99280  0.81510  Biso   1.000  H
  H135     1.0000 0.81950  0.08060  0.22280  Biso   1.000  H
  H136     1.0000 0.18050  0.91940  0.77720  Biso   1.000  H
  H137     1.0000 0.85900  0.05490  0.16760  Biso   1.000  H
  H138     1.0000 0.14100  0.94510  0.83240  Biso   1.000  H
  C53      1.0000 0.75540  0.03510  0.13450  Biso   1.000  C
  C54      1.0000 0.24460  0.96490  0.86550  Biso   1.000  C
  C55      1.0000 0.73040  0.07460  0.11300  Biso   1.000  C
  C56      1.0000 0.26960  0.92540  0.88700  Biso   1.000  C
  C57      1.0000 0.66630  0.04040  0.07240  Biso   1.000  C
  C58      1.0000 0.33370  0.95960  0.92760  Biso   1.000  C
  C59      1.0000 0.61400  0.05860  0.03630  Biso   1.000  C
  C60      1.0000 0.38600  0.94140  0.96370  Biso   1.000  C
  H139     1.0000 0.57480  0.02340  0.01220  Biso   1.000  H
  H140     1.0000 0.42520  0.97660  0.98780  Biso   1.000  H
  H141     1.0000 0.63430  0.06860  0.00760  Biso   1.000  H
  H142     1.0000 0.36570  0.93140  0.99240  Biso   1.000  H
  H143     1.0000 0.59940  0.09540  0.06610  Biso   1.000  H
  H144     1.0000 0.40060  0.90460  0.93390  Biso   1.000  H
  C61      1.0000 0.35380  0.72740  0.85700  Biso   1.000  C
  C62      1.0000 0.64620  0.27260  0.14300  Biso   1.000  C
  H145     1.0000 0.34450  0.72960  0.89570  Biso   1.000  H
  H146     1.0000 0.65550  0.27040  0.10430  Biso   1.000  H
  H147     1.0000 0.35710  0.68450  0.82810  Biso   1.000  H
  H148     1.0000 0.64290  0.31550  0.17190  Biso   1.000  H
  H149     1.0000 0.31700  0.73890  0.83730  Biso   1.000  H
  H150     1.0000 0.68300  0.26110  0.16270  Biso   1.000  H
  C63      1.0000 0.41950  0.77220  0.87250  Biso   1.000  C
  C64      1.0000 0.58050  0.22780  0.12750  Biso   1.000  C
  C65      1.0000 0.45380  0.78540  0.83360  Biso   1.000  C
  C66      1.0000 0.54620  0.21460  0.16640  Biso   1.000  C
  C67      1.0000 0.51140  0.83410  0.87380  Biso   1.000  C
  C68      1.0000 0.48860  0.16590  0.12620  Biso   1.000  C
  C69      1.0000 0.56450  0.86780  0.85670  Biso   1.000  C
  C70      1.0000 0.43550  0.13220  0.14330  Biso   1.000  C
  H151     1.0000 0.59760  0.89960  0.89490  Biso   1.000  H
  H152     1.0000 0.40240  0.10040  0.10510  Biso   1.000  H
  H153     1.0000 0.54280  0.88830  0.83550  Biso   1.000  H
  H154     1.0000 0.45720  0.11170  0.16450  Biso   1.000  H
  H155     1.0000 0.58740  0.83740  0.82860  Biso   1.000  H
  H156     1.0000 0.41260  0.16260  0.17140  Biso   1.000  H
  C71      1.0000 0.45400  0.64180  0.72680  Biso   1.000  C
  C72      1.0000 0.54600  0.35820  0.27320  Biso   1.000  C
  H157     1.0000 0.44330  0.60300  0.68620  Biso   1.000  H
  H158     1.0000 0.55670  0.39700  0.31380  Biso   1.000  H
  H159     1.0000 0.43310  0.63420  0.75660  Biso   1.000  H
  H160     1.0000 0.56690  0.36580  0.24340  Biso   1.000  H
  H161     1.0000 0.50310  0.65530  0.74300  Biso   1.000  H
  H162     1.0000 0.49690  0.34470  0.25700  Biso   1.000  H
  C73      1.0000 0.42660  0.69310  0.71860  Biso   1.000  C
  C74      1.0000 0.57340  0.30690  0.28140  Biso   1.000  C
  C75      1.0000 0.42940  0.75600  0.76300  Biso   1.000  C
  C76      1.0000 0.57060  0.24400  0.23700  Biso   1.000  C
  C77      1.0000 0.40340  0.78370  0.72850  Biso   1.000  C
  C78      1.0000 0.59660  0.21630  0.27150  Biso   1.000  C
  C79      1.0000 0.39820  0.85160  0.75200  Biso   1.000  C
  C80      1.0000 0.60180  0.14840  0.24800  Biso   1.000  C
  H163     1.0000 0.37820  0.85660  0.71660  Biso   1.000  H
  H164     1.0000 0.62180  0.14340  0.28340  Biso   1.000  H
  H165     1.0000 0.44340  0.87890  0.77220  Biso   1.000  H
  H166     1.0000 0.55660  0.12110  0.22780  Biso   1.000  H
  H167     1.0000 0.36960  0.86310  0.78250  Biso   1.000  H
  H168     1.0000 0.63040  0.13690  0.21750  Biso   1.000  H
  C81      1.0000 0.13400  0.13750  0.28360  Biso   1.000  C
  C82      1.0000 0.86600  0.86250  0.71640  Biso   1.000  C
  H169     1.0000 0.14710  0.10100  0.28490  Biso   1.000  H
  H170     1.0000 0.85290  0.89900  0.71510  Biso   1.000  H
  H171     1.0000 0.12160  0.16430  0.32290  Biso   1.000  H
  H172     1.0000 0.87840  0.83570  0.67710  Biso   1.000  H
  H173     1.0000 0.17220  0.16140  0.27840  Biso   1.000  H
  H174     1.0000 0.82780  0.83860  0.72160  Biso   1.000  H
  C83      1.0000 0.07420  0.11530  0.22890  Biso   1.000  C
  C84      1.0000 0.92580  0.88470  0.77110  Biso   1.000  C
  C85      1.0000 0.03740  0.14930  0.20760  Biso   1.000  C
  C86      1.0000 0.96260  0.85070  0.79240  Biso   1.000  C
  C87      1.0000 0.98580  0.10270  0.15390  Biso   1.000  C
  C88      1.0000 0.01420  0.89730  0.84610  Biso   1.000  C
  C89      1.0000 0.93390  0.11050  0.10860  Biso   1.000  C
  C90      1.0000 0.06610  0.88950  0.89140  Biso   1.000  C
  H175     1.0000 0.90600  0.06920  0.07690  Biso   1.000  H
  H176     1.0000 0.09400  0.93080  0.92310  Biso   1.000  H
  H177     1.0000 0.95740  0.12980  0.08790  Biso   1.000  H
  H178     1.0000 0.04260  0.87020  0.91210  Biso   1.000  H
  H179     1.0000 0.90500  0.13750  0.13180  Biso   1.000  H
  H180     1.0000 0.09500  0.86250  0.86820  Biso   1.000  H
  C91      1.0000 0.03130  0.26240  0.34950  Biso   1.000  C
  C92      1.0000 0.96870  0.73760  0.65050  Biso   1.000  C
  H181     1.0000 0.03710  0.30480  0.38500  Biso   1.000  H
  H182     1.0000 0.96290  0.69520  0.61500  Biso   1.000  H
  H183     1.0000 0.06000  0.23910  0.36180  Biso   1.000  H
  H184     1.0000 0.94000  0.76090  0.63820  Biso   1.000  H
  H185     1.0000 0.98380  0.24040  0.33700  Biso   1.000  H
  H186     1.0000 0.01620  0.75960  0.66300  Biso   1.000  H
  C93      1.0000 0.05100  0.26680  0.29510  Biso   1.000  C
  C94      1.0000 0.94900  0.73320  0.70490  Biso   1.000  C
  C95      1.0000 0.05130  0.21960  0.23390  Biso   1.000  C
  C96      1.0000 0.94870  0.78040  0.76610  Biso   1.000  C
  C97      1.0000 0.06910  0.25280  0.20180  Biso   1.000  C
  C98      1.0000 0.93090  0.74720  0.79820  Biso   1.000  C
  C99      1.0000 0.07560  0.22740  0.13410  Biso   1.000  C
  C100     1.0000 0.92440  0.77260  0.86590  Biso   1.000  C
  H187     1.0000 0.08850  0.26260  0.12670  Biso   1.000  H
  H188     1.0000 0.91150  0.73740  0.87330  Biso   1.000  H
  H189     1.0000 0.03220  0.20100  0.10550  Biso   1.000  H
  H190     1.0000 0.96780  0.79900  0.89450  Biso   1.000  H
  H191     1.0000 0.11040  0.20230  0.12660  Biso   1.000  H
  H192     1.0000 0.88960  0.79770  0.87340  Biso   1.000  H
  C101     1.0000 0.69830  0.79090  0.93990  Biso   1.000  C
  C102     1.0000 0.30170  0.20910  0.06010  Biso   1.000  C
  H193     1.0000 0.70130  0.78070  0.97390  Biso   1.000  H
  H194     1.0000 0.29870  0.21930  0.02610  Biso   1.000  H
  H195     1.0000 0.69510  0.75270  0.90010  Biso   1.000  H
  H196     1.0000 0.30490  0.24730  0.09990  Biso   1.000  H
  H197     1.0000 0.65820  0.80830  0.93690  Biso   1.000  H
  H198     1.0000 0.34180  0.19170  0.06310  Biso   1.000  H
  C103     1.0000 0.76180  0.83970  0.95350  Biso   1.000  C
  C104     1.0000 0.23820  0.16030  0.04650  Biso   1.000  C
  C105     1.0000 0.78150  0.86950  0.91910  Biso   1.000  C
  C106     1.0000 0.21850  0.13050  0.08090  Biso   1.000  C
  C107     1.0000 0.84450  0.91290  0.95630  Biso   1.000  C
  C108     1.0000 0.15550  0.08710  0.04370  Biso   1.000  C
  C109     1.0000 0.88920  0.95620  0.94190  Biso   1.000  C
  C110     1.0000 0.11080  0.04380  0.05810  Biso   1.000  C
  H199     1.0000 0.92910  0.98010  0.97670  Biso   1.000  H
  H200     1.0000 0.07090  0.01990  0.02330  Biso   1.000  H
  H201     1.0000 0.86380  0.98530  0.93660  Biso   1.000  H
  H202     1.0000 0.13620  0.01470  0.06340  Biso   1.000  H
  H203     1.0000 0.90360  0.93100  0.90320  Biso   1.000  H
  H204     1.0000 0.09640  0.06900  0.09680  Biso   1.000  H
  C111     1.0000 0.74640  0.73540  0.77910  Biso   1.000  C
  C112     1.0000 0.25360  0.26460  0.22090  Biso   1.000  C
  H205     1.0000 0.72840  0.70740  0.73390  Biso   1.000  H
  H206     1.0000 0.27160  0.29260  0.26610  Biso   1.000  H
  H207     1.0000 0.72510  0.71790  0.80230  Biso   1.000  H
  H208     1.0000 0.27490  0.28210  0.19770  Biso   1.000  H
  H209     1.0000 0.79540  0.73930  0.78930  Biso   1.000  H
  H210     1.0000 0.20460  0.26070  0.21070  Biso   1.000  H
  C113     1.0000 0.73100  0.80020  0.79760  Biso   1.000  C
  C114     1.0000 0.26900  0.19980  0.20240  Biso   1.000  C
  C115     1.0000 0.74420  0.85680  0.85440  Biso   1.000  C
  C116     1.0000 0.25580  0.14320  0.14560  Biso   1.000  C
  C117     1.0000 0.71990  0.90160  0.84010  Biso   1.000  C
  C118     1.0000 0.28010  0.09840  0.15990  Biso   1.000  C
  C119     1.0000 0.71870  0.96980  0.88380  Biso   1.000  C
  C120     1.0000 0.28130  0.03020  0.11620  Biso   1.000  C
  H211     1.0000 0.69860  0.98780  0.85920  Biso   1.000  H
  H212     1.0000 0.30140  0.01220  0.14080  Biso   1.000  H
  H213     1.0000 0.76500  0.99370  0.90630  Biso   1.000  H
  H214     1.0000 0.23500  0.00630  0.09370  Biso   1.000  H
  H215     1.0000 0.69170  0.97170  0.91400  Biso   1.000  H
  H216     1.0000 0.30830  0.02830  0.08600  Biso   1.000  H
  C121     1.0000 0.57720  0.80130  0.57280  Biso   1.000  C
  C122     1.0000 0.42280  0.19870  0.42720  Biso   1.000  C
  H217     1.0000 0.59520  0.79510  0.60800  Biso   1.000  H
  H218     1.0000 0.40480  0.20490  0.39200  Biso   1.000  H
  H219     1.0000 0.60690  0.78980  0.54320  Biso   1.000  H
  H220     1.0000 0.39310  0.21020  0.45680  Biso   1.000  H
  H221     1.0000 0.53170  0.77480  0.55130  Biso   1.000  H
  H222     1.0000 0.46830  0.22520  0.44870  Biso   1.000  H
  C123     1.0000 0.57400  0.86890  0.59700  Biso   1.000  C
  C124     1.0000 0.42600  0.13110  0.40300  Biso   1.000  C
  C125     1.0000 0.55170  0.90130  0.56470  Biso   1.000  C
  C126     1.0000 0.44830  0.09870  0.43530  Biso   1.000  C
  C127     1.0000 0.55660  0.96330  0.61050  Biso   1.000  C
  C128     1.0000 0.44340  0.03670  0.38950  Biso   1.000  C
  C129     1.0000 0.53710  0.02010  0.60690  Biso   1.000  C
  C130     1.0000 0.46290  0.97990  0.39310  Biso   1.000  C
  H223     1.0000 0.51890  0.00790  0.56290  Biso   1.000  H
  H224     1.0000 0.48110  0.99210  0.43710  Biso   1.000  H
  H225     1.0000 0.57710  0.05430  0.62440  Biso   1.000  H
  H226     1.0000 0.42290  0.94570  0.37560  Biso   1.000  H
  H227     1.0000 0.50270  0.03420  0.63100  Biso   1.000  H
  H228     1.0000 0.49730  0.96580  0.36900  Biso   1.000  H
  C131     1.0000 0.42340  0.78260  0.46490  Biso   1.000  C
  C132     1.0000 0.57660  0.21740  0.53510  Biso   1.000  C
  H229     1.0000 0.39220  0.75030  0.42560  Biso   1.000  H
  H230     1.0000 0.60780  0.24970  0.57440  Biso   1.000  H
  H231     1.0000 0.39790  0.80990  0.49280  Biso   1.000  H
  H232     1.0000 0.60210  0.19010  0.50720  Biso   1.000  H
  H233     1.0000 0.44710  0.76230  0.48530  Biso   1.000  H
  H234     1.0000 0.55290  0.23770  0.51470  Biso   1.000  H
  C133     1.0000 0.47480  0.82170  0.45090  Biso   1.000  C
  C134     1.0000 0.52520  0.17830  0.54910  Biso   1.000  C
  C135     1.0000 0.52940  0.87310  0.49410  Biso   1.000  C
  C136     1.0000 0.47060  0.12690  0.50590  Biso   1.000  C
  C137     1.0000 0.56170  0.89280  0.45770  Biso   1.000  C
  C138     1.0000 0.43830  0.10720  0.54230  Biso   1.000  C
  C139     1.0000 0.62520  0.94400  0.47600  Biso   1.000  C
  C140     1.0000 0.37480  0.05600  0.52400  Biso   1.000  C
  H235     1.0000 0.63350  0.94500  0.43840  Biso   1.000  H
  H236     1.0000 0.36650  0.05500  0.56160  Biso   1.000  H
  H237     1.0000 0.66440  0.93460  0.49520  Biso   1.000  H
  H238     1.0000 0.33560  0.06540  0.50480  Biso   1.000  H
  H239     1.0000 0.61820  0.98510  0.50600  Biso   1.000  H
  H240     1.0000 0.38180  0.01490  0.49400  Biso   1.000  H
  C141     1.0000 0.37600  0.60380  0.29440  Biso   1.000  C
  C142     1.0000 0.62400  0.39620  0.70560  Biso   1.000  C
  H241     1.0000 0.41360  0.64030  0.32040  Biso   1.000  H
  H242     1.0000 0.58640  0.35970  0.67960  Biso   1.000  H
  H243     1.0000 0.39340  0.56820  0.26610  Biso   1.000  H
  H244     1.0000 0.60660  0.43180  0.73390  Biso   1.000  H
  H245     1.0000 0.35400  0.59250  0.32150  Biso   1.000  H
  H246     1.0000 0.64600  0.40750  0.67850  Biso   1.000  H
  C143     1.0000 0.32490  0.61990  0.25590  Biso   1.000  C
  C144     1.0000 0.67510  0.38010  0.74410  Biso   1.000  C
  C145     1.0000 0.26360  0.58180  0.21260  Biso   1.000  C
  C146     1.0000 0.73640  0.41820  0.78740  Biso   1.000  C
  C147     1.0000 0.23810  0.61980  0.19050  Biso   1.000  C
  C148     1.0000 0.76190  0.38020  0.80950  Biso   1.000  C
  C149     1.0000 0.17570  0.60640  0.14100  Biso   1.000  C
  C150     1.0000 0.82430  0.39360  0.85900  Biso   1.000  C
  H247     1.0000 0.17330  0.64420  0.13750  Biso   1.000  H
  H248     1.0000 0.82670  0.35580  0.86250  Biso   1.000  H
  H249     1.0000 0.13520  0.59430  0.15320  Biso   1.000  H
  H250     1.0000 0.86480  0.40570  0.84680  Biso   1.000  H
  H251     1.0000 0.17820  0.57200  0.10050  Biso   1.000  H
  H252     1.0000 0.82180  0.42800  0.89950  Biso   1.000  H
  C151     1.0000 0.20000  0.54070  0.30540  Biso   1.000  C
  C152     1.0000 0.80000  0.45930  0.69460  Biso   1.000  C
  H253     1.0000 0.17760  0.51470  0.32050  Biso   1.000  H
  H254     1.0000 0.82240  0.48530  0.67950  Biso   1.000  H
  H255     1.0000 0.17460  0.57280  0.30830  Biso   1.000  H
  H256     1.0000 0.82540  0.42720  0.69170  Biso   1.000  H
  H257     1.0000 0.24610  0.56110  0.33120  Biso   1.000  H
  H258     1.0000 0.75390  0.43890  0.66880  Biso   1.000  H
  C153     1.0000 0.20270  0.49970  0.23790  Biso   1.000  C
  C154     1.0000 0.79730  0.50030  0.76210  Biso   1.000  C
  C155     1.0000 0.23080  0.51670  0.19730  Biso   1.000  C
  C156     1.0000 0.76920  0.48330  0.80270  Biso   1.000  C
  C157     1.0000 0.22110  0.46070  0.13990  Biso   1.000  C
  C158     1.0000 0.77890  0.53930  0.86010  Biso   1.000  C
  C159     1.0000 0.24030  0.44450  0.07830  Biso   1.000  C
  C160     1.0000 0.75970  0.55550  0.92170  Biso   1.000  C
  H259     1.0000 0.22440  0.39920  0.04920  Biso   1.000  H
  H260     1.0000 0.77560  0.60080  0.95080  Biso   1.000  H
  H261     1.0000 0.28960  0.45580  0.08550  Biso   1.000  H
  H262     1.0000 0.71040  0.54420  0.91450  Biso   1.000  H
  H263     1.0000 0.21940  0.46790  0.06010  Biso   1.000  H
  H264     1.0000 0.78060  0.53210  0.93990  Biso   1.000  H
  C161     1.0000 0.36450  0.38100  0.19310  Biso   1.000  C
  C162     1.0000 0.63550  0.61900  0.80690  Biso   1.000  C
  H265     1.0000 0.35430  0.37750  0.22900  Biso   1.000  H
  H266     1.0000 0.64570  0.62250  0.77100  Biso   1.000  H
  H267     1.0000 0.37480  0.34160  0.16310  Biso   1.000  H
  H268     1.0000 0.62520  0.65840  0.83690  Biso   1.000  H
  H269     1.0000 0.32540  0.38930  0.17250  Biso   1.000  H
  H270     1.0000 0.67460  0.61070  0.82750  Biso   1.000  H
  C163     1.0000 0.42570  0.43510  0.21590  Biso   1.000  C
  C164     1.0000 0.57430  0.56490  0.78410  Biso   1.000  C
  C165     1.0000 0.45910  0.45810  0.18260  Biso   1.000  C
  C166     1.0000 0.54090  0.54190  0.81740  Biso   1.000  C
  C167     1.0000 0.50830  0.51270  0.23010  Biso   1.000  C
  C168     1.0000 0.49170  0.48730  0.76990  Biso   1.000  C
  C169     1.0000 0.55860  0.55820  0.22240  Biso   1.000  C
  C170     1.0000 0.44140  0.44180  0.77760  Biso   1.000  C
  H271     1.0000 0.58530  0.59100  0.26380  Biso   1.000  H
  H272     1.0000 0.41470  0.40900  0.73620  Biso   1.000  H
  H273     1.0000 0.53390  0.57750  0.20140  Biso   1.000  H
  H274     1.0000 0.46610  0.42250  0.79860  Biso   1.000  H
  H275     1.0000 0.58870  0.53520  0.19700  Biso   1.000  H
  H276     1.0000 0.41130  0.46480  0.80300  Biso   1.000  H
  C171     1.0000 0.47050  0.31530  0.07160  Biso   1.000  C
  C172     1.0000 0.52950  0.68470  0.92840  Biso   1.000  C
  H277     1.0000 0.46710  0.28060  0.02930  Biso   1.000  H
  H278     1.0000 0.53290  0.71940  0.97070  Biso   1.000  H
  H279     1.0000 0.44040  0.30140  0.09230  Biso   1.000  H
  H280     1.0000 0.55960  0.69860  0.90770  Biso   1.000  H
  H281     1.0000 0.51720  0.32800  0.09600  Biso   1.000  H
  H282     1.0000 0.48280  0.67200  0.90400  Biso   1.000  H
  C173     1.0000 0.45000  0.37100  0.06730  Biso   1.000  C
  C174     1.0000 0.55000  0.62900  0.93270  Biso   1.000  C
  C175     1.0000 0.44550  0.43170  0.11350  Biso   1.000  C
  C176     1.0000 0.55450  0.56830  0.88650  Biso   1.000  C
  C177     1.0000 0.42350  0.46060  0.07760  Biso   1.000  C
  C178     1.0000 0.57650  0.53940  0.92240  Biso   1.000  C
  C179     1.0000 0.41200  0.52830  0.10260  Biso   1.000  C
  C180     1.0000 0.58800  0.47170  0.89740  Biso   1.000  C
  H283     1.0000 0.39710  0.53510  0.06720  Biso   1.000  H
  H284     1.0000 0.60290  0.46490  0.93280  Biso   1.000  H
  H285     1.0000 0.45440  0.55840  0.12950  Biso   1.000  H
  H286     1.0000 0.54560  0.44160  0.87050  Biso   1.000  H
  H287     1.0000 0.37730  0.53420  0.12710  Biso   1.000  H
  H288     1.0000 0.62270  0.46580  0.87290  Biso   1.000  H
  C181     1.0000 0.29130  0.35210  0.78590  Biso   1.000  C
  C182     1.0000 0.70870  0.64790  0.21410  Biso   1.000  C
  H289     1.0000 0.31190  0.33550  0.81180  Biso   1.000  H
  H290     1.0000 0.68810  0.66450  0.18820  Biso   1.000  H
  H291     1.0000 0.31460  0.34420  0.75190  Biso   1.000  H
  H292     1.0000 0.68540  0.65580  0.24810  Biso   1.000  H
  H293     1.0000 0.24340  0.33130  0.76810  Biso   1.000  H
  H294     1.0000 0.75660  0.66870  0.23190  Biso   1.000  H
  C183     1.0000 0.29760  0.42160  0.82580  Biso   1.000  C
  C184     1.0000 0.70240  0.57840  0.17420  Biso   1.000  C
  C185     1.0000 0.27460  0.46500  0.80820  Biso   1.000  C
  C186     1.0000 0.72540  0.53500  0.19180  Biso   1.000  C
  C187     1.0000 0.29750  0.52550  0.86270  Biso   1.000  C
  C188     1.0000 0.70250  0.47450  0.13730  Biso   1.000  C
  C189     1.0000 0.28660  0.59040  0.87460  Biso   1.000  C
  C190     1.0000 0.71340  0.40960  0.12540  Biso   1.000  C
  H295     1.0000 0.30900  0.62210  0.91790  Biso   1.000  H
  H296     1.0000 0.69100  0.37790  0.08210  Biso   1.000  H
  H297     1.0000 0.23800  0.58970  0.86780  Biso   1.000  H
  H298     1.0000 0.76200  0.41030  0.13220  Biso   1.000  H
  H299     1.0000 0.30560  0.60080  0.84560  Biso   1.000  H
  H300     1.0000 0.69440  0.39920  0.15440  Biso   1.000  H
  C191     1.0000 0.12490  0.37220  0.72740  Biso   1.000  C
  C192     1.0000 0.87510  0.62780  0.27260  Biso   1.000  C
  H301     1.0000 0.08570  0.34680  0.69220  Biso   1.000  H
  H302     1.0000 0.91430  0.65320  0.30780  Biso   1.000  H
  H303     1.0000 0.10990  0.40260  0.76340  Biso   1.000  H
  H304     1.0000 0.89010  0.59740  0.23660  Biso   1.000  H
  H305     1.0000 0.14680  0.34470  0.73900  Biso   1.000  H
  H306     1.0000 0.85320  0.65530  0.26100  Biso   1.000  H
  C193     1.0000 0.17390  0.40660  0.70870  Biso   1.000  C
  C194     1.0000 0.82610  0.59340  0.29130  Biso   1.000  C
  C195     1.0000 0.23750  0.44860  0.74340  Biso   1.000  C
  C196     1.0000 0.76250  0.55140  0.25660  Biso   1.000  C
  C197     1.0000 0.26190  0.46860  0.70240  Biso   1.000  C
  C198     1.0000 0.73810  0.53140  0.29760  Biso   1.000  C
  C199     1.0000 0.32340  0.51590  0.71320  Biso   1.000  C
  C200     1.0000 0.67660  0.48410  0.28680  Biso   1.000  C
  H307     1.0000 0.32410  0.51760  0.67440  Biso   1.000  H
  H308     1.0000 0.67590  0.48240  0.32560  Biso   1.000  H
  H309     1.0000 0.36430  0.50340  0.72540  Biso   1.000  H
  H310     1.0000 0.63570  0.49660  0.27460  Biso   1.000  H
  H311     1.0000 0.32190  0.55750  0.74670  Biso   1.000  H
  H312     1.0000 0.67810  0.44250  0.25330  Biso   1.000  H
  C201     1.0000 0.07440  0.19040  0.54020  Biso   1.000  C
  C202     1.0000 0.92560  0.80960  0.45980  Biso   1.000  C
  H313     1.0000 0.10780  0.22860  0.57150  Biso   1.000  H
  H314     1.0000 0.89220  0.77140  0.42850  Biso   1.000  H
  H315     1.0000 0.09690  0.16130  0.51020  Biso   1.000  H
  H316     1.0000 0.90310  0.83870  0.48980  Biso   1.000  H
  H317     1.0000 0.05320  0.17030  0.56130  Biso   1.000  H
  H318     1.0000 0.94680  0.82970  0.43870  Biso   1.000  H
  C203     1.0000 0.02010  0.20790  0.50520  Biso   1.000  C
  C204     1.0000 0.97990  0.79210  0.49480  Biso   1.000  C
  C205     1.0000 0.96170  0.16830  0.45690  Biso   1.000  C
  C206     1.0000 0.03830  0.83170  0.54310  Biso   1.000  C
  C207     1.0000 0.92850  0.20690  0.44100  Biso   1.000  C
  C208     1.0000 0.07150  0.79310  0.55900  Biso   1.000  C
  C209     1.0000 0.86130  0.19250  0.39470  Biso   1.000  C
  C210     1.0000 0.13870  0.80750  0.60530  Biso   1.000  C
  H319     1.0000 0.85350  0.23130  0.39540  Biso   1.000  H
  H320     1.0000 0.14650  0.76870  0.60460  Biso   1.000  H
  H321     1.0000 0.82420  0.17540  0.40710  Biso   1.000  H
  H322     1.0000 0.17580  0.82460  0.59290  Biso   1.000  H
  H323     1.0000 0.86350  0.16170  0.35220  Biso   1.000  H
  H324     1.0000 0.13650  0.83830  0.64780  Biso   1.000  H
  C211     1.0000 0.91440  0.08750  0.52490  Biso   1.000  C
  C212     1.0000 0.08560  0.91250  0.47510  Biso   1.000  C
  H325     1.0000 0.89530  0.05280  0.53090  Biso   1.000  H
  H326     1.0000 0.10470  0.94720  0.46910  Biso   1.000  H
  H327     1.0000 0.88730  0.11970  0.53850  Biso   1.000  H
  H328     1.0000 0.11270  0.88030  0.46150  Biso   1.000  H
  H329     1.0000 0.96100  0.10590  0.54980  Biso   1.000  H
  H330     1.0000 0.03900  0.89410  0.45020  Biso   1.000  H
  C213     1.0000 0.91380  0.06310  0.45610  Biso   1.000  C
  C214     1.0000 0.08620  0.93690  0.54390  Biso   1.000  C
  C215     1.0000 0.93690  0.09780  0.42700  Biso   1.000  C
  C216     1.0000 0.06310  0.90220  0.57300  Biso   1.000  C
  C217     1.0000 0.92860  0.05260  0.36320  Biso   1.000  C
  C218     1.0000 0.07140  0.94740  0.63680  Biso   1.000  C
  C219     1.0000 0.95130  0.05970  0.31000  Biso   1.000  C
  C220     1.0000 0.04870  0.94030  0.69000  Biso   1.000  C
  H331     1.0000 0.93760  0.01920  0.27110  Biso   1.000  H
  H332     1.0000 0.06240  0.98080  0.72890  Biso   1.000  H
  H333     1.0000 0.00070  0.07370  0.32090  Biso   1.000  H
  H334     1.0000 0.99930  0.92630  0.67910  Biso   1.000  H
  H335     1.0000 0.93030  0.09090  0.30410  Biso   1.000  H
  H336     1.0000 0.06970  0.90910  0.69590  Biso   1.000  H
  C221     1.0000 0.75430  0.89230  0.59620  Biso   1.000  C
  C222     1.0000 0.24570  0.10770  0.40380  Biso   1.000  C
  H337     1.0000 0.77430  0.93730  0.62360  Biso   1.000  H
  H338     1.0000 0.22570  0.06270  0.37640  Biso   1.000  H
  H339     1.0000 0.77640  0.86810  0.61260  Biso   1.000  H
  H340     1.0000 0.22360  0.13190  0.38740  Biso   1.000  H
  H341     1.0000 0.70590  0.88460  0.59490  Biso   1.000  H
  H342     1.0000 0.29410  0.11540  0.40510  Biso   1.000  H
  C223     1.0000 0.76420  0.87240  0.53090  Biso   1.000  C
  C224     1.0000 0.23580  0.12760  0.46910  Biso   1.000  C
  C225     1.0000 0.74610  0.81460  0.47320  Biso   1.000  C
  C226     1.0000 0.25390  0.18540  0.52680  Biso   1.000  C
  C227     1.0000 0.76870  0.82700  0.42710  Biso   1.000  C
  C228     1.0000 0.23130  0.17300  0.57290  Biso   1.000  C
  C229     1.0000 0.76420  0.78330  0.35910  Biso   1.000  C
  C230     1.0000 0.23580  0.21670  0.64090  Biso   1.000  C
  H343     1.0000 0.78420  0.80690  0.34050  Biso   1.000  H
  H344     1.0000 0.21580  0.19310  0.65950  Biso   1.000  H
  H345     1.0000 0.71670  0.76410  0.33720  Biso   1.000  H
  H346     1.0000 0.28330  0.23590  0.66280  Biso   1.000  H
  H347     1.0000 0.78880  0.75030  0.35500  Biso   1.000  H
  H348     1.0000 0.21120  0.24970  0.64500  Biso   1.000  H
  C231     1.0000 0.79730  0.73100  0.54170  Biso   1.000  C
  C232     1.0000 0.20270  0.26900  0.45830  Biso   1.000  C
  H349     1.0000 0.79600  0.69660  0.55140  Biso   1.000  H
  H350     1.0000 0.20400  0.30340  0.44860  Biso   1.000  H
  H351     1.0000 0.79970  0.77040  0.58000  Biso   1.000  H
  H352     1.0000 0.20030  0.22960  0.42000  Biso   1.000  H
  H353     1.0000 0.83710  0.73490  0.52500  Biso   1.000  H
  H354     1.0000 0.16290  0.26510  0.47500  Biso   1.000  H
  C233     1.0000 0.73300  0.71700  0.49260  Biso   1.000  C
  C234     1.0000 0.26700  0.28300  0.50740  Biso   1.000  C
  C235     1.0000 0.71080  0.75080  0.46300  Biso   1.000  C
  C236     1.0000 0.28920  0.24920  0.53700  Biso   1.000  C
  C237     1.0000 0.64760  0.71230  0.42050  Biso   1.000  C
  C238     1.0000 0.35240  0.28770  0.57950  Biso   1.000  C
  C239     1.0000 0.60020  0.72570  0.37700  Biso   1.000  C
  C240     1.0000 0.39980  0.27430  0.62300  Biso   1.000  C
  H355     1.0000 0.56110  0.69040  0.35330  Biso   1.000  H
  H356     1.0000 0.43890  0.30960  0.64670  Biso   1.000  H
  H357     1.0000 0.62420  0.73120  0.34770  Biso   1.000  H
  H358     1.0000 0.37580  0.26880  0.65230  Biso   1.000  H
  H359     1.0000 0.58490  0.76420  0.40190  Biso   1.000  H
  H360     1.0000 0.41510  0.23580  0.59810  Biso   1.000  H
