data_image0
_cell_length_a       26.064
_cell_length_b       26.064
_cell_length_c       19.398
_cell_angle_alpha    90
_cell_angle_beta     90
_cell_angle_gamma    120

_symmetry_space_group_name_H-M    "P 1"
_symmetry_int_tables_number       1

loop_
  _symmetry_equiv_pos_as_xyz
  'x, y, z'

loop_
  _atom_site_label
  _atom_site_occupancy
  _atom_site_fract_x
  _atom_site_fract_y
  _atom_site_fract_z
  _atom_site_thermal_displace_type
  _atom_site_B_iso_or_equiv
  _atom_site_type_symbol
  Cu1      1.0000 0.34842  0.01542  0.08246  Biso   1.000  Cu
  Cu2      1.0000 0.98458  0.33300  0.08246  Biso   1.000  Cu
  Cu3      1.0000 0.66700  0.65158  0.08246  Biso   1.000  Cu
  Cu4      1.0000 0.01509  0.34875  0.41579  Biso   1.000  Cu
  Cu5      1.0000 0.65125  0.66633  0.41579  Biso   1.000  Cu
  Cu6      1.0000 0.33367  0.98491  0.41579  Biso   1.000  Cu
  Cu7      1.0000 0.68175  0.68209  0.74913  Biso   1.000  Cu
  Cu8      1.0000 0.31791  0.99967  0.74913  Biso   1.000  Cu
  Cu9      1.0000 0.00033  0.31825  0.74913  Biso   1.000  Cu
  Cu10     1.0000 0.65158  0.98458  0.91754  Biso   1.000  Cu
  Cu11     1.0000 0.01542  0.66700  0.91754  Biso   1.000  Cu
  Cu12     1.0000 0.33300  0.34842  0.91754  Biso   1.000  Cu
  Cu13     1.0000 0.31825  0.31791  0.25087  Biso   1.000  Cu
  Cu14     1.0000 0.68209  0.00033  0.25087  Biso   1.000  Cu
  Cu15     1.0000 0.99967  0.68175  0.25087  Biso   1.000  Cu
  Cu16     1.0000 0.98491  0.65125  0.58421  Biso   1.000  Cu
  Cu17     1.0000 0.34875  0.33367  0.58421  Biso   1.000  Cu
  Cu18     1.0000 0.66633  0.01509  0.58421  Biso   1.000  Cu
  Cu19     1.0000 0.33300  0.98460  0.91753  Biso   1.000  Cu
  Cu20     1.0000 0.01540  0.34840  0.91753  Biso   1.000  Cu
  Cu21     1.0000 0.65160  0.66700  0.91753  Biso   1.000  Cu
  Cu22     1.0000 0.99967  0.31793  0.25086  Biso   1.000  Cu
  Cu23     1.0000 0.68207  0.68174  0.25086  Biso   1.000  Cu
  Cu24     1.0000 0.31826  0.00033  0.25086  Biso   1.000  Cu
  Cu25     1.0000 0.66634  0.65127  0.58420  Biso   1.000  Cu
  Cu26     1.0000 0.34873  0.01507  0.58420  Biso   1.000  Cu
  Cu27     1.0000 0.98493  0.33366  0.58420  Biso   1.000  Cu
  Cu28     1.0000 0.66700  0.01540  0.08247  Biso   1.000  Cu
  Cu29     1.0000 0.98460  0.65160  0.08247  Biso   1.000  Cu
  Cu30     1.0000 0.34840  0.33300  0.08247  Biso   1.000  Cu
  Cu31     1.0000 0.33366  0.34873  0.41580  Biso   1.000  Cu
  Cu32     1.0000 0.65127  0.98493  0.41580  Biso   1.000  Cu
  Cu33     1.0000 0.01507  0.66634  0.41580  Biso   1.000  Cu
  Cu34     1.0000 0.00033  0.68207  0.74914  Biso   1.000  Cu
  Cu35     1.0000 0.31793  0.31826  0.74914  Biso   1.000  Cu
  Cu36     1.0000 0.68174  0.99967  0.74914  Biso   1.000  Cu
  I1       1.0000 0.26139  0.99999  0.00000  Biso   1.000  I
  I2       1.0000 0.00001  0.26140  0.00000  Biso   1.000  I
  I3       1.0000 0.73860  0.73861  0.00000  Biso   1.000  I
  I4       1.0000 0.92806  0.33333  0.33334  Biso   1.000  I
  I5       1.0000 0.66667  0.59473  0.33334  Biso   1.000  I
  I6       1.0000 0.40527  0.07194  0.33334  Biso   1.000  I
  I7       1.0000 0.59472  0.66666  0.66667  Biso   1.000  I
  I8       1.0000 0.33334  0.92806  0.66667  Biso   1.000  I
  I9       1.0000 0.07194  0.40528  0.66667  Biso   1.000  I
  I10      1.0000 0.73861  0.00001  1.00000  Biso   1.000  I
  I11      1.0000 0.99999  0.73860  1.00000  Biso   1.000  I
  I12      1.0000 0.26140  0.26139  1.00000  Biso   1.000  I
  I13      1.0000 0.40528  0.33334  0.33333  Biso   1.000  I
  I14      1.0000 0.66666  0.07194  0.33333  Biso   1.000  I
  I15      1.0000 0.92806  0.59472  0.33333  Biso   1.000  I
  I16      1.0000 0.07194  0.66667  0.66666  Biso   1.000  I
  I17      1.0000 0.33333  0.40527  0.66666  Biso   1.000  I
  I18      1.0000 0.59473  0.92806  0.66666  Biso   1.000  I
  I19      1.0000 0.33334  0.92862  0.16665  Biso   1.000  I
  I20      1.0000 0.07138  0.40472  0.16665  Biso   1.000  I
  I21      1.0000 0.59528  0.66666  0.16665  Biso   1.000  I
  I22      1.0000 0.00001  0.26195  0.49998  Biso   1.000  I
  I23      1.0000 0.73805  0.73805  0.49998  Biso   1.000  I
  I24      1.0000 0.26195  0.99999  0.49998  Biso   1.000  I
  I25      1.0000 0.66667  0.59529  0.83332  Biso   1.000  I
  I26      1.0000 0.40471  0.07139  0.83332  Biso   1.000  I
  I27      1.0000 0.92861  0.33333  0.83332  Biso   1.000  I
  I28      1.0000 0.66666  0.07138  0.83335  Biso   1.000  I
  I29      1.0000 0.92862  0.59528  0.83335  Biso   1.000  I
  I30      1.0000 0.40472  0.33334  0.83335  Biso   1.000  I
  I31      1.0000 0.33333  0.40471  0.16668  Biso   1.000  I
  I32      1.0000 0.59529  0.92861  0.16668  Biso   1.000  I
  I33      1.0000 0.07139  0.66667  0.16668  Biso   1.000  I
  I34      1.0000 0.99999  0.73805  0.50002  Biso   1.000  I
  I35      1.0000 0.26195  0.26195  0.50002  Biso   1.000  I
  I36      1.0000 0.73805  0.00001  0.50002  Biso   1.000  I
  N1       1.0000 0.35038  0.08373  0.13695  Biso   1.000  N
  N2       1.0000 0.91627  0.26665  0.13695  Biso   1.000  N
  N3       1.0000 0.73335  0.64962  0.13695  Biso   1.000  N
  N4       1.0000 0.01705  0.41706  0.47028  Biso   1.000  N
  N5       1.0000 0.58294  0.59998  0.47028  Biso   1.000  N
  N6       1.0000 0.40002  0.98295  0.47028  Biso   1.000  N
  N7       1.0000 0.68371  0.75040  0.80362  Biso   1.000  N
  N8       1.0000 0.24960  0.93332  0.80362  Biso   1.000  N
  N9       1.0000 0.06668  0.31629  0.80362  Biso   1.000  N
  N10      1.0000 0.64962  0.91627  0.86305  Biso   1.000  N
  N11      1.0000 0.08373  0.73335  0.86305  Biso   1.000  N
  N12      1.0000 0.26665  0.35038  0.86305  Biso   1.000  N
  N13      1.0000 0.31629  0.24960  0.19638  Biso   1.000  N
  N14      1.0000 0.75040  0.06668  0.19638  Biso   1.000  N
  N15      1.0000 0.93332  0.68371  0.19638  Biso   1.000  N
  N16      1.0000 0.98295  0.58294  0.52972  Biso   1.000  N
  N17      1.0000 0.41706  0.40002  0.52972  Biso   1.000  N
  N18      1.0000 0.59998  0.01705  0.52972  Biso   1.000  N
  N19      1.0000 0.31632  0.06667  0.19606  Biso   1.000  N
  N20      1.0000 0.93333  0.24965  0.19606  Biso   1.000  N
  N21      1.0000 0.75035  0.68368  0.19606  Biso   1.000  N
  N22      1.0000 0.98299  0.40000  0.52939  Biso   1.000  N
  N23      1.0000 0.60000  0.58298  0.52939  Biso   1.000  N
  N24      1.0000 0.41702  0.01701  0.52939  Biso   1.000  N
  N25      1.0000 0.64965  0.73334  0.86273  Biso   1.000  N
  N26      1.0000 0.26666  0.91632  0.86273  Biso   1.000  N
  N27      1.0000 0.08368  0.35035  0.86273  Biso   1.000  N
  N28      1.0000 0.68368  0.93333  0.80394  Biso   1.000  N
  N29      1.0000 0.06667  0.75035  0.80394  Biso   1.000  N
  N30      1.0000 0.24965  0.31632  0.80394  Biso   1.000  N
  N31      1.0000 0.35035  0.26666  0.13727  Biso   1.000  N
  N32      1.0000 0.73334  0.08368  0.13727  Biso   1.000  N
  N33      1.0000 0.91632  0.64965  0.13727  Biso   1.000  N
  N34      1.0000 0.01701  0.60000  0.47061  Biso   1.000  N
  N35      1.0000 0.40000  0.41702  0.47061  Biso   1.000  N
  N36      1.0000 0.58298  0.98299  0.47061  Biso   1.000  N
  N37      1.0000 0.40001  0.98240  0.97060  Biso   1.000  N
  N38      1.0000 0.01760  0.41761  0.97060  Biso   1.000  N
  N39      1.0000 0.58239  0.59999  0.97060  Biso   1.000  N
  N40      1.0000 0.06668  0.31573  0.30393  Biso   1.000  N
  N41      1.0000 0.68427  0.75094  0.30393  Biso   1.000  N
  N42      1.0000 0.24906  0.93332  0.30393  Biso   1.000  N
  N43      1.0000 0.73334  0.64907  0.63727  Biso   1.000  N
  N44      1.0000 0.35093  0.08428  0.63727  Biso   1.000  N
  N45      1.0000 0.91572  0.26666  0.63727  Biso   1.000  N
  N46      1.0000 0.59999  0.01760  0.02940  Biso   1.000  N
  N47      1.0000 0.98240  0.58239  0.02940  Biso   1.000  N
  N48      1.0000 0.41761  0.40001  0.02940  Biso   1.000  N
  N49      1.0000 0.26666  0.35093  0.36273  Biso   1.000  N
  N50      1.0000 0.64907  0.91572  0.36273  Biso   1.000  N
  N51      1.0000 0.08428  0.73334  0.36273  Biso   1.000  N
  N52      1.0000 0.93332  0.68427  0.69607  Biso   1.000  N
  N53      1.0000 0.31573  0.24906  0.69607  Biso   1.000  N
  N54      1.0000 0.75094  0.06668  0.69607  Biso   1.000  N
  N55      1.0000 0.41755  0.01748  0.02943  Biso   1.000  N
  N56      1.0000 0.98252  0.40007  0.02943  Biso   1.000  N
  N57      1.0000 0.59993  0.58245  0.02943  Biso   1.000  N
  N58      1.0000 0.08422  0.35081  0.36276  Biso   1.000  N
  N59      1.0000 0.64919  0.73340  0.36276  Biso   1.000  N
  N60      1.0000 0.26660  0.91578  0.36276  Biso   1.000  N
  N61      1.0000 0.75088  0.68415  0.69610  Biso   1.000  N
  N62      1.0000 0.31585  0.06674  0.69610  Biso   1.000  N
  N63      1.0000 0.93326  0.24912  0.69610  Biso   1.000  N
  N64      1.0000 0.58245  0.98252  0.97057  Biso   1.000  N
  N65      1.0000 0.01748  0.59993  0.97057  Biso   1.000  N
  N66      1.0000 0.40007  0.41755  0.97057  Biso   1.000  N
  N67      1.0000 0.24912  0.31585  0.30390  Biso   1.000  N
  N68      1.0000 0.68415  0.93326  0.30390  Biso   1.000  N
  N69      1.0000 0.06674  0.75088  0.30390  Biso   1.000  N
  N70      1.0000 0.91578  0.64919  0.63724  Biso   1.000  N
  N71      1.0000 0.35081  0.26660  0.63724  Biso   1.000  N
  N72      1.0000 0.73340  0.08422  0.63724  Biso   1.000  N
  C1       1.0000 0.36792  0.13620  0.10863  Biso   1.000  C
  C2       1.0000 0.86380  0.23172  0.10863  Biso   1.000  C
  C3       1.0000 0.76828  0.63208  0.10863  Biso   1.000  C
  C4       1.0000 0.03459  0.46953  0.44196  Biso   1.000  C
  C5       1.0000 0.53047  0.56505  0.44196  Biso   1.000  C
  C6       1.0000 0.43495  0.96541  0.44196  Biso   1.000  C
  C7       1.0000 0.70125  0.80287  0.77530  Biso   1.000  C
  C8       1.0000 0.19713  0.89839  0.77530  Biso   1.000  C
  C9       1.0000 0.10161  0.29875  0.77530  Biso   1.000  C
  C10      1.0000 0.63208  0.86380  0.89137  Biso   1.000  C
  C11      1.0000 0.13620  0.76828  0.89137  Biso   1.000  C
  C12      1.0000 0.23172  0.36792  0.89137  Biso   1.000  C
  C13      1.0000 0.29875  0.19713  0.22470  Biso   1.000  C
  C14      1.0000 0.80287  0.10161  0.22470  Biso   1.000  C
  C15      1.0000 0.89839  0.70125  0.22470  Biso   1.000  C
  C16      1.0000 0.96541  0.53047  0.55804  Biso   1.000  C
  C17      1.0000 0.46953  0.43495  0.55804  Biso   1.000  C
  C18      1.0000 0.56505  0.03459  0.55804  Biso   1.000  C
  C19      1.0000 0.35085  0.17544  0.13725  Biso   1.000  C
  C20      1.0000 0.82456  0.17541  0.13725  Biso   1.000  C
  C21      1.0000 0.82459  0.64915  0.13725  Biso   1.000  C
  C22      1.0000 0.01752  0.50877  0.47058  Biso   1.000  C
  C23      1.0000 0.49123  0.50874  0.47058  Biso   1.000  C
  C24      1.0000 0.49126  0.98248  0.47058  Biso   1.000  C
  C25      1.0000 0.68418  0.84211  0.80392  Biso   1.000  C
  C26      1.0000 0.15789  0.84208  0.80392  Biso   1.000  C
  C27      1.0000 0.15792  0.31582  0.80392  Biso   1.000  C
  C28      1.0000 0.64915  0.82456  0.86275  Biso   1.000  C
  C29      1.0000 0.17544  0.82459  0.86275  Biso   1.000  C
  C30      1.0000 0.17541  0.35085  0.86275  Biso   1.000  C
  C31      1.0000 0.31582  0.15789  0.19608  Biso   1.000  C
  C32      1.0000 0.84211  0.15792  0.19608  Biso   1.000  C
  C33      1.0000 0.84208  0.68418  0.19608  Biso   1.000  C
  C34      1.0000 0.98248  0.49123  0.52942  Biso   1.000  C
  C35      1.0000 0.50877  0.49126  0.52942  Biso   1.000  C
  C36      1.0000 0.50874  0.01752  0.52942  Biso   1.000  C
  C37      1.0000 0.29892  0.10160  0.22441  Biso   1.000  C
  C38      1.0000 0.89840  0.19732  0.22441  Biso   1.000  C
  C39      1.0000 0.80268  0.70108  0.22441  Biso   1.000  C
  C40      1.0000 0.96559  0.43493  0.55774  Biso   1.000  C
  C41      1.0000 0.56507  0.53065  0.55774  Biso   1.000  C
  C42      1.0000 0.46935  0.03441  0.55774  Biso   1.000  C
  C43      1.0000 0.63225  0.76827  0.89108  Biso   1.000  C
  C44      1.0000 0.23173  0.86399  0.89108  Biso   1.000  C
  C45      1.0000 0.13601  0.36775  0.89108  Biso   1.000  C
  C46      1.0000 0.70108  0.89840  0.77559  Biso   1.000  C
  C47      1.0000 0.10160  0.80268  0.77559  Biso   1.000  C
  C48      1.0000 0.19732  0.29892  0.77559  Biso   1.000  C
  C49      1.0000 0.36775  0.23173  0.10892  Biso   1.000  C
  C50      1.0000 0.76827  0.13601  0.10892  Biso   1.000  C
  C51      1.0000 0.86399  0.63225  0.10892  Biso   1.000  C
  C52      1.0000 0.03441  0.56507  0.44226  Biso   1.000  C
  C53      1.0000 0.43493  0.46935  0.44226  Biso   1.000  C
  C54      1.0000 0.53065  0.96559  0.44226  Biso   1.000  C
  C55      1.0000 0.26231  0.08298  0.28933  Biso   1.000  C
  C56      1.0000 0.91702  0.17933  0.28933  Biso   1.000  C
  C57      1.0000 0.82067  0.73769  0.28933  Biso   1.000  C
  C58      1.0000 0.92898  0.41631  0.62266  Biso   1.000  C
  C59      1.0000 0.58369  0.51266  0.62266  Biso   1.000  C
  C60      1.0000 0.48734  0.07102  0.62266  Biso   1.000  C
  C61      1.0000 0.59564  0.74965  0.95600  Biso   1.000  C
  C62      1.0000 0.25035  0.84600  0.95600  Biso   1.000  C
  C63      1.0000 0.15400  0.40436  0.95600  Biso   1.000  C
  C64      1.0000 0.73769  0.91702  0.71067  Biso   1.000  C
  C65      1.0000 0.08298  0.82067  0.71067  Biso   1.000  C
  C66      1.0000 0.17933  0.26231  0.71067  Biso   1.000  C
  C67      1.0000 0.40436  0.25035  0.04400  Biso   1.000  C
  C68      1.0000 0.74965  0.15400  0.04400  Biso   1.000  C
  C69      1.0000 0.84600  0.59564  0.04400  Biso   1.000  C
  C70      1.0000 0.07102  0.58369  0.37734  Biso   1.000  C
  C71      1.0000 0.41631  0.48734  0.37734  Biso   1.000  C
  C72      1.0000 0.51266  0.92898  0.37734  Biso   1.000  C
  H1       1.0000 0.23760  0.04060  0.29000  Biso   1.000  H
  H2       1.0000 0.95940  0.19700  0.29000  Biso   1.000  H
  H3       1.0000 0.80300  0.76240  0.29000  Biso   1.000  H
  H4       1.0000 0.90427  0.37393  0.62333  Biso   1.000  H
  H5       1.0000 0.62607  0.53033  0.62333  Biso   1.000  H
  H6       1.0000 0.46967  0.09573  0.62333  Biso   1.000  H
  H7       1.0000 0.57093  0.70727  0.95667  Biso   1.000  H
  H8       1.0000 0.29273  0.86367  0.95667  Biso   1.000  H
  H9       1.0000 0.13633  0.42907  0.95667  Biso   1.000  H
  H10      1.0000 0.76240  0.95940  0.71000  Biso   1.000  H
  H11      1.0000 0.04060  0.80300  0.71000  Biso   1.000  H
  H12      1.0000 0.19700  0.23760  0.71000  Biso   1.000  H
  H13      1.0000 0.42907  0.29273  0.04333  Biso   1.000  H
  H14      1.0000 0.70727  0.13633  0.04333  Biso   1.000  H
  H15      1.0000 0.86367  0.57093  0.04333  Biso   1.000  H
  H16      1.0000 0.09573  0.62607  0.37667  Biso   1.000  H
  H17      1.0000 0.37393  0.46967  0.37667  Biso   1.000  H
  H18      1.0000 0.53033  0.90427  0.37667  Biso   1.000  H
  H19      1.0000 0.28860  0.09430  0.32820  Biso   1.000  H
  H20      1.0000 0.90570  0.19430  0.32820  Biso   1.000  H
  H21      1.0000 0.80570  0.71140  0.32820  Biso   1.000  H
  H22      1.0000 0.95527  0.42763  0.66153  Biso   1.000  H
  H23      1.0000 0.57237  0.52763  0.66153  Biso   1.000  H
  H24      1.0000 0.47237  0.04473  0.66153  Biso   1.000  H
  H25      1.0000 0.62193  0.76097  0.99487  Biso   1.000  H
  H26      1.0000 0.23903  0.86097  0.99487  Biso   1.000  H
  H27      1.0000 0.13903  0.37807  0.99487  Biso   1.000  H
  H28      1.0000 0.71140  0.90570  0.67180  Biso   1.000  H
  H29      1.0000 0.09430  0.80570  0.67180  Biso   1.000  H
  H30      1.0000 0.19430  0.28860  0.67180  Biso   1.000  H
  H31      1.0000 0.37807  0.23903  0.00513  Biso   1.000  H
  H32      1.0000 0.76097  0.13903  0.00513  Biso   1.000  H
  H33      1.0000 0.86097  0.62193  0.00513  Biso   1.000  H
  H34      1.0000 0.04473  0.57237  0.33847  Biso   1.000  H
  H35      1.0000 0.42763  0.47237  0.33847  Biso   1.000  H
  H36      1.0000 0.52763  0.95527  0.33847  Biso   1.000  H
  C73      1.0000 0.22323  0.11169  0.29580  Biso   1.000  C
  C74      1.0000 0.88831  0.11154  0.29580  Biso   1.000  C
  C75      1.0000 0.88846  0.77677  0.29580  Biso   1.000  C
  C76      1.0000 0.88990  0.44502  0.62913  Biso   1.000  C
  C77      1.0000 0.55498  0.44487  0.62913  Biso   1.000  C
  C78      1.0000 0.55513  0.11010  0.62913  Biso   1.000  C
  C79      1.0000 0.55656  0.77836  0.96247  Biso   1.000  C
  C80      1.0000 0.22164  0.77821  0.96247  Biso   1.000  C
  C81      1.0000 0.22179  0.44344  0.96247  Biso   1.000  C
  C82      1.0000 0.77677  0.88831  0.70420  Biso   1.000  C
  C83      1.0000 0.11169  0.88846  0.70420  Biso   1.000  C
  C84      1.0000 0.11154  0.22323  0.70420  Biso   1.000  C
  C85      1.0000 0.44344  0.22164  0.03753  Biso   1.000  C
  C86      1.0000 0.77836  0.22179  0.03753  Biso   1.000  C
  C87      1.0000 0.77821  0.55656  0.03753  Biso   1.000  C
  C88      1.0000 0.11010  0.55498  0.37087  Biso   1.000  C
  C89      1.0000 0.44502  0.55513  0.37087  Biso   1.000  C
  C90      1.0000 0.44487  0.88990  0.37087  Biso   1.000  C
  C91      1.0000 0.40429  0.15409  0.04412  Biso   1.000  C
  C92      1.0000 0.84591  0.25020  0.04412  Biso   1.000  C
  C93      1.0000 0.74980  0.59571  0.04412  Biso   1.000  C
  C94      1.0000 0.07096  0.48742  0.37745  Biso   1.000  C
  C95      1.0000 0.51258  0.58353  0.37745  Biso   1.000  C
  C96      1.0000 0.41647  0.92904  0.37745  Biso   1.000  C
  C97      1.0000 0.73762  0.82076  0.71079  Biso   1.000  C
  C98      1.0000 0.17924  0.91687  0.71079  Biso   1.000  C
  C99      1.0000 0.08313  0.26238  0.71079  Biso   1.000  C
  C100     1.0000 0.59571  0.84591  0.95588  Biso   1.000  C
  C101     1.0000 0.15409  0.74980  0.95588  Biso   1.000  C
  C102     1.0000 0.25020  0.40429  0.95588  Biso   1.000  C
  C103     1.0000 0.26238  0.17924  0.28921  Biso   1.000  C
  C104     1.0000 0.82076  0.08313  0.28921  Biso   1.000  C
  C105     1.0000 0.91687  0.73762  0.28921  Biso   1.000  C
  C106     1.0000 0.92904  0.51258  0.62255  Biso   1.000  C
  C107     1.0000 0.48742  0.41647  0.62255  Biso   1.000  C
  C108     1.0000 0.58353  0.07096  0.62255  Biso   1.000  C
  H37      1.0000 0.37780  0.13930  0.00540  Biso   1.000  H
  H38      1.0000 0.86070  0.23850  0.00540  Biso   1.000  H
  H39      1.0000 0.76150  0.62220  0.00540  Biso   1.000  H
  H40      1.0000 0.04447  0.47263  0.33873  Biso   1.000  H
  H41      1.0000 0.52737  0.57183  0.33873  Biso   1.000  H
  H42      1.0000 0.42817  0.95553  0.33873  Biso   1.000  H
  H43      1.0000 0.71113  0.80597  0.67207  Biso   1.000  H
  H44      1.0000 0.19403  0.90517  0.67207  Biso   1.000  H
  H45      1.0000 0.09483  0.28887  0.67207  Biso   1.000  H
  H46      1.0000 0.62220  0.86070  0.99460  Biso   1.000  H
  H47      1.0000 0.13930  0.76150  0.99460  Biso   1.000  H
  H48      1.0000 0.23850  0.37780  0.99460  Biso   1.000  H
  H49      1.0000 0.28887  0.19403  0.32793  Biso   1.000  H
  H50      1.0000 0.80597  0.09483  0.32793  Biso   1.000  H
  H51      1.0000 0.90517  0.71113  0.32793  Biso   1.000  H
  H52      1.0000 0.95553  0.52737  0.66127  Biso   1.000  H
  H53      1.0000 0.47263  0.42817  0.66127  Biso   1.000  H
  H54      1.0000 0.57183  0.04447  0.66127  Biso   1.000  H
  H55      1.0000 0.42890  0.13630  0.04300  Biso   1.000  H
  H56      1.0000 0.86370  0.29260  0.04300  Biso   1.000  H
  H57      1.0000 0.70740  0.57110  0.04300  Biso   1.000  H
  H58      1.0000 0.09557  0.46963  0.37633  Biso   1.000  H
  H59      1.0000 0.53037  0.62593  0.37633  Biso   1.000  H
  H60      1.0000 0.37407  0.90443  0.37633  Biso   1.000  H
  H61      1.0000 0.76223  0.80297  0.70967  Biso   1.000  H
  H62      1.0000 0.19703  0.95927  0.70967  Biso   1.000  H
  H63      1.0000 0.04073  0.23777  0.70967  Biso   1.000  H
  H64      1.0000 0.57110  0.86370  0.95700  Biso   1.000  H
  H65      1.0000 0.13630  0.70740  0.95700  Biso   1.000  H
  H66      1.0000 0.29260  0.42890  0.95700  Biso   1.000  H
  H67      1.0000 0.23777  0.19703  0.29033  Biso   1.000  H
  H68      1.0000 0.80297  0.04073  0.29033  Biso   1.000  H
  H69      1.0000 0.95927  0.76223  0.29033  Biso   1.000  H
  H70      1.0000 0.90443  0.53037  0.62367  Biso   1.000  H
  H71      1.0000 0.46963  0.37407  0.62367  Biso   1.000  H
  H72      1.0000 0.62593  0.09557  0.62367  Biso   1.000  H
  C109     1.0000 0.17472  0.08722  0.24070  Biso   1.000  C
  C110     1.0000 0.91278  0.08750  0.24070  Biso   1.000  C
  C111     1.0000 0.91250  0.82528  0.24070  Biso   1.000  C
  C112     1.0000 0.84139  0.42055  0.57403  Biso   1.000  C
  C113     1.0000 0.57945  0.42083  0.57403  Biso   1.000  C
  C114     1.0000 0.57917  0.15861  0.57403  Biso   1.000  C
  C115     1.0000 0.50805  0.75389  0.90737  Biso   1.000  C
  C116     1.0000 0.24611  0.75417  0.90737  Biso   1.000  C
  C117     1.0000 0.24583  0.49195  0.90737  Biso   1.000  C
  C118     1.0000 0.82528  0.91278  0.75930  Biso   1.000  C
  C119     1.0000 0.08722  0.91250  0.75930  Biso   1.000  C
  C120     1.0000 0.08750  0.17472  0.75930  Biso   1.000  C
  C121     1.0000 0.49195  0.24611  0.09263  Biso   1.000  C
  C122     1.0000 0.75389  0.24583  0.09263  Biso   1.000  C
  C123     1.0000 0.75417  0.50805  0.09263  Biso   1.000  C
  C124     1.0000 0.15861  0.57945  0.42597  Biso   1.000  C
  C125     1.0000 0.42055  0.57917  0.42597  Biso   1.000  C
  C126     1.0000 0.42083  0.84139  0.42597  Biso   1.000  C
  H73      1.0000 0.15070  0.10540  0.24530  Biso   1.000  H
  H74      1.0000 0.89460  0.04530  0.24530  Biso   1.000  H
  H75      1.0000 0.95470  0.84930  0.24530  Biso   1.000  H
  H76      1.0000 0.81737  0.43873  0.57863  Biso   1.000  H
  H77      1.0000 0.56127  0.37863  0.57863  Biso   1.000  H
  H78      1.0000 0.62137  0.18263  0.57863  Biso   1.000  H
  H79      1.0000 0.48403  0.77207  0.91197  Biso   1.000  H
  H80      1.0000 0.22793  0.71197  0.91197  Biso   1.000  H
  H81      1.0000 0.28803  0.51597  0.91197  Biso   1.000  H
  H82      1.0000 0.84930  0.89460  0.75470  Biso   1.000  H
  H83      1.0000 0.10540  0.95470  0.75470  Biso   1.000  H
  H84      1.0000 0.04530  0.15070  0.75470  Biso   1.000  H
  H85      1.0000 0.51597  0.22793  0.08803  Biso   1.000  H
  H86      1.0000 0.77207  0.28803  0.08803  Biso   1.000  H
  H87      1.0000 0.71197  0.48403  0.08803  Biso   1.000  H
  H88      1.0000 0.18263  0.56127  0.42137  Biso   1.000  H
  H89      1.0000 0.43873  0.62137  0.42137  Biso   1.000  H
  H90      1.0000 0.37863  0.81737  0.42137  Biso   1.000  H
  H91      1.0000 0.19260  0.09530  0.19580  Biso   1.000  H
  H92      1.0000 0.90470  0.09730  0.19580  Biso   1.000  H
  H93      1.0000 0.90270  0.80740  0.19580  Biso   1.000  H
  H94      1.0000 0.85927  0.42863  0.52913  Biso   1.000  H
  H95      1.0000 0.57137  0.43063  0.52913  Biso   1.000  H
  H96      1.0000 0.56937  0.14073  0.52913  Biso   1.000  H
  H97      1.0000 0.52593  0.76197  0.86247  Biso   1.000  H
  H98      1.0000 0.23803  0.76397  0.86247  Biso   1.000  H
  H99      1.0000 0.23603  0.47407  0.86247  Biso   1.000  H
  H100     1.0000 0.80740  0.90470  0.80420  Biso   1.000  H
  H101     1.0000 0.09530  0.90270  0.80420  Biso   1.000  H
  H102     1.0000 0.09730  0.19260  0.80420  Biso   1.000  H
  H103     1.0000 0.47407  0.23803  0.13753  Biso   1.000  H
  H104     1.0000 0.76197  0.23603  0.13753  Biso   1.000  H
  H105     1.0000 0.76397  0.52593  0.13753  Biso   1.000  H
  H106     1.0000 0.14073  0.57137  0.47087  Biso   1.000  H
  H107     1.0000 0.42863  0.56937  0.47087  Biso   1.000  H
  H108     1.0000 0.43063  0.85927  0.47087  Biso   1.000  H
  H109     1.0000 0.15060  0.04500  0.24570  Biso   1.000  H
  H110     1.0000 0.95500  0.10560  0.24570  Biso   1.000  H
  H111     1.0000 0.89440  0.84940  0.24570  Biso   1.000  H
  H112     1.0000 0.81727  0.37833  0.57903  Biso   1.000  H
  H113     1.0000 0.62167  0.43893  0.57903  Biso   1.000  H
  H114     1.0000 0.56107  0.18273  0.57903  Biso   1.000  H
  H115     1.0000 0.48393  0.71167  0.91237  Biso   1.000  H
  H116     1.0000 0.28833  0.77227  0.91237  Biso   1.000  H
  H117     1.0000 0.22773  0.51607  0.91237  Biso   1.000  H
  H118     1.0000 0.84940  0.95500  0.75430  Biso   1.000  H
  H119     1.0000 0.04500  0.89440  0.75430  Biso   1.000  H
  H120     1.0000 0.10560  0.15060  0.75430  Biso   1.000  H
  H121     1.0000 0.51607  0.28833  0.08763  Biso   1.000  H
  H122     1.0000 0.71167  0.22773  0.08763  Biso   1.000  H
  H123     1.0000 0.77227  0.48393  0.08763  Biso   1.000  H
  H124     1.0000 0.18273  0.62167  0.42097  Biso   1.000  H
  H125     1.0000 0.37833  0.56107  0.42097  Biso   1.000  H
  H126     1.0000 0.43893  0.81727  0.42097  Biso   1.000  H
  C127     1.0000 0.19586  0.09792  0.36790  Biso   1.000  C
  C128     1.0000 0.90208  0.09794  0.36790  Biso   1.000  C
  C129     1.0000 0.90206  0.80414  0.36790  Biso   1.000  C
  C130     1.0000 0.86253  0.43125  0.70123  Biso   1.000  C
  C131     1.0000 0.56875  0.43127  0.70123  Biso   1.000  C
  C132     1.0000 0.56873  0.13747  0.70123  Biso   1.000  C
  C133     1.0000 0.52919  0.76459  0.03457  Biso   1.000  C
  C134     1.0000 0.23541  0.76461  0.03457  Biso   1.000  C
  C135     1.0000 0.23539  0.47081  0.03457  Biso   1.000  C
  C136     1.0000 0.80414  0.90208  0.63210  Biso   1.000  C
  C137     1.0000 0.09792  0.90206  0.63210  Biso   1.000  C
  C138     1.0000 0.09794  0.19586  0.63210  Biso   1.000  C
  C139     1.0000 0.47081  0.23541  0.96543  Biso   1.000  C
  C140     1.0000 0.76459  0.23539  0.96543  Biso   1.000  C
  C141     1.0000 0.76461  0.52919  0.96543  Biso   1.000  C
  C142     1.0000 0.13747  0.56875  0.29877  Biso   1.000  C
  C143     1.0000 0.43125  0.56873  0.29877  Biso   1.000  C
  C144     1.0000 0.43127  0.86253  0.29877  Biso   1.000  C
  H127     1.0000 0.17180  0.05580  0.37340  Biso   1.000  H
  H128     1.0000 0.94420  0.11600  0.37340  Biso   1.000  H
  H129     1.0000 0.88400  0.82820  0.37340  Biso   1.000  H
  H130     1.0000 0.83847  0.38913  0.70673  Biso   1.000  H
  H131     1.0000 0.61087  0.44933  0.70673  Biso   1.000  H
  H132     1.0000 0.55067  0.16153  0.70673  Biso   1.000  H
  H133     1.0000 0.50513  0.72247  0.04007  Biso   1.000  H
  H134     1.0000 0.27753  0.78267  0.04007  Biso   1.000  H
  H135     1.0000 0.21733  0.49487  0.04007  Biso   1.000  H
  H136     1.0000 0.82820  0.94420  0.62660  Biso   1.000  H
  H137     1.0000 0.05580  0.88400  0.62660  Biso   1.000  H
  H138     1.0000 0.11600  0.17180  0.62660  Biso   1.000  H
  H139     1.0000 0.49487  0.27753  0.95993  Biso   1.000  H
  H140     1.0000 0.72247  0.21733  0.95993  Biso   1.000  H
  H141     1.0000 0.78267  0.50513  0.95993  Biso   1.000  H
  H142     1.0000 0.16153  0.61087  0.29327  Biso   1.000  H
  H143     1.0000 0.38913  0.55067  0.29327  Biso   1.000  H
  H144     1.0000 0.44933  0.83847  0.29327  Biso   1.000  H
  H145     1.0000 0.22650  0.11320  0.40230  Biso   1.000  H
  H146     1.0000 0.88680  0.11330  0.40230  Biso   1.000  H
  H147     1.0000 0.88670  0.77350  0.40230  Biso   1.000  H
  H148     1.0000 0.89317  0.44653  0.73563  Biso   1.000  H
  H149     1.0000 0.55347  0.44663  0.73563  Biso   1.000  H
  H150     1.0000 0.55337  0.10683  0.73563  Biso   1.000  H
  H151     1.0000 0.55983  0.77987  0.06897  Biso   1.000  H
  H152     1.0000 0.22013  0.77997  0.06897  Biso   1.000  H
  H153     1.0000 0.22003  0.44017  0.06897  Biso   1.000  H
  H154     1.0000 0.77350  0.88680  0.59770  Biso   1.000  H
  H155     1.0000 0.11320  0.88670  0.59770  Biso   1.000  H
  H156     1.0000 0.11330  0.22650  0.59770  Biso   1.000  H
  H157     1.0000 0.44017  0.22013  0.93103  Biso   1.000  H
  H158     1.0000 0.77987  0.22003  0.93103  Biso   1.000  H
  H159     1.0000 0.77997  0.55983  0.93103  Biso   1.000  H
  H160     1.0000 0.10683  0.55347  0.26437  Biso   1.000  H
  H161     1.0000 0.44653  0.55337  0.26437  Biso   1.000  H
  H162     1.0000 0.44663  0.89317  0.26437  Biso   1.000  H
  H163     1.0000 0.17190  0.11590  0.37410  Biso   1.000  H
  H164     1.0000 0.88410  0.05600  0.37410  Biso   1.000  H
  H165     1.0000 0.94400  0.82810  0.37410  Biso   1.000  H
  H166     1.0000 0.83857  0.44923  0.70743  Biso   1.000  H
  H167     1.0000 0.55077  0.38933  0.70743  Biso   1.000  H
  H168     1.0000 0.61067  0.16143  0.70743  Biso   1.000  H
  H169     1.0000 0.50523  0.78257  0.04077  Biso   1.000  H
  H170     1.0000 0.21743  0.72267  0.04077  Biso   1.000  H
  H171     1.0000 0.27733  0.49477  0.04077  Biso   1.000  H
  H172     1.0000 0.82810  0.88410  0.62590  Biso   1.000  H
  H173     1.0000 0.11590  0.94400  0.62590  Biso   1.000  H
  H174     1.0000 0.05600  0.17190  0.62590  Biso   1.000  H
  H175     1.0000 0.49477  0.21743  0.95923  Biso   1.000  H
  H176     1.0000 0.78257  0.27733  0.95923  Biso   1.000  H
  H177     1.0000 0.72267  0.50523  0.95923  Biso   1.000  H
  H178     1.0000 0.16143  0.55077  0.29257  Biso   1.000  H
  H179     1.0000 0.44923  0.61067  0.29257  Biso   1.000  H
  H180     1.0000 0.38933  0.83857  0.29257  Biso   1.000  H
  C145     1.0000 0.43362  0.96281  0.94377  Biso   1.000  C
  C146     1.0000 0.03719  0.47081  0.94377  Biso   1.000  C
  C147     1.0000 0.52919  0.56638  0.94377  Biso   1.000  C
  C148     1.0000 0.10029  0.29614  0.27710  Biso   1.000  C
  C149     1.0000 0.70386  0.80414  0.27710  Biso   1.000  C
  C150     1.0000 0.19586  0.89971  0.27710  Biso   1.000  C
  C151     1.0000 0.76695  0.62948  0.61044  Biso   1.000  C
  C152     1.0000 0.37052  0.13748  0.61044  Biso   1.000  C
  C153     1.0000 0.86252  0.23305  0.61044  Biso   1.000  C
  C154     1.0000 0.56638  0.03719  0.05623  Biso   1.000  C
  C155     1.0000 0.96281  0.52919  0.05623  Biso   1.000  C
  C156     1.0000 0.47081  0.43362  0.05623  Biso   1.000  C
  C157     1.0000 0.23305  0.37052  0.38956  Biso   1.000  C
  C158     1.0000 0.62948  0.86252  0.38956  Biso   1.000  C
  C159     1.0000 0.13748  0.76695  0.38956  Biso   1.000  C
  C160     1.0000 0.89971  0.70386  0.72290  Biso   1.000  C
  C161     1.0000 0.29614  0.19586  0.72290  Biso   1.000  C
  C162     1.0000 0.80414  0.10029  0.72290  Biso   1.000  C
  C163     1.0000 0.49023  0.98073  0.97184  Biso   1.000  C
  C164     1.0000 0.01927  0.50950  0.97184  Biso   1.000  C
  C165     1.0000 0.49050  0.50977  0.97184  Biso   1.000  C
  C166     1.0000 0.15690  0.31406  0.30517  Biso   1.000  C
  C167     1.0000 0.68594  0.84283  0.30517  Biso   1.000  C
  C168     1.0000 0.15717  0.84310  0.30517  Biso   1.000  C
  C169     1.0000 0.82356  0.64740  0.63851  Biso   1.000  C
  C170     1.0000 0.35260  0.17617  0.63851  Biso   1.000  C
  C171     1.0000 0.82383  0.17644  0.63851  Biso   1.000  C
  C172     1.0000 0.50977  0.01927  0.02816  Biso   1.000  C
  C173     1.0000 0.98073  0.49050  0.02816  Biso   1.000  C
  C174     1.0000 0.50950  0.49023  0.02816  Biso   1.000  C
  C175     1.0000 0.17644  0.35260  0.36149  Biso   1.000  C
  C176     1.0000 0.64740  0.82383  0.36149  Biso   1.000  C
  C177     1.0000 0.17617  0.82356  0.36149  Biso   1.000  C
  C178     1.0000 0.84310  0.68594  0.69483  Biso   1.000  C
  C179     1.0000 0.31406  0.15717  0.69483  Biso   1.000  C
  C180     1.0000 0.84283  0.15690  0.69483  Biso   1.000  C
  C181     1.0000 0.47077  0.03732  0.05612  Biso   1.000  C
  C182     1.0000 0.96268  0.43345  0.05612  Biso   1.000  C
  C183     1.0000 0.56655  0.52923  0.05612  Biso   1.000  C
  C184     1.0000 0.13744  0.37065  0.38945  Biso   1.000  C
  C185     1.0000 0.62935  0.76678  0.38945  Biso   1.000  C
  C186     1.0000 0.23322  0.86256  0.38945  Biso   1.000  C
  C187     1.0000 0.80410  0.70399  0.72279  Biso   1.000  C
  C188     1.0000 0.29601  0.10012  0.72279  Biso   1.000  C
  C189     1.0000 0.89988  0.19590  0.72279  Biso   1.000  C
  C190     1.0000 0.52923  0.96268  0.94388  Biso   1.000  C
  C191     1.0000 0.03732  0.56655  0.94388  Biso   1.000  C
  C192     1.0000 0.43345  0.47077  0.94388  Biso   1.000  C
  C193     1.0000 0.19590  0.29601  0.27721  Biso   1.000  C
  C194     1.0000 0.70399  0.89988  0.27721  Biso   1.000  C
  C195     1.0000 0.10012  0.80410  0.27721  Biso   1.000  C
  C196     1.0000 0.86256  0.62935  0.61055  Biso   1.000  C
  C197     1.0000 0.37065  0.23322  0.61055  Biso   1.000  C
  C198     1.0000 0.76678  0.13744  0.61055  Biso   1.000  C
  C199     1.0000 0.49015  0.07802  0.11652  Biso   1.000  C
  C200     1.0000 0.92198  0.41213  0.11652  Biso   1.000  C
  C201     1.0000 0.58787  0.50985  0.11652  Biso   1.000  C
  C202     1.0000 0.15682  0.41135  0.44985  Biso   1.000  C
  C203     1.0000 0.58865  0.74546  0.44985  Biso   1.000  C
  C204     1.0000 0.25454  0.84318  0.44985  Biso   1.000  C
  C205     1.0000 0.82348  0.74469  0.78319  Biso   1.000  C
  C206     1.0000 0.25531  0.07880  0.78319  Biso   1.000  C
  C207     1.0000 0.92120  0.17652  0.78319  Biso   1.000  C
  C208     1.0000 0.50985  0.92198  0.88348  Biso   1.000  C
  C209     1.0000 0.07802  0.58787  0.88348  Biso   1.000  C
  C210     1.0000 0.41213  0.49015  0.88348  Biso   1.000  C
  C211     1.0000 0.17652  0.25531  0.21681  Biso   1.000  C
  C212     1.0000 0.74469  0.92120  0.21681  Biso   1.000  C
  C213     1.0000 0.07880  0.82348  0.21681  Biso   1.000  C
  C214     1.0000 0.84318  0.58865  0.55015  Biso   1.000  C
  C215     1.0000 0.41135  0.25454  0.55015  Biso   1.000  C
  C216     1.0000 0.74546  0.15682  0.55015  Biso   1.000  C
  H181     1.0000 0.50690  0.11800  0.10000  Biso   1.000  H
  H182     1.0000 0.88200  0.38890  0.10000  Biso   1.000  H
  H183     1.0000 0.61110  0.49310  0.10000  Biso   1.000  H
  H184     1.0000 0.17357  0.45133  0.43333  Biso   1.000  H
  H185     1.0000 0.54867  0.72223  0.43333  Biso   1.000  H
  H186     1.0000 0.27777  0.82643  0.43333  Biso   1.000  H
  H187     1.0000 0.84023  0.78467  0.76667  Biso   1.000  H
  H188     1.0000 0.21533  0.05557  0.76667  Biso   1.000  H
  H189     1.0000 0.94443  0.15977  0.76667  Biso   1.000  H
  H190     1.0000 0.49310  0.88200  0.90000  Biso   1.000  H
  H191     1.0000 0.11800  0.61110  0.90000  Biso   1.000  H
  H192     1.0000 0.38890  0.50690  0.90000  Biso   1.000  H
  H193     1.0000 0.15977  0.21533  0.23333  Biso   1.000  H
  H194     1.0000 0.78467  0.94443  0.23333  Biso   1.000  H
  H195     1.0000 0.05557  0.84023  0.23333  Biso   1.000  H
  H196     1.0000 0.82643  0.54867  0.56667  Biso   1.000  H
  H197     1.0000 0.45133  0.27777  0.56667  Biso   1.000  H
  H198     1.0000 0.72223  0.17357  0.56667  Biso   1.000  H
  H199     1.0000 0.45610  0.06940  0.14400  Biso   1.000  H
  H200     1.0000 0.93060  0.38670  0.14400  Biso   1.000  H
  H201     1.0000 0.61330  0.54390  0.14400  Biso   1.000  H
  H202     1.0000 0.12277  0.40273  0.47733  Biso   1.000  H
  H203     1.0000 0.59727  0.72003  0.47733  Biso   1.000  H
  H204     1.0000 0.27997  0.87723  0.47733  Biso   1.000  H
  H205     1.0000 0.78943  0.73607  0.81067  Biso   1.000  H
  H206     1.0000 0.26393  0.05337  0.81067  Biso   1.000  H
  H207     1.0000 0.94663  0.21057  0.81067  Biso   1.000  H
  H208     1.0000 0.54390  0.93060  0.85600  Biso   1.000  H
  H209     1.0000 0.06940  0.61330  0.85600  Biso   1.000  H
  H210     1.0000 0.38670  0.45610  0.85600  Biso   1.000  H
  H211     1.0000 0.21057  0.26393  0.18933  Biso   1.000  H
  H212     1.0000 0.73607  0.94663  0.18933  Biso   1.000  H
  H213     1.0000 0.05337  0.78943  0.18933  Biso   1.000  H
  H214     1.0000 0.87723  0.59727  0.52267  Biso   1.000  H
  H215     1.0000 0.40273  0.27997  0.52267  Biso   1.000  H
  H216     1.0000 0.72003  0.12277  0.52267  Biso   1.000  H
  C217     1.0000 0.53734  0.07424  0.16224  Biso   1.000  C
  C218     1.0000 0.92576  0.46310  0.16224  Biso   1.000  C
  C219     1.0000 0.53690  0.46266  0.16224  Biso   1.000  C
  C220     1.0000 0.20401  0.40757  0.49557  Biso   1.000  C
  C221     1.0000 0.59243  0.79643  0.49557  Biso   1.000  C
  C222     1.0000 0.20357  0.79599  0.49557  Biso   1.000  C
  C223     1.0000 0.87067  0.74091  0.82891  Biso   1.000  C
  C224     1.0000 0.25909  0.12977  0.82891  Biso   1.000  C
  C225     1.0000 0.87023  0.12933  0.82891  Biso   1.000  C
  C226     1.0000 0.46266  0.92576  0.83776  Biso   1.000  C
  C227     1.0000 0.07424  0.53690  0.83776  Biso   1.000  C
  C228     1.0000 0.46310  0.53734  0.83776  Biso   1.000  C
  C229     1.0000 0.12933  0.25909  0.17109  Biso   1.000  C
  C230     1.0000 0.74091  0.87023  0.17109  Biso   1.000  C
  C231     1.0000 0.12977  0.87067  0.17109  Biso   1.000  C
  C232     1.0000 0.79599  0.59243  0.50443  Biso   1.000  C
  C233     1.0000 0.40757  0.20357  0.50443  Biso   1.000  C
  C234     1.0000 0.79643  0.20401  0.50443  Biso   1.000  C
  C235     1.0000 0.41231  0.92210  0.88328  Biso   1.000  C
  C236     1.0000 0.07790  0.49021  0.88328  Biso   1.000  C
  C237     1.0000 0.50979  0.58769  0.88328  Biso   1.000  C
  C238     1.0000 0.07898  0.25543  0.21661  Biso   1.000  C
  C239     1.0000 0.74457  0.82354  0.21661  Biso   1.000  C
  C240     1.0000 0.17646  0.92102  0.21661  Biso   1.000  C
  C241     1.0000 0.74564  0.58877  0.54995  Biso   1.000  C
  C242     1.0000 0.41123  0.15688  0.54995  Biso   1.000  C
  C243     1.0000 0.84312  0.25436  0.54995  Biso   1.000  C
  C244     1.0000 0.58769  0.07790  0.11672  Biso   1.000  C
  C245     1.0000 0.92210  0.50979  0.11672  Biso   1.000  C
  C246     1.0000 0.49021  0.41231  0.11672  Biso   1.000  C
  C247     1.0000 0.25436  0.41123  0.45005  Biso   1.000  C
  C248     1.0000 0.58877  0.84312  0.45005  Biso   1.000  C
  C249     1.0000 0.15688  0.74564  0.45005  Biso   1.000  C
  C250     1.0000 0.92102  0.74457  0.78339  Biso   1.000  C
  C251     1.0000 0.25543  0.17646  0.78339  Biso   1.000  C
  C252     1.0000 0.82354  0.07898  0.78339  Biso   1.000  C
  H217     1.0000 0.38670  0.93050  0.85590  Biso   1.000  H
  H218     1.0000 0.06950  0.45620  0.85590  Biso   1.000  H
  H219     1.0000 0.54380  0.61330  0.85590  Biso   1.000  H
  H220     1.0000 0.05337  0.26383  0.18923  Biso   1.000  H
  H221     1.0000 0.73617  0.78953  0.18923  Biso   1.000  H
  H222     1.0000 0.21047  0.94663  0.18923  Biso   1.000  H
  H223     1.0000 0.72003  0.59717  0.52257  Biso   1.000  H
  H224     1.0000 0.40283  0.12287  0.52257  Biso   1.000  H
  H225     1.0000 0.87713  0.27997  0.52257  Biso   1.000  H
  H226     1.0000 0.61330  0.06950  0.14410  Biso   1.000  H
  H227     1.0000 0.93050  0.54380  0.14410  Biso   1.000  H
  H228     1.0000 0.45620  0.38670  0.14410  Biso   1.000  H
  H229     1.0000 0.27997  0.40283  0.47743  Biso   1.000  H
  H230     1.0000 0.59717  0.87713  0.47743  Biso   1.000  H
  H231     1.0000 0.12287  0.72003  0.47743  Biso   1.000  H
  H232     1.0000 0.94663  0.73617  0.81077  Biso   1.000  H
  H233     1.0000 0.26383  0.21047  0.81077  Biso   1.000  H
  H234     1.0000 0.78953  0.05337  0.81077  Biso   1.000  H
  H235     1.0000 0.38940  0.88220  0.90000  Biso   1.000  H
  H236     1.0000 0.11780  0.50720  0.90000  Biso   1.000  H
  H237     1.0000 0.49280  0.61060  0.90000  Biso   1.000  H
  H238     1.0000 0.05607  0.21553  0.23333  Biso   1.000  H
  H239     1.0000 0.78447  0.84053  0.23333  Biso   1.000  H
  H240     1.0000 0.15947  0.94393  0.23333  Biso   1.000  H
  H241     1.0000 0.72273  0.54887  0.56667  Biso   1.000  H
  H242     1.0000 0.45113  0.17387  0.56667  Biso   1.000  H
  H243     1.0000 0.82613  0.27727  0.56667  Biso   1.000  H
  H244     1.0000 0.61060  0.11780  0.10000  Biso   1.000  H
  H245     1.0000 0.88220  0.49280  0.10000  Biso   1.000  H
  H246     1.0000 0.50720  0.38940  0.10000  Biso   1.000  H
  H247     1.0000 0.27727  0.45113  0.43333  Biso   1.000  H
  H248     1.0000 0.54887  0.82613  0.43333  Biso   1.000  H
  H249     1.0000 0.17387  0.72273  0.43333  Biso   1.000  H
  H250     1.0000 0.94393  0.78447  0.76667  Biso   1.000  H
  H251     1.0000 0.21553  0.15947  0.76667  Biso   1.000  H
  H252     1.0000 0.84053  0.05607  0.76667  Biso   1.000  H
  C253     1.0000 0.50822  0.01640  0.20280  Biso   1.000  C
  C254     1.0000 0.98360  0.49182  0.20280  Biso   1.000  C
  C255     1.0000 0.50818  0.49178  0.20280  Biso   1.000  C
  C256     1.0000 0.17489  0.34973  0.53613  Biso   1.000  C
  C257     1.0000 0.65027  0.82515  0.53613  Biso   1.000  C
  C258     1.0000 0.17485  0.82511  0.53613  Biso   1.000  C
  C259     1.0000 0.84155  0.68307  0.86947  Biso   1.000  C
  C260     1.0000 0.31693  0.15849  0.86947  Biso   1.000  C
  C261     1.0000 0.84151  0.15845  0.86947  Biso   1.000  C
  C262     1.0000 0.49178  0.98360  0.79720  Biso   1.000  C
  C263     1.0000 0.01640  0.50818  0.79720  Biso   1.000  C
  C264     1.0000 0.49182  0.50822  0.79720  Biso   1.000  C
  C265     1.0000 0.15845  0.31693  0.13053  Biso   1.000  C
  C266     1.0000 0.68307  0.84151  0.13053  Biso   1.000  C
  C267     1.0000 0.15849  0.84155  0.13053  Biso   1.000  C
  C268     1.0000 0.82511  0.65027  0.46387  Biso   1.000  C
  C269     1.0000 0.34973  0.17485  0.46387  Biso   1.000  C
  C270     1.0000 0.82515  0.17489  0.46387  Biso   1.000  C
  H253     1.0000 0.47440  0.01260  0.22710  Biso   1.000  H
  H254     1.0000 0.98740  0.46180  0.22710  Biso   1.000  H
  H255     1.0000 0.53820  0.52560  0.22710  Biso   1.000  H
  H256     1.0000 0.14107  0.34593  0.56043  Biso   1.000  H
  H257     1.0000 0.65407  0.79513  0.56043  Biso   1.000  H
  H258     1.0000 0.20487  0.85893  0.56043  Biso   1.000  H
  H259     1.0000 0.80773  0.67927  0.89377  Biso   1.000  H
  H260     1.0000 0.32073  0.12847  0.89377  Biso   1.000  H
  H261     1.0000 0.87153  0.19227  0.89377  Biso   1.000  H
  H262     1.0000 0.52560  0.98740  0.77290  Biso   1.000  H
  H263     1.0000 0.01260  0.53820  0.77290  Biso   1.000  H
  H264     1.0000 0.46180  0.47440  0.77290  Biso   1.000  H
  H265     1.0000 0.19227  0.32073  0.10623  Biso   1.000  H
  H266     1.0000 0.67927  0.87153  0.10623  Biso   1.000  H
  H267     1.0000 0.12847  0.80773  0.10623  Biso   1.000  H
  H268     1.0000 0.85893  0.65407  0.43957  Biso   1.000  H
  H269     1.0000 0.34593  0.20487  0.43957  Biso   1.000  H
  H270     1.0000 0.79513  0.14107  0.43957  Biso   1.000  H
  H271     1.0000 0.49550  0.98340  0.17190  Biso   1.000  H
  H272     1.0000 0.01660  0.51210  0.17190  Biso   1.000  H
  H273     1.0000 0.48790  0.50450  0.17190  Biso   1.000  H
  H274     1.0000 0.16217  0.31673  0.50523  Biso   1.000  H
  H275     1.0000 0.68327  0.84543  0.50523  Biso   1.000  H
  H276     1.0000 0.15457  0.83783  0.50523  Biso   1.000  H
  H277     1.0000 0.82883  0.65007  0.83857  Biso   1.000  H
  H278     1.0000 0.34993  0.17877  0.83857  Biso   1.000  H
  H279     1.0000 0.82123  0.17117  0.83857  Biso   1.000  H
  H280     1.0000 0.50450  0.01660  0.82810  Biso   1.000  H
  H281     1.0000 0.98340  0.48790  0.82810  Biso   1.000  H
  H282     1.0000 0.51210  0.49550  0.82810  Biso   1.000  H
  H283     1.0000 0.17117  0.34993  0.16143  Biso   1.000  H
  H284     1.0000 0.65007  0.82123  0.16143  Biso   1.000  H
  H285     1.0000 0.17877  0.82883  0.16143  Biso   1.000  H
  H286     1.0000 0.83783  0.68327  0.49477  Biso   1.000  H
  H287     1.0000 0.31673  0.15457  0.49477  Biso   1.000  H
  H288     1.0000 0.84543  0.16217  0.49477  Biso   1.000  H
  H289     1.0000 0.53560  0.01560  0.23530  Biso   1.000  H
  H290     1.0000 0.98440  0.52000  0.23530  Biso   1.000  H
  H291     1.0000 0.48000  0.46440  0.23530  Biso   1.000  H
  H292     1.0000 0.20227  0.34893  0.56863  Biso   1.000  H
  H293     1.0000 0.65107  0.85333  0.56863  Biso   1.000  H
  H294     1.0000 0.14667  0.79773  0.56863  Biso   1.000  H
  H295     1.0000 0.86893  0.68227  0.90197  Biso   1.000  H
  H296     1.0000 0.31773  0.18667  0.90197  Biso   1.000  H
  H297     1.0000 0.81333  0.13107  0.90197  Biso   1.000  H
  H298     1.0000 0.46440  0.98440  0.76470  Biso   1.000  H
  H299     1.0000 0.01560  0.48000  0.76470  Biso   1.000  H
  H300     1.0000 0.52000  0.53560  0.76470  Biso   1.000  H
  H301     1.0000 0.13107  0.31773  0.09803  Biso   1.000  H
  H302     1.0000 0.68227  0.81333  0.09803  Biso   1.000  H
  H303     1.0000 0.18667  0.86893  0.09803  Biso   1.000  H
  H304     1.0000 0.79773  0.65107  0.43137  Biso   1.000  H
  H305     1.0000 0.34893  0.14667  0.43137  Biso   1.000  H
  H306     1.0000 0.85333  0.20227  0.43137  Biso   1.000  H
  C271     1.0000 0.56336  0.12680  0.21170  Biso   1.000  C
  C272     1.0000 0.87320  0.43656  0.21170  Biso   1.000  C
  C273     1.0000 0.56344  0.43664  0.21170  Biso   1.000  C
  C274     1.0000 0.23003  0.46013  0.54503  Biso   1.000  C
  C275     1.0000 0.53987  0.76989  0.54503  Biso   1.000  C
  C276     1.0000 0.23011  0.76997  0.54503  Biso   1.000  C
  C277     1.0000 0.89669  0.79347  0.87837  Biso   1.000  C
  C278     1.0000 0.20653  0.10323  0.87837  Biso   1.000  C
  C279     1.0000 0.89677  0.10331  0.87837  Biso   1.000  C
  C280     1.0000 0.43664  0.87320  0.78830  Biso   1.000  C
  C281     1.0000 0.12680  0.56344  0.78830  Biso   1.000  C
  C282     1.0000 0.43656  0.56336  0.78830  Biso   1.000  C
  C283     1.0000 0.10331  0.20653  0.12163  Biso   1.000  C
  C284     1.0000 0.79347  0.89677  0.12163  Biso   1.000  C
  C285     1.0000 0.10323  0.89669  0.12163  Biso   1.000  C
  C286     1.0000 0.76997  0.53987  0.45497  Biso   1.000  C
  C287     1.0000 0.46013  0.23011  0.45497  Biso   1.000  C
  C288     1.0000 0.76989  0.23003  0.45497  Biso   1.000  C
  H307     1.0000 0.58170  0.16250  0.18480  Biso   1.000  H
  H308     1.0000 0.83750  0.41920  0.18480  Biso   1.000  H
  H309     1.0000 0.58080  0.41830  0.18480  Biso   1.000  H
  H310     1.0000 0.24837  0.49583  0.51813  Biso   1.000  H
  H311     1.0000 0.50417  0.75253  0.51813  Biso   1.000  H
  H312     1.0000 0.24747  0.75163  0.51813  Biso   1.000  H
  H313     1.0000 0.91503  0.82917  0.85147  Biso   1.000  H
  H314     1.0000 0.17083  0.08587  0.85147  Biso   1.000  H
  H315     1.0000 0.91413  0.08497  0.85147  Biso   1.000  H
  H316     1.0000 0.41830  0.83750  0.81520  Biso   1.000  H
  H317     1.0000 0.16250  0.58080  0.81520  Biso   1.000  H
  H318     1.0000 0.41920  0.58170  0.81520  Biso   1.000  H
  H319     1.0000 0.08497  0.17083  0.14853  Biso   1.000  H
  H320     1.0000 0.82917  0.91413  0.14853  Biso   1.000  H
  H321     1.0000 0.08587  0.91503  0.14853  Biso   1.000  H
  H322     1.0000 0.75163  0.50417  0.48187  Biso   1.000  H
  H323     1.0000 0.49583  0.24747  0.48187  Biso   1.000  H
  H324     1.0000 0.75253  0.24837  0.48187  Biso   1.000  H
  H325     1.0000 0.53300  0.12670  0.23980  Biso   1.000  H
  H326     1.0000 0.87330  0.40630  0.23980  Biso   1.000  H
  H327     1.0000 0.59370  0.46700  0.23980  Biso   1.000  H
  H328     1.0000 0.19967  0.46003  0.57313  Biso   1.000  H
  H329     1.0000 0.53997  0.73963  0.57313  Biso   1.000  H
  H330     1.0000 0.26037  0.80033  0.57313  Biso   1.000  H
  H331     1.0000 0.86633  0.79337  0.90647  Biso   1.000  H
  H332     1.0000 0.20663  0.07297  0.90647  Biso   1.000  H
  H333     1.0000 0.92703  0.13367  0.90647  Biso   1.000  H
  H334     1.0000 0.46700  0.87330  0.76020  Biso   1.000  H
  H335     1.0000 0.12670  0.59370  0.76020  Biso   1.000  H
  H336     1.0000 0.40630  0.53300  0.76020  Biso   1.000  H
  H337     1.0000 0.13367  0.20663  0.09353  Biso   1.000  H
  H338     1.0000 0.79337  0.92703  0.09353  Biso   1.000  H
  H339     1.0000 0.07297  0.86633  0.09353  Biso   1.000  H
  H340     1.0000 0.80033  0.53997  0.42687  Biso   1.000  H
  H341     1.0000 0.46003  0.26037  0.42687  Biso   1.000  H
  H342     1.0000 0.73963  0.19967  0.42687  Biso   1.000  H
  H343     1.0000 0.59270  0.12630  0.24110  Biso   1.000  H
  H344     1.0000 0.87370  0.46640  0.24110  Biso   1.000  H
  H345     1.0000 0.53360  0.40730  0.24110  Biso   1.000  H
  H346     1.0000 0.25937  0.45963  0.57443  Biso   1.000  H
  H347     1.0000 0.54037  0.79973  0.57443  Biso   1.000  H
  H348     1.0000 0.20027  0.74063  0.57443  Biso   1.000  H
  H349     1.0000 0.92603  0.79297  0.90777  Biso   1.000  H
  H350     1.0000 0.20703  0.13307  0.90777  Biso   1.000  H
  H351     1.0000 0.86693  0.07397  0.90777  Biso   1.000  H
  H352     1.0000 0.40730  0.87370  0.75890  Biso   1.000  H
  H353     1.0000 0.12630  0.53360  0.75890  Biso   1.000  H
  H354     1.0000 0.46640  0.59270  0.75890  Biso   1.000  H
  H355     1.0000 0.07397  0.20703  0.09223  Biso   1.000  H
  H356     1.0000 0.79297  0.86693  0.09223  Biso   1.000  H
  H357     1.0000 0.13307  0.92603  0.09223  Biso   1.000  H
  H358     1.0000 0.74063  0.54037  0.42557  Biso   1.000  H
  H359     1.0000 0.45963  0.20027  0.42557  Biso   1.000  H
  H360     1.0000 0.79973  0.25937  0.42557  Biso   1.000  H
  N73      1.0000 0.59110  0.18250  0.00660  Biso   1.000  N
  N74      1.0000 0.81750  0.40860  0.00660  Biso   1.000  N
  N75      1.0000 0.59140  0.40890  0.00660  Biso   1.000  N
  N76      1.0000 0.25777  0.51583  0.33993  Biso   1.000  N
  N77      1.0000 0.48417  0.74193  0.33993  Biso   1.000  N
  N78      1.0000 0.25807  0.74223  0.33993  Biso   1.000  N
  N79      1.0000 0.92443  0.84917  0.67327  Biso   1.000  N
  N80      1.0000 0.15083  0.07527  0.67327  Biso   1.000  N
  N81      1.0000 0.92473  0.07557  0.67327  Biso   1.000  N
  N82      1.0000 0.40890  0.81750  0.99340  Biso   1.000  N
  N83      1.0000 0.18250  0.59140  0.99340  Biso   1.000  N
  N84      1.0000 0.40860  0.59110  0.99340  Biso   1.000  N
  N85      1.0000 0.07557  0.15083  0.32673  Biso   1.000  N
  N86      1.0000 0.84917  0.92473  0.32673  Biso   1.000  N
  N87      1.0000 0.07527  0.92443  0.32673  Biso   1.000  N
  N88      1.0000 0.74223  0.48417  0.66007  Biso   1.000  N
  N89      1.0000 0.51583  0.25807  0.66007  Biso   1.000  N
  N90      1.0000 0.74193  0.25777  0.66007  Biso   1.000  N
  C289     1.0000 0.58820  0.17620  0.94990  Biso   1.000  C
  C290     1.0000 0.82380  0.41200  0.94990  Biso   1.000  C
  C291     1.0000 0.58800  0.41180  0.94990  Biso   1.000  C
  C292     1.0000 0.25487  0.50953  0.28323  Biso   1.000  C
  C293     1.0000 0.49047  0.74533  0.28323  Biso   1.000  C
  C294     1.0000 0.25467  0.74513  0.28323  Biso   1.000  C
  C295     1.0000 0.92153  0.84287  0.61657  Biso   1.000  C
  C296     1.0000 0.15713  0.07867  0.61657  Biso   1.000  C
  C297     1.0000 0.92133  0.07847  0.61657  Biso   1.000  C
  C298     1.0000 0.41180  0.82380  0.05010  Biso   1.000  C
  C299     1.0000 0.17620  0.58800  0.05010  Biso   1.000  C
  C300     1.0000 0.41200  0.58820  0.05010  Biso   1.000  C
  C301     1.0000 0.07847  0.15713  0.38343  Biso   1.000  C
  C302     1.0000 0.84287  0.92133  0.38343  Biso   1.000  C
  C303     1.0000 0.07867  0.92153  0.38343  Biso   1.000  C
  C304     1.0000 0.74513  0.49047  0.71677  Biso   1.000  C
  C305     1.0000 0.50953  0.25467  0.71677  Biso   1.000  C
  C306     1.0000 0.74533  0.25487  0.71677  Biso   1.000  C
  C307     1.0000 0.58440  0.16880  0.87520  Biso   1.000  C
  C308     1.0000 0.83120  0.41560  0.87520  Biso   1.000  C
  C309     1.0000 0.58440  0.41560  0.87520  Biso   1.000  C
  C310     1.0000 0.25107  0.50213  0.20853  Biso   1.000  C
  C311     1.0000 0.49787  0.74893  0.20853  Biso   1.000  C
  C312     1.0000 0.25107  0.74893  0.20853  Biso   1.000  C
  C313     1.0000 0.91773  0.83547  0.54187  Biso   1.000  C
  C314     1.0000 0.16453  0.08227  0.54187  Biso   1.000  C
  C315     1.0000 0.91773  0.08227  0.54187  Biso   1.000  C
  C316     1.0000 0.41560  0.83120  0.12480  Biso   1.000  C
  C317     1.0000 0.16880  0.58440  0.12480  Biso   1.000  C
  C318     1.0000 0.41560  0.58440  0.12480  Biso   1.000  C
  C319     1.0000 0.08227  0.16453  0.45813  Biso   1.000  C
  C320     1.0000 0.83547  0.91773  0.45813  Biso   1.000  C
  C321     1.0000 0.08227  0.91773  0.45813  Biso   1.000  C
  C322     1.0000 0.74893  0.49787  0.79147  Biso   1.000  C
  C323     1.0000 0.50213  0.25107  0.79147  Biso   1.000  C
  C324     1.0000 0.74893  0.25107  0.79147  Biso   1.000  C
  N91      1.0000 0.66670  0.33330  0.92130  Biso   1.000  N
  N92      1.0000 0.33337  0.66663  0.25463  Biso   1.000  N
  N93      1.0000 0.00003  0.99997  0.58797  Biso   1.000  N
  N94      1.0000 0.33330  0.66670  0.07870  Biso   1.000  N
  N95      1.0000 0.99997  0.00003  0.41203  Biso   1.000  N
  N96      1.0000 0.66663  0.33337  0.74537  Biso   1.000  N
  C325     1.0000 0.66670  0.33330  0.98190  Biso   1.000  C
  C326     1.0000 0.33337  0.66663  0.31523  Biso   1.000  C
  C327     1.0000 0.00003  0.99997  0.64857  Biso   1.000  C
  C328     1.0000 0.33330  0.66670  0.01810  Biso   1.000  C
  C329     1.0000 0.99997  0.00003  0.35143  Biso   1.000  C
  C330     1.0000 0.66663  0.33337  0.68477  Biso   1.000  C
  C331     1.0000 0.66670  0.33330  0.05150  Biso   1.000  C
  C332     1.0000 0.33337  0.66663  0.38483  Biso   1.000  C
  C333     1.0000 0.00003  0.99997  0.71817  Biso   1.000  C
  C334     1.0000 0.33330  0.66670  0.94850  Biso   1.000  C
  C335     1.0000 0.99997  0.00003  0.28183  Biso   1.000  C
  C336     1.0000 0.66663  0.33337  0.61517  Biso   1.000  C
