data_image0
_cell_length_a       52.832
_cell_length_b       14.8628
_cell_length_c       18.0916
_cell_angle_alpha    90
_cell_angle_beta     103.36
_cell_angle_gamma    90

_symmetry_space_group_name_H-M    "P 1"
_symmetry_int_tables_number       1

loop_
  _symmetry_equiv_pos_as_xyz
  'x, y, z'

loop_
  _atom_site_label
  _atom_site_occupancy
  _atom_site_fract_x
  _atom_site_fract_y
  _atom_site_fract_z
  _atom_site_thermal_displace_type
  _atom_site_B_iso_or_equiv
  _atom_site_type_symbol
  Cu1      1.0000 0.15170  0.72557  0.80161  Biso   1.000  Cu
  Cu2      1.0000 0.84830  0.72557  0.69839  Biso   1.000  Cu
  Cu3      1.0000 0.65170  0.22557  0.80161  Biso   1.000  Cu
  Cu4      1.0000 0.34830  0.22557  0.69839  Biso   1.000  Cu
  Cu5      1.0000 0.84830  0.27443  0.19839  Biso   1.000  Cu
  Cu6      1.0000 0.15170  0.27443  0.30161  Biso   1.000  Cu
  Cu7      1.0000 0.34830  0.77443  0.19839  Biso   1.000  Cu
  Cu8      1.0000 0.65170  0.77443  0.30161  Biso   1.000  Cu
  Cu9      1.0000 0.08581  0.83118  0.69461  Biso   1.000  Cu
  Cu10     1.0000 0.91419  0.83118  0.80539  Biso   1.000  Cu
  Cu11     1.0000 0.58581  0.33118  0.69461  Biso   1.000  Cu
  Cu12     1.0000 0.41419  0.33118  0.80539  Biso   1.000  Cu
  Cu13     1.0000 0.91419  0.16882  0.30539  Biso   1.000  Cu
  Cu14     1.0000 0.08581  0.16882  0.19461  Biso   1.000  Cu
  Cu15     1.0000 0.41419  0.66882  0.30539  Biso   1.000  Cu
  Cu16     1.0000 0.58581  0.66882  0.19461  Biso   1.000  Cu
  P1       1.0000 0.12938  0.73260  0.89443  Biso   1.000  P
  P2       1.0000 0.87062  0.73260  0.60557  Biso   1.000  P
  P3       1.0000 0.62938  0.23260  0.89443  Biso   1.000  P
  P4       1.0000 0.37062  0.23260  0.60557  Biso   1.000  P
  P5       1.0000 0.87062  0.26740  0.10557  Biso   1.000  P
  P6       1.0000 0.12938  0.26740  0.39443  Biso   1.000  P
  P7       1.0000 0.37062  0.76740  0.10557  Biso   1.000  P
  P8       1.0000 0.62938  0.76740  0.39443  Biso   1.000  P
  P9       1.0000 0.07897  0.83139  0.81250  Biso   1.000  P
  P10      1.0000 0.92103  0.83139  0.68750  Biso   1.000  P
  P11      1.0000 0.57897  0.33139  0.81250  Biso   1.000  P
  P12      1.0000 0.42103  0.33139  0.68750  Biso   1.000  P
  P13      1.0000 0.92103  0.16861  0.18750  Biso   1.000  P
  P14      1.0000 0.07897  0.16861  0.31250  Biso   1.000  P
  P15      1.0000 0.42103  0.66861  0.18750  Biso   1.000  P
  P16      1.0000 0.57897  0.66861  0.31250  Biso   1.000  P
  P17      1.0000 0.09607  0.72982  0.61485  Biso   1.000  P
  P18      1.0000 0.90393  0.72982  0.88515  Biso   1.000  P
  P19      1.0000 0.59607  0.22982  0.61485  Biso   1.000  P
  P20      1.0000 0.40393  0.22982  0.88515  Biso   1.000  P
  P21      1.0000 0.90393  0.27018  0.38515  Biso   1.000  P
  P22      1.0000 0.09607  0.27018  0.11485  Biso   1.000  P
  P23      1.0000 0.40393  0.77018  0.38515  Biso   1.000  P
  P24      1.0000 0.59607  0.77018  0.11485  Biso   1.000  P
  P25      1.0000 0.14585  0.63038  0.70299  Biso   1.000  P
  P26      1.0000 0.85415  0.63038  0.79701  Biso   1.000  P
  P27      1.0000 0.64585  0.13038  0.70299  Biso   1.000  P
  P28      1.0000 0.35415  0.13038  0.79701  Biso   1.000  P
  P29      1.0000 0.85415  0.36962  0.29701  Biso   1.000  P
  P30      1.0000 0.14585  0.36962  0.20299  Biso   1.000  P
  P31      1.0000 0.35415  0.86962  0.29701  Biso   1.000  P
  P32      1.0000 0.64585  0.86962  0.20299  Biso   1.000  P
  S1       1.0000 0.14182  0.94007  0.75969  Biso   1.000  S
  S2       1.0000 0.85818  0.94007  0.74031  Biso   1.000  S
  S3       1.0000 0.64182  0.44007  0.75969  Biso   1.000  S
  S4       1.0000 0.35818  0.44007  0.74031  Biso   1.000  S
  S5       1.0000 0.85818  0.05993  0.24031  Biso   1.000  S
  S6       1.0000 0.14182  0.05993  0.25969  Biso   1.000  S
  S7       1.0000 0.35818  0.55993  0.24031  Biso   1.000  S
  S8       1.0000 0.64182  0.55993  0.25969  Biso   1.000  S
  F1       1.0000 0.15707  0.01280  0.64570  Biso   1.000  F
  F2       1.0000 0.84293  0.01280  0.85430  Biso   1.000  F
  F3       1.0000 0.65707  0.51280  0.64570  Biso   1.000  F
  F4       1.0000 0.34293  0.51280  0.85430  Biso   1.000  F
  F5       1.0000 0.84293  0.98720  0.35430  Biso   1.000  F
  F6       1.0000 0.15707  0.98720  0.14570  Biso   1.000  F
  F7       1.0000 0.34293  0.48720  0.35430  Biso   1.000  F
  F8       1.0000 0.65707  0.48720  0.14570  Biso   1.000  F
  F9       1.0000 0.18588  0.01470  0.75140  Biso   1.000  F
  F10      1.0000 0.81412  0.01470  0.74860  Biso   1.000  F
  F11      1.0000 0.68588  0.51470  0.75140  Biso   1.000  F
  F12      1.0000 0.31412  0.51470  0.74860  Biso   1.000  F
  F13      1.0000 0.81412  0.98530  0.24860  Biso   1.000  F
  F14      1.0000 0.18588  0.98530  0.25140  Biso   1.000  F
  F15      1.0000 0.31412  0.48530  0.24860  Biso   1.000  F
  F16      1.0000 0.68588  0.48530  0.25140  Biso   1.000  F
  F17      1.0000 0.15346  0.10640  0.73360  Biso   1.000  F
  F18      1.0000 0.84654  0.10640  0.76640  Biso   1.000  F
  F19      1.0000 0.65346  0.60640  0.73360  Biso   1.000  F
  F20      1.0000 0.34654  0.60640  0.76640  Biso   1.000  F
  F21      1.0000 0.84654  0.89360  0.26640  Biso   1.000  F
  F22      1.0000 0.15346  0.89360  0.23360  Biso   1.000  F
  F23      1.0000 0.34654  0.39360  0.26640  Biso   1.000  F
  F24      1.0000 0.65346  0.39360  0.23360  Biso   1.000  F
  O1       1.0000 0.15392  0.85600  0.74580  Biso   1.000  O
  O2       1.0000 0.84608  0.85600  0.75420  Biso   1.000  O
  O3       1.0000 0.65392  0.35600  0.74580  Biso   1.000  O
  O4       1.0000 0.34608  0.35600  0.75420  Biso   1.000  O
  O5       1.0000 0.84608  0.14400  0.25420  Biso   1.000  O
  O6       1.0000 0.15392  0.14400  0.24580  Biso   1.000  O
  O7       1.0000 0.34608  0.64400  0.25420  Biso   1.000  O
  O8       1.0000 0.65392  0.64400  0.24580  Biso   1.000  O
  O9       1.0000 0.11537  0.95110  0.71534  Biso   1.000  O
  O10      1.0000 0.88463  0.95110  0.78466  Biso   1.000  O
  O11      1.0000 0.61537  0.45110  0.71534  Biso   1.000  O
  O12      1.0000 0.38463  0.45110  0.78466  Biso   1.000  O
  O13      1.0000 0.88463  0.04890  0.28466  Biso   1.000  O
  O14      1.0000 0.11537  0.04890  0.21534  Biso   1.000  O
  O15      1.0000 0.38463  0.54890  0.28466  Biso   1.000  O
  O16      1.0000 0.61537  0.54890  0.21534  Biso   1.000  O
  O17      1.0000 0.14607  0.96470  0.83850  Biso   1.000  O
  O18      1.0000 0.85393  0.96470  0.66150  Biso   1.000  O
  O19      1.0000 0.64607  0.46470  0.83850  Biso   1.000  O
  O20      1.0000 0.35393  0.46470  0.66150  Biso   1.000  O
  O21      1.0000 0.85393  0.03530  0.16150  Biso   1.000  O
  O22      1.0000 0.14607  0.03530  0.33850  Biso   1.000  O
  O23      1.0000 0.35393  0.53530  0.16150  Biso   1.000  O
  O24      1.0000 0.64607  0.53530  0.33850  Biso   1.000  O
  N1       1.0000 0.18996  0.73130  0.86340  Biso   1.000  N
  N2       1.0000 0.81004  0.73130  0.63660  Biso   1.000  N
  N3       1.0000 0.68996  0.23130  0.86340  Biso   1.000  N
  N4       1.0000 0.31004  0.23130  0.63660  Biso   1.000  N
  N5       1.0000 0.81004  0.26870  0.13660  Biso   1.000  N
  N6       1.0000 0.18996  0.26870  0.36340  Biso   1.000  N
  N7       1.0000 0.31004  0.76870  0.13660  Biso   1.000  N
  N8       1.0000 0.68996  0.76870  0.36340  Biso   1.000  N
  N9       1.0000 0.05428  0.90130  0.62830  Biso   1.000  N
  N10      1.0000 0.94572  0.90130  0.87170  Biso   1.000  N
  N11      1.0000 0.55428  0.40130  0.62830  Biso   1.000  N
  N12      1.0000 0.44572  0.40130  0.87170  Biso   1.000  N
  N13      1.0000 0.94572  0.09870  0.37170  Biso   1.000  N
  N14      1.0000 0.05428  0.09870  0.12830  Biso   1.000  N
  N15      1.0000 0.44572  0.59870  0.37170  Biso   1.000  N
  N16      1.0000 0.55428  0.59870  0.12830  Biso   1.000  N
  C1       1.0000 0.20444  0.80500  0.86850  Biso   1.000  C
  C2       1.0000 0.79556  0.80500  0.63150  Biso   1.000  C
  C3       1.0000 0.70444  0.30500  0.86850  Biso   1.000  C
  C4       1.0000 0.29556  0.30500  0.63150  Biso   1.000  C
  C5       1.0000 0.79556  0.19500  0.13150  Biso   1.000  C
  C6       1.0000 0.20444  0.19500  0.36850  Biso   1.000  C
  C7       1.0000 0.29556  0.69500  0.13150  Biso   1.000  C
  C8       1.0000 0.70444  0.69500  0.36850  Biso   1.000  C
  H1       1.0000 0.19840  0.85320  0.83450  Biso   1.000  H
  H2       1.0000 0.80160  0.85320  0.66550  Biso   1.000  H
  H3       1.0000 0.69840  0.35320  0.83450  Biso   1.000  H
  H4       1.0000 0.30160  0.35320  0.66550  Biso   1.000  H
  H5       1.0000 0.80160  0.14680  0.16550  Biso   1.000  H
  H6       1.0000 0.19840  0.14680  0.33450  Biso   1.000  H
  H7       1.0000 0.30160  0.64680  0.16550  Biso   1.000  H
  H8       1.0000 0.69840  0.64680  0.33450  Biso   1.000  H
  C9       1.0000 0.22815  0.81520  0.92160  Biso   1.000  C
  C10      1.0000 0.77185  0.81520  0.57840  Biso   1.000  C
  C11      1.0000 0.72815  0.31520  0.92160  Biso   1.000  C
  C12      1.0000 0.27185  0.31520  0.57840  Biso   1.000  C
  C13      1.0000 0.77185  0.18480  0.07840  Biso   1.000  C
  C14      1.0000 0.22815  0.18480  0.42160  Biso   1.000  C
  C15      1.0000 0.27185  0.68480  0.07840  Biso   1.000  C
  C16      1.0000 0.72815  0.68480  0.42160  Biso   1.000  C
  H9       1.0000 0.23780  0.86950  0.92360  Biso   1.000  H
  H10      1.0000 0.76220  0.86950  0.57640  Biso   1.000  H
  H11      1.0000 0.73780  0.36950  0.92360  Biso   1.000  H
  H12      1.0000 0.26220  0.36950  0.57640  Biso   1.000  H
  H13      1.0000 0.76220  0.13050  0.07640  Biso   1.000  H
  H14      1.0000 0.23780  0.13050  0.42360  Biso   1.000  H
  H15      1.0000 0.26220  0.63050  0.07640  Biso   1.000  H
  H16      1.0000 0.73780  0.63050  0.42360  Biso   1.000  H
  C17      1.0000 0.23745  0.74610  0.97100  Biso   1.000  C
  C18      1.0000 0.76255  0.74610  0.52900  Biso   1.000  C
  C19      1.0000 0.73745  0.24610  0.97100  Biso   1.000  C
  C20      1.0000 0.26255  0.24610  0.52900  Biso   1.000  C
  C21      1.0000 0.76255  0.25390  0.02900  Biso   1.000  C
  C22      1.0000 0.23745  0.25390  0.47100  Biso   1.000  C
  C23      1.0000 0.26255  0.75390  0.02900  Biso   1.000  C
  C24      1.0000 0.73745  0.75390  0.47100  Biso   1.000  C
  C25      1.0000 0.22205  0.66980  0.96660  Biso   1.000  C
  C26      1.0000 0.77795  0.66980  0.53340  Biso   1.000  C
  C27      1.0000 0.72205  0.16980  0.96660  Biso   1.000  C
  C28      1.0000 0.27795  0.16980  0.53340  Biso   1.000  C
  C29      1.0000 0.77795  0.33020  0.03340  Biso   1.000  C
  C30      1.0000 0.22205  0.33020  0.46660  Biso   1.000  C
  C31      1.0000 0.27795  0.83020  0.03340  Biso   1.000  C
  C32      1.0000 0.72205  0.83020  0.46660  Biso   1.000  C
  H17      1.0000 0.22750  0.62090  0.00030  Biso   1.000  H
  H18      1.0000 0.77250  0.62090  0.49970  Biso   1.000  H
  H19      1.0000 0.72750  0.12090  0.00030  Biso   1.000  H
  H20      1.0000 0.27250  0.12090  0.49970  Biso   1.000  H
  H21      1.0000 0.77250  0.37910  0.99970  Biso   1.000  H
  H22      1.0000 0.22750  0.37910  0.50030  Biso   1.000  H
  H23      1.0000 0.27250  0.87910  0.99970  Biso   1.000  H
  H24      1.0000 0.72750  0.87910  0.50030  Biso   1.000  H
  C33      1.0000 0.19893  0.66540  0.91320  Biso   1.000  C
  C34      1.0000 0.80107  0.66540  0.58680  Biso   1.000  C
  C35      1.0000 0.69893  0.16540  0.91320  Biso   1.000  C
  C36      1.0000 0.30107  0.16540  0.58680  Biso   1.000  C
  C37      1.0000 0.80107  0.33460  0.08680  Biso   1.000  C
  C38      1.0000 0.19893  0.33460  0.41320  Biso   1.000  C
  C39      1.0000 0.30107  0.83460  0.08680  Biso   1.000  C
  C40      1.0000 0.69893  0.83460  0.41320  Biso   1.000  C
  H25      1.0000 0.18870  0.61250  0.91140  Biso   1.000  H
  H26      1.0000 0.81130  0.61250  0.58860  Biso   1.000  H
  H27      1.0000 0.68870  0.11250  0.91140  Biso   1.000  H
  H28      1.0000 0.31130  0.11250  0.58860  Biso   1.000  H
  H29      1.0000 0.81130  0.38750  0.08860  Biso   1.000  H
  H30      1.0000 0.18870  0.38750  0.41140  Biso   1.000  H
  H31      1.0000 0.31130  0.88750  0.08860  Biso   1.000  H
  H32      1.0000 0.68870  0.88750  0.41140  Biso   1.000  H
  C41      1.0000 0.15244  0.74830  0.98590  Biso   1.000  C
  C42      1.0000 0.84756  0.74830  0.51410  Biso   1.000  C
  C43      1.0000 0.65244  0.24830  0.98590  Biso   1.000  C
  C44      1.0000 0.34756  0.24830  0.51410  Biso   1.000  C
  C45      1.0000 0.84756  0.25170  0.01410  Biso   1.000  C
  C46      1.0000 0.15244  0.25170  0.48590  Biso   1.000  C
  C47      1.0000 0.34756  0.75170  0.01410  Biso   1.000  C
  C48      1.0000 0.65244  0.75170  0.48590  Biso   1.000  C
  C49      1.0000 0.16615  0.82880  0.99990  Biso   1.000  C
  C50      1.0000 0.83385  0.82880  0.50010  Biso   1.000  C
  C51      1.0000 0.66615  0.32880  0.99990  Biso   1.000  C
  C52      1.0000 0.33385  0.32880  0.50010  Biso   1.000  C
  C53      1.0000 0.83385  0.17120  0.00010  Biso   1.000  C
  C54      1.0000 0.16615  0.17120  0.49990  Biso   1.000  C
  C55      1.0000 0.33385  0.67120  0.00010  Biso   1.000  C
  C56      1.0000 0.66615  0.67120  0.49990  Biso   1.000  C
  H33      1.0000 0.16270  0.87620  0.96380  Biso   1.000  H
  H34      1.0000 0.83730  0.87620  0.53620  Biso   1.000  H
  H35      1.0000 0.66270  0.37620  0.96380  Biso   1.000  H
  H36      1.0000 0.33730  0.37620  0.53620  Biso   1.000  H
  H37      1.0000 0.83730  0.12380  0.03620  Biso   1.000  H
  H38      1.0000 0.16270  0.12380  0.46380  Biso   1.000  H
  H39      1.0000 0.33730  0.62380  0.03620  Biso   1.000  H
  H40      1.0000 0.66270  0.62380  0.46380  Biso   1.000  H
  C57      1.0000 0.18497  0.83900  0.06740  Biso   1.000  C
  C58      1.0000 0.81503  0.83900  0.43260  Biso   1.000  C
  C59      1.0000 0.68497  0.33900  0.06740  Biso   1.000  C
  C60      1.0000 0.31503  0.33900  0.43260  Biso   1.000  C
  C61      1.0000 0.81503  0.16100  0.93260  Biso   1.000  C
  C62      1.0000 0.18497  0.16100  0.56740  Biso   1.000  C
  C63      1.0000 0.31503  0.66100  0.93260  Biso   1.000  C
  C64      1.0000 0.68497  0.66100  0.56740  Biso   1.000  C
  H41      1.0000 0.19410  0.89440  0.07760  Biso   1.000  H
  H42      1.0000 0.80590  0.89440  0.42240  Biso   1.000  H
  H43      1.0000 0.69410  0.39440  0.07760  Biso   1.000  H
  H44      1.0000 0.30590  0.39440  0.42240  Biso   1.000  H
  H45      1.0000 0.80590  0.10560  0.92240  Biso   1.000  H
  H46      1.0000 0.19410  0.10560  0.57760  Biso   1.000  H
  H47      1.0000 0.30590  0.60560  0.92240  Biso   1.000  H
  H48      1.0000 0.69410  0.60560  0.57760  Biso   1.000  H
  C65      1.0000 0.19050  0.77060  0.11930  Biso   1.000  C
  C66      1.0000 0.80950  0.77060  0.38070  Biso   1.000  C
  C67      1.0000 0.69050  0.27060  0.11930  Biso   1.000  C
  C68      1.0000 0.30950  0.27060  0.38070  Biso   1.000  C
  C69      1.0000 0.80950  0.22940  0.88070  Biso   1.000  C
  C70      1.0000 0.19050  0.22940  0.61930  Biso   1.000  C
  C71      1.0000 0.30950  0.72940  0.88070  Biso   1.000  C
  C72      1.0000 0.69050  0.72940  0.61930  Biso   1.000  C
  H49      1.0000 0.20350  0.77840  0.16490  Biso   1.000  H
  H50      1.0000 0.79650  0.77840  0.33510  Biso   1.000  H
  H51      1.0000 0.70350  0.27840  0.16490  Biso   1.000  H
  H52      1.0000 0.29650  0.27840  0.33510  Biso   1.000  H
  H53      1.0000 0.79650  0.22160  0.83510  Biso   1.000  H
  H54      1.0000 0.20350  0.22160  0.66490  Biso   1.000  H
  H55      1.0000 0.29650  0.72160  0.83510  Biso   1.000  H
  H56      1.0000 0.70350  0.72160  0.66490  Biso   1.000  H
  C73      1.0000 0.17721  0.69020  0.10530  Biso   1.000  C
  C74      1.0000 0.82279  0.69020  0.39470  Biso   1.000  C
  C75      1.0000 0.67721  0.19020  0.10530  Biso   1.000  C
  C76      1.0000 0.32279  0.19020  0.39470  Biso   1.000  C
  C77      1.0000 0.82279  0.30980  0.89470  Biso   1.000  C
  C78      1.0000 0.17721  0.30980  0.60530  Biso   1.000  C
  C79      1.0000 0.32279  0.80980  0.89470  Biso   1.000  C
  C80      1.0000 0.67721  0.80980  0.60530  Biso   1.000  C
  H57      1.0000 0.18110  0.64260  0.14120  Biso   1.000  H
  H58      1.0000 0.81890  0.64260  0.35880  Biso   1.000  H
  H59      1.0000 0.68110  0.14260  0.14120  Biso   1.000  H
  H60      1.0000 0.31890  0.14260  0.35880  Biso   1.000  H
  H61      1.0000 0.81890  0.35740  0.85880  Biso   1.000  H
  H62      1.0000 0.18110  0.35740  0.64120  Biso   1.000  H
  H63      1.0000 0.31890  0.85740  0.85880  Biso   1.000  H
  H64      1.0000 0.68110  0.85740  0.64120  Biso   1.000  H
  C81      1.0000 0.15826  0.67920  0.03900  Biso   1.000  C
  C82      1.0000 0.84174  0.67920  0.46100  Biso   1.000  C
  C83      1.0000 0.65826  0.17920  0.03900  Biso   1.000  C
  C84      1.0000 0.34174  0.17920  0.46100  Biso   1.000  C
  C85      1.0000 0.84174  0.32080  0.96100  Biso   1.000  C
  C86      1.0000 0.15826  0.32080  0.53900  Biso   1.000  C
  C87      1.0000 0.34174  0.82080  0.96100  Biso   1.000  C
  C88      1.0000 0.65826  0.82080  0.53900  Biso   1.000  C
  H65      1.0000 0.14910  0.62380  0.02960  Biso   1.000  H
  H66      1.0000 0.85090  0.62380  0.47040  Biso   1.000  H
  H67      1.0000 0.64910  0.12380  0.02960  Biso   1.000  H
  H68      1.0000 0.35090  0.12380  0.47040  Biso   1.000  H
  H69      1.0000 0.85090  0.37620  0.97040  Biso   1.000  H
  H70      1.0000 0.14910  0.37620  0.52960  Biso   1.000  H
  H71      1.0000 0.35090  0.87620  0.97040  Biso   1.000  H
  H72      1.0000 0.64910  0.87620  0.52960  Biso   1.000  H
  C89      1.0000 0.11137  0.63210  0.91030  Biso   1.000  C
  C90      1.0000 0.88863  0.63210  0.58970  Biso   1.000  C
  C91      1.0000 0.61137  0.13210  0.91030  Biso   1.000  C
  C92      1.0000 0.38863  0.13210  0.58970  Biso   1.000  C
  C93      1.0000 0.88863  0.36790  0.08970  Biso   1.000  C
  C94      1.0000 0.11137  0.36790  0.41030  Biso   1.000  C
  C95      1.0000 0.38863  0.86790  0.08970  Biso   1.000  C
  C96      1.0000 0.61137  0.86790  0.41030  Biso   1.000  C
  C97      1.0000 0.09675  0.63010  0.96510  Biso   1.000  C
  C98      1.0000 0.90325  0.63010  0.53490  Biso   1.000  C
  C99      1.0000 0.59675  0.13010  0.96510  Biso   1.000  C
  C100     1.0000 0.40325  0.13010  0.53490  Biso   1.000  C
  C101     1.0000 0.90325  0.36990  0.03490  Biso   1.000  C
  C102     1.0000 0.09675  0.36990  0.46510  Biso   1.000  C
  C103     1.0000 0.40325  0.86990  0.03490  Biso   1.000  C
  C104     1.0000 0.59675  0.86990  0.46510  Biso   1.000  C
  H73      1.0000 0.09660  0.68080  0.99700  Biso   1.000  H
  H74      1.0000 0.90340  0.68080  0.50300  Biso   1.000  H
  H75      1.0000 0.59660  0.18080  0.99700  Biso   1.000  H
  H76      1.0000 0.40340  0.18080  0.50300  Biso   1.000  H
  H77      1.0000 0.90340  0.31920  0.00300  Biso   1.000  H
  H78      1.0000 0.09660  0.31920  0.49700  Biso   1.000  H
  H79      1.0000 0.40340  0.81920  0.00300  Biso   1.000  H
  H80      1.0000 0.59660  0.81920  0.49700  Biso   1.000  H
  C105     1.0000 0.08248  0.55510  0.97310  Biso   1.000  C
  C106     1.0000 0.91752  0.55510  0.52690  Biso   1.000  C
  C107     1.0000 0.58248  0.05510  0.97310  Biso   1.000  C
  C108     1.0000 0.41752  0.05510  0.52690  Biso   1.000  C
  C109     1.0000 0.91752  0.44490  0.02690  Biso   1.000  C
  C110     1.0000 0.08248  0.44490  0.47310  Biso   1.000  C
  C111     1.0000 0.41752  0.94490  0.02690  Biso   1.000  C
  C112     1.0000 0.58248  0.94490  0.47310  Biso   1.000  C
  H81      1.0000 0.07280  0.55380  0.01120  Biso   1.000  H
  H82      1.0000 0.92720  0.55380  0.48880  Biso   1.000  H
  H83      1.0000 0.57280  0.05380  0.01120  Biso   1.000  H
  H84      1.0000 0.42720  0.05380  0.48880  Biso   1.000  H
  H85      1.0000 0.92720  0.44620  0.98880  Biso   1.000  H
  H86      1.0000 0.07280  0.44620  0.51120  Biso   1.000  H
  H87      1.0000 0.42720  0.94620  0.98880  Biso   1.000  H
  H88      1.0000 0.57280  0.94620  0.51120  Biso   1.000  H
  C113     1.0000 0.08213  0.48130  0.92620  Biso   1.000  C
  C114     1.0000 0.91787  0.48130  0.57380  Biso   1.000  C
  C115     1.0000 0.58213  0.98130  0.92620  Biso   1.000  C
  C116     1.0000 0.41787  0.98130  0.57380  Biso   1.000  C
  C117     1.0000 0.91787  0.51870  0.07380  Biso   1.000  C
  C118     1.0000 0.08213  0.51870  0.42620  Biso   1.000  C
  C119     1.0000 0.41787  0.01870  0.07380  Biso   1.000  C
  C120     1.0000 0.58213  0.01870  0.42620  Biso   1.000  C
  H89      1.0000 0.07160  0.43060  0.93060  Biso   1.000  H
  H90      1.0000 0.92840  0.43060  0.56940  Biso   1.000  H
  H91      1.0000 0.57160  0.93060  0.93060  Biso   1.000  H
  H92      1.0000 0.42840  0.93060  0.56940  Biso   1.000  H
  H93      1.0000 0.92840  0.56940  0.06940  Biso   1.000  H
  H94      1.0000 0.07160  0.56940  0.43060  Biso   1.000  H
  H95      1.0000 0.42840  0.06940  0.06940  Biso   1.000  H
  H96      1.0000 0.57160  0.06940  0.43060  Biso   1.000  H
  C121     1.0000 0.09724  0.48190  0.87290  Biso   1.000  C
  C122     1.0000 0.90276  0.48190  0.62710  Biso   1.000  C
  C123     1.0000 0.59724  0.98190  0.87290  Biso   1.000  C
  C124     1.0000 0.40276  0.98190  0.62710  Biso   1.000  C
  C125     1.0000 0.90276  0.51810  0.12710  Biso   1.000  C
  C126     1.0000 0.09724  0.51810  0.37290  Biso   1.000  C
  C127     1.0000 0.40276  0.01810  0.12710  Biso   1.000  C
  C128     1.0000 0.59724  0.01810  0.37290  Biso   1.000  C
  H97      1.0000 0.09770  0.43050  0.84210  Biso   1.000  H
  H98      1.0000 0.90230  0.43050  0.65790  Biso   1.000  H
  H99      1.0000 0.59770  0.93050  0.84210  Biso   1.000  H
  H100     1.0000 0.40230  0.93050  0.65790  Biso   1.000  H
  H101     1.0000 0.90230  0.56950  0.15790  Biso   1.000  H
  H102     1.0000 0.09770  0.56950  0.34210  Biso   1.000  H
  H103     1.0000 0.40230  0.06950  0.15790  Biso   1.000  H
  H104     1.0000 0.59770  0.06950  0.34210  Biso   1.000  H
  C129     1.0000 0.11163  0.55760  0.86470  Biso   1.000  C
  C130     1.0000 0.88837  0.55760  0.63530  Biso   1.000  C
  C131     1.0000 0.61163  0.05760  0.86470  Biso   1.000  C
  C132     1.0000 0.38837  0.05760  0.63530  Biso   1.000  C
  C133     1.0000 0.88837  0.44240  0.13530  Biso   1.000  C
  C134     1.0000 0.11163  0.44240  0.36470  Biso   1.000  C
  C135     1.0000 0.38837  0.94240  0.13530  Biso   1.000  C
  C136     1.0000 0.61163  0.94240  0.36470  Biso   1.000  C
  H105     1.0000 0.12170  0.55830  0.82760  Biso   1.000  H
  H106     1.0000 0.87830  0.55830  0.67240  Biso   1.000  H
  H107     1.0000 0.62170  0.05830  0.82760  Biso   1.000  H
  H108     1.0000 0.37830  0.05830  0.67240  Biso   1.000  H
  H109     1.0000 0.87830  0.44170  0.17240  Biso   1.000  H
  H110     1.0000 0.12170  0.44170  0.32760  Biso   1.000  H
  H111     1.0000 0.37830  0.94170  0.17240  Biso   1.000  H
  H112     1.0000 0.62170  0.94170  0.32760  Biso   1.000  H
  C137     1.0000 0.10632  0.82540  0.89650  Biso   1.000  C
  C138     1.0000 0.89368  0.82540  0.60350  Biso   1.000  C
  C139     1.0000 0.60632  0.32540  0.89650  Biso   1.000  C
  C140     1.0000 0.39368  0.32540  0.60350  Biso   1.000  C
  C141     1.0000 0.89368  0.17460  0.10350  Biso   1.000  C
  C142     1.0000 0.10632  0.17460  0.39650  Biso   1.000  C
  C143     1.0000 0.39368  0.67460  0.10350  Biso   1.000  C
  C144     1.0000 0.60632  0.67460  0.39650  Biso   1.000  C
  H113     1.0000 0.09920  0.81870  0.94230  Biso   1.000  H
  H114     1.0000 0.90080  0.81870  0.55770  Biso   1.000  H
  H115     1.0000 0.59920  0.31870  0.94230  Biso   1.000  H
  H116     1.0000 0.40080  0.31870  0.55770  Biso   1.000  H
  H117     1.0000 0.90080  0.18130  0.05770  Biso   1.000  H
  H118     1.0000 0.09920  0.18130  0.44230  Biso   1.000  H
  H119     1.0000 0.40080  0.68130  0.05770  Biso   1.000  H
  H120     1.0000 0.59920  0.68130  0.44230  Biso   1.000  H
  H121     1.0000 0.11600  0.88300  0.90110  Biso   1.000  H
  H122     1.0000 0.88400  0.88300  0.59890  Biso   1.000  H
  H123     1.0000 0.61600  0.38300  0.90110  Biso   1.000  H
  H124     1.0000 0.38400  0.38300  0.59890  Biso   1.000  H
  H125     1.0000 0.88400  0.11700  0.09890  Biso   1.000  H
  H126     1.0000 0.11600  0.11700  0.40110  Biso   1.000  H
  H127     1.0000 0.38400  0.61700  0.09890  Biso   1.000  H
  H128     1.0000 0.61600  0.61700  0.40110  Biso   1.000  H
  C145     1.0000 0.05612  0.74680  0.83050  Biso   1.000  C
  C146     1.0000 0.94388  0.74680  0.66950  Biso   1.000  C
  C147     1.0000 0.55612  0.24680  0.83050  Biso   1.000  C
  C148     1.0000 0.44388  0.24680  0.66950  Biso   1.000  C
  C149     1.0000 0.94388  0.25320  0.16950  Biso   1.000  C
  C150     1.0000 0.05612  0.25320  0.33050  Biso   1.000  C
  C151     1.0000 0.44388  0.75320  0.16950  Biso   1.000  C
  C152     1.0000 0.55612  0.75320  0.33050  Biso   1.000  C
  C153     1.0000 0.04538  0.75090  0.89370  Biso   1.000  C
  C154     1.0000 0.95462  0.75090  0.60630  Biso   1.000  C
  C155     1.0000 0.54538  0.25090  0.89370  Biso   1.000  C
  C156     1.0000 0.45462  0.25090  0.60630  Biso   1.000  C
  C157     1.0000 0.95462  0.24910  0.10630  Biso   1.000  C
  C158     1.0000 0.04538  0.24910  0.39370  Biso   1.000  C
  C159     1.0000 0.45462  0.74910  0.10630  Biso   1.000  C
  C160     1.0000 0.54538  0.74910  0.39370  Biso   1.000  C
  H129     1.0000 0.04970  0.79920  0.92870  Biso   1.000  H
  H130     1.0000 0.95030  0.79920  0.57130  Biso   1.000  H
  H131     1.0000 0.54970  0.29920  0.92870  Biso   1.000  H
  H132     1.0000 0.45030  0.29920  0.57130  Biso   1.000  H
  H133     1.0000 0.95030  0.20080  0.07130  Biso   1.000  H
  H134     1.0000 0.04970  0.20080  0.42870  Biso   1.000  H
  H135     1.0000 0.45030  0.70080  0.07130  Biso   1.000  H
  H136     1.0000 0.54970  0.70080  0.42870  Biso   1.000  H
  C161     1.0000 0.02828  0.68440  0.90550  Biso   1.000  C
  C162     1.0000 0.97172  0.68440  0.59450  Biso   1.000  C
  C163     1.0000 0.52828  0.18440  0.90550  Biso   1.000  C
  C164     1.0000 0.47172  0.18440  0.59450  Biso   1.000  C
  C165     1.0000 0.97172  0.31560  0.09450  Biso   1.000  C
  C166     1.0000 0.02828  0.31560  0.40550  Biso   1.000  C
  C167     1.0000 0.47172  0.81560  0.09450  Biso   1.000  C
  C168     1.0000 0.52828  0.81560  0.40550  Biso   1.000  C
  H137     1.0000 0.02060  0.68810  0.94810  Biso   1.000  H
  H138     1.0000 0.97940  0.68810  0.55190  Biso   1.000  H
  H139     1.0000 0.52060  0.18810  0.94810  Biso   1.000  H
  H140     1.0000 0.47940  0.18810  0.55190  Biso   1.000  H
  H141     1.0000 0.97940  0.31190  0.05190  Biso   1.000  H
  H142     1.0000 0.02060  0.31190  0.44810  Biso   1.000  H
  H143     1.0000 0.47940  0.81190  0.05190  Biso   1.000  H
  H144     1.0000 0.52060  0.81190  0.44810  Biso   1.000  H
  C169     1.0000 0.02236  0.61340  0.85610  Biso   1.000  C
  C170     1.0000 0.97764  0.61340  0.64390  Biso   1.000  C
  C171     1.0000 0.52236  0.11340  0.85610  Biso   1.000  C
  C172     1.0000 0.47764  0.11340  0.64390  Biso   1.000  C
  C173     1.0000 0.97764  0.38660  0.14390  Biso   1.000  C
  C174     1.0000 0.02236  0.38660  0.35610  Biso   1.000  C
  C175     1.0000 0.47764  0.88660  0.14390  Biso   1.000  C
  C176     1.0000 0.52236  0.88660  0.35610  Biso   1.000  C
  H145     1.0000 0.01080  0.56780  0.86480  Biso   1.000  H
  H146     1.0000 0.98920  0.56780  0.63520  Biso   1.000  H
  H147     1.0000 0.51080  0.06780  0.86480  Biso   1.000  H
  H148     1.0000 0.48920  0.06780  0.63520  Biso   1.000  H
  H149     1.0000 0.98920  0.43220  0.13520  Biso   1.000  H
  H150     1.0000 0.01080  0.43220  0.36480  Biso   1.000  H
  H151     1.0000 0.48920  0.93220  0.13520  Biso   1.000  H
  H152     1.0000 0.51080  0.93220  0.36480  Biso   1.000  H
  C177     1.0000 0.03320  0.60830  0.79380  Biso   1.000  C
  C178     1.0000 0.96680  0.60830  0.70620  Biso   1.000  C
  C179     1.0000 0.53320  0.10830  0.79380  Biso   1.000  C
  C180     1.0000 0.46680  0.10830  0.70620  Biso   1.000  C
  C181     1.0000 0.96680  0.39170  0.20620  Biso   1.000  C
  C182     1.0000 0.03320  0.39170  0.29380  Biso   1.000  C
  C183     1.0000 0.46680  0.89170  0.20620  Biso   1.000  C
  C184     1.0000 0.53320  0.89170  0.29380  Biso   1.000  C
  H153     1.0000 0.02920  0.55880  0.75990  Biso   1.000  H
  H154     1.0000 0.97080  0.55880  0.74010  Biso   1.000  H
  H155     1.0000 0.52920  0.05880  0.75990  Biso   1.000  H
  H156     1.0000 0.47080  0.05880  0.74010  Biso   1.000  H
  H157     1.0000 0.97080  0.44120  0.24010  Biso   1.000  H
  H158     1.0000 0.02920  0.44120  0.25990  Biso   1.000  H
  H159     1.0000 0.47080  0.94120  0.24010  Biso   1.000  H
  H160     1.0000 0.52920  0.94120  0.25990  Biso   1.000  H
  C185     1.0000 0.04988  0.67490  0.78070  Biso   1.000  C
  C186     1.0000 0.95012  0.67490  0.71930  Biso   1.000  C
  C187     1.0000 0.54988  0.17490  0.78070  Biso   1.000  C
  C188     1.0000 0.45012  0.17490  0.71930  Biso   1.000  C
  C189     1.0000 0.95012  0.32510  0.21930  Biso   1.000  C
  C190     1.0000 0.04988  0.32510  0.28070  Biso   1.000  C
  C191     1.0000 0.45012  0.82510  0.21930  Biso   1.000  C
  C192     1.0000 0.54988  0.82510  0.28070  Biso   1.000  C
  H161     1.0000 0.05710  0.67150  0.73740  Biso   1.000  H
  H162     1.0000 0.94290  0.67150  0.76260  Biso   1.000  H
  H163     1.0000 0.55710  0.17150  0.73740  Biso   1.000  H
  H164     1.0000 0.44290  0.17150  0.76260  Biso   1.000  H
  H165     1.0000 0.94290  0.32850  0.26260  Biso   1.000  H
  H166     1.0000 0.05710  0.32850  0.23740  Biso   1.000  H
  H167     1.0000 0.44290  0.82850  0.26260  Biso   1.000  H
  H168     1.0000 0.55710  0.82850  0.23740  Biso   1.000  H
  C193     1.0000 0.06412  0.93840  0.82740  Biso   1.000  C
  C194     1.0000 0.93588  0.93840  0.67260  Biso   1.000  C
  C195     1.0000 0.56412  0.43840  0.82740  Biso   1.000  C
  C196     1.0000 0.43588  0.43840  0.67260  Biso   1.000  C
  C197     1.0000 0.93588  0.06160  0.17260  Biso   1.000  C
  C198     1.0000 0.06412  0.06160  0.32740  Biso   1.000  C
  C199     1.0000 0.43588  0.56160  0.17260  Biso   1.000  C
  C200     1.0000 0.56412  0.56160  0.32740  Biso   1.000  C
  C201     1.0000 0.03717  0.94670  0.81930  Biso   1.000  C
  C202     1.0000 0.96283  0.94670  0.68070  Biso   1.000  C
  C203     1.0000 0.53717  0.44670  0.81930  Biso   1.000  C
  C204     1.0000 0.46283  0.44670  0.68070  Biso   1.000  C
  C205     1.0000 0.96283  0.05330  0.18070  Biso   1.000  C
  C206     1.0000 0.03717  0.05330  0.31930  Biso   1.000  C
  C207     1.0000 0.46283  0.55330  0.18070  Biso   1.000  C
  C208     1.0000 0.53717  0.55330  0.31930  Biso   1.000  C
  H169     1.0000 0.02640  0.89500  0.80980  Biso   1.000  H
  H170     1.0000 0.97360  0.89500  0.69020  Biso   1.000  H
  H171     1.0000 0.52640  0.39500  0.80980  Biso   1.000  H
  H172     1.0000 0.47360  0.39500  0.69020  Biso   1.000  H
  H173     1.0000 0.97360  0.10500  0.19020  Biso   1.000  H
  H174     1.0000 0.02640  0.10500  0.30980  Biso   1.000  H
  H175     1.0000 0.47360  0.60500  0.19020  Biso   1.000  H
  H176     1.0000 0.52640  0.60500  0.30980  Biso   1.000  H
  C209     1.0000 0.02633  0.03100  0.82520  Biso   1.000  C
  C210     1.0000 0.97367  0.03100  0.67480  Biso   1.000  C
  C211     1.0000 0.52633  0.53100  0.82520  Biso   1.000  C
  C212     1.0000 0.47367  0.53100  0.67480  Biso   1.000  C
  C213     1.0000 0.97367  0.96900  0.17480  Biso   1.000  C
  C214     1.0000 0.02633  0.96900  0.32520  Biso   1.000  C
  C215     1.0000 0.47367  0.46900  0.17480  Biso   1.000  C
  C216     1.0000 0.52633  0.46900  0.32520  Biso   1.000  C
  H177     1.0000 0.00820  0.03600  0.82250  Biso   1.000  H
  H178     1.0000 0.99180  0.03600  0.67750  Biso   1.000  H
  H179     1.0000 0.50820  0.53600  0.82250  Biso   1.000  H
  H180     1.0000 0.49180  0.53600  0.67750  Biso   1.000  H
  H181     1.0000 0.99180  0.96400  0.17750  Biso   1.000  H
  H182     1.0000 0.00820  0.96400  0.32250  Biso   1.000  H
  H183     1.0000 0.49180  0.46400  0.17750  Biso   1.000  H
  H184     1.0000 0.50820  0.46400  0.32250  Biso   1.000  H
  C217     1.0000 0.04151  0.10680  0.83490  Biso   1.000  C
  C218     1.0000 0.95849  0.10680  0.66510  Biso   1.000  C
  C219     1.0000 0.54151  0.60680  0.83490  Biso   1.000  C
  C220     1.0000 0.45849  0.60680  0.66510  Biso   1.000  C
  C221     1.0000 0.95849  0.89320  0.16510  Biso   1.000  C
  C222     1.0000 0.04151  0.89320  0.33490  Biso   1.000  C
  C223     1.0000 0.45849  0.39320  0.16510  Biso   1.000  C
  C224     1.0000 0.54151  0.39320  0.33490  Biso   1.000  C
  H185     1.0000 0.03370  0.16410  0.83670  Biso   1.000  H
  H186     1.0000 0.96630  0.16410  0.66330  Biso   1.000  H
  H187     1.0000 0.53370  0.66410  0.83670  Biso   1.000  H
  H188     1.0000 0.46630  0.66410  0.66330  Biso   1.000  H
  H189     1.0000 0.96630  0.83590  0.16330  Biso   1.000  H
  H190     1.0000 0.03370  0.83590  0.33670  Biso   1.000  H
  H191     1.0000 0.46630  0.33590  0.16330  Biso   1.000  H
  H192     1.0000 0.53370  0.33590  0.33670  Biso   1.000  H
  C225     1.0000 0.06841  0.10020  0.84220  Biso   1.000  C
  C226     1.0000 0.93159  0.10020  0.65780  Biso   1.000  C
  C227     1.0000 0.56841  0.60020  0.84220  Biso   1.000  C
  C228     1.0000 0.43159  0.60020  0.65780  Biso   1.000  C
  C229     1.0000 0.93159  0.89980  0.15780  Biso   1.000  C
  C230     1.0000 0.06841  0.89980  0.34220  Biso   1.000  C
  C231     1.0000 0.43159  0.39980  0.15780  Biso   1.000  C
  C232     1.0000 0.56841  0.39980  0.34220  Biso   1.000  C
  H193     1.0000 0.07900  0.15270  0.84960  Biso   1.000  H
  H194     1.0000 0.92100  0.15270  0.65040  Biso   1.000  H
  H195     1.0000 0.57900  0.65270  0.84960  Biso   1.000  H
  H196     1.0000 0.42100  0.65270  0.65040  Biso   1.000  H
  H197     1.0000 0.92100  0.84730  0.15040  Biso   1.000  H
  H198     1.0000 0.07900  0.84730  0.34960  Biso   1.000  H
  H199     1.0000 0.42100  0.34730  0.15040  Biso   1.000  H
  H200     1.0000 0.57900  0.34730  0.34960  Biso   1.000  H
  C233     1.0000 0.07954  0.01550  0.83850  Biso   1.000  C
  C234     1.0000 0.92046  0.01550  0.66150  Biso   1.000  C
  C235     1.0000 0.57954  0.51550  0.83850  Biso   1.000  C
  C236     1.0000 0.42046  0.51550  0.66150  Biso   1.000  C
  C237     1.0000 0.92046  0.98450  0.16150  Biso   1.000  C
  C238     1.0000 0.07954  0.98450  0.33850  Biso   1.000  C
  C239     1.0000 0.42046  0.48450  0.16150  Biso   1.000  C
  C240     1.0000 0.57954  0.48450  0.33850  Biso   1.000  C
  H201     1.0000 0.09780  0.01040  0.84370  Biso   1.000  H
  H202     1.0000 0.90220  0.01040  0.65630  Biso   1.000  H
  H203     1.0000 0.59780  0.51040  0.84370  Biso   1.000  H
  H204     1.0000 0.40220  0.51040  0.65630  Biso   1.000  H
  H205     1.0000 0.90220  0.98960  0.15630  Biso   1.000  H
  H206     1.0000 0.09780  0.98960  0.34370  Biso   1.000  H
  H207     1.0000 0.40220  0.48960  0.15630  Biso   1.000  H
  H208     1.0000 0.59780  0.48960  0.34370  Biso   1.000  H
  C241     1.0000 0.03080  0.86390  0.61340  Biso   1.000  C
  C242     1.0000 0.96920  0.86390  0.88660  Biso   1.000  C
  C243     1.0000 0.53080  0.36390  0.61340  Biso   1.000  C
  C244     1.0000 0.46920  0.36390  0.88660  Biso   1.000  C
  C245     1.0000 0.96920  0.13610  0.38660  Biso   1.000  C
  C246     1.0000 0.03080  0.13610  0.11340  Biso   1.000  C
  C247     1.0000 0.46920  0.63610  0.38660  Biso   1.000  C
  C248     1.0000 0.53080  0.63610  0.11340  Biso   1.000  C
  H209     1.0000 0.02870  0.80900  0.63820  Biso   1.000  H
  H210     1.0000 0.97130  0.80900  0.86180  Biso   1.000  H
  H211     1.0000 0.52870  0.30900  0.63820  Biso   1.000  H
  H212     1.0000 0.47130  0.30900  0.86180  Biso   1.000  H
  H213     1.0000 0.97130  0.19100  0.36180  Biso   1.000  H
  H214     1.0000 0.02870  0.19100  0.13820  Biso   1.000  H
  H215     1.0000 0.47130  0.69100  0.36180  Biso   1.000  H
  H216     1.0000 0.52870  0.69100  0.13820  Biso   1.000  H
  C249     1.0000 0.00929  0.90010  0.56390  Biso   1.000  C
  C250     1.0000 0.99071  0.90010  0.93610  Biso   1.000  C
  C251     1.0000 0.50929  0.40010  0.56390  Biso   1.000  C
  C252     1.0000 0.49071  0.40010  0.93610  Biso   1.000  C
  C253     1.0000 0.99071  0.09990  0.43610  Biso   1.000  C
  C254     1.0000 0.00929  0.09990  0.06390  Biso   1.000  C
  C255     1.0000 0.49071  0.59990  0.43610  Biso   1.000  C
  C256     1.0000 0.50929  0.59990  0.06390  Biso   1.000  C
  H217     1.0000 0.99300  0.86990  0.55540  Biso   1.000  H
  H218     1.0000 0.00700  0.86990  0.94460  Biso   1.000  H
  H219     1.0000 0.49300  0.36990  0.55540  Biso   1.000  H
  H220     1.0000 0.50700  0.36990  0.94460  Biso   1.000  H
  H221     1.0000 0.00700  0.13010  0.44460  Biso   1.000  H
  H222     1.0000 0.99300  0.13010  0.05540  Biso   1.000  H
  H223     1.0000 0.50700  0.63010  0.44460  Biso   1.000  H
  H224     1.0000 0.49300  0.63010  0.05540  Biso   1.000  H
  C257     1.0000 0.01140  0.97920  0.52710  Biso   1.000  C
  C258     1.0000 0.98860  0.97920  0.97290  Biso   1.000  C
  C259     1.0000 0.51140  0.47920  0.52710  Biso   1.000  C
  C260     1.0000 0.48860  0.47920  0.97290  Biso   1.000  C
  C261     1.0000 0.98860  0.02080  0.47290  Biso   1.000  C
  C262     1.0000 0.01140  0.02080  0.02710  Biso   1.000  C
  C263     1.0000 0.48860  0.52080  0.47290  Biso   1.000  C
  C264     1.0000 0.51140  0.52080  0.02710  Biso   1.000  C
  C265     1.0000 0.03544  0.01950  0.54510  Biso   1.000  C
  C266     1.0000 0.96456  0.01950  0.95490  Biso   1.000  C
  C267     1.0000 0.53544  0.51950  0.54510  Biso   1.000  C
  C268     1.0000 0.46456  0.51950  0.95490  Biso   1.000  C
  C269     1.0000 0.96456  0.98050  0.45490  Biso   1.000  C
  C270     1.0000 0.03544  0.98050  0.04510  Biso   1.000  C
  C271     1.0000 0.46456  0.48050  0.45490  Biso   1.000  C
  C272     1.0000 0.53544  0.48050  0.04510  Biso   1.000  C
  H225     1.0000 0.03780  0.07610  0.52330  Biso   1.000  H
  H226     1.0000 0.96220  0.07610  0.97670  Biso   1.000  H
  H227     1.0000 0.53780  0.57610  0.52330  Biso   1.000  H
  H228     1.0000 0.46220  0.57610  0.97670  Biso   1.000  H
  H229     1.0000 0.96220  0.92390  0.47670  Biso   1.000  H
  H230     1.0000 0.03780  0.92390  0.02330  Biso   1.000  H
  H231     1.0000 0.46220  0.42390  0.47670  Biso   1.000  H
  H232     1.0000 0.53780  0.42390  0.02330  Biso   1.000  H
  C273     1.0000 0.05635  0.97880  0.59470  Biso   1.000  C
  C274     1.0000 0.94365  0.97880  0.90530  Biso   1.000  C
  C275     1.0000 0.55635  0.47880  0.59470  Biso   1.000  C
  C276     1.0000 0.44365  0.47880  0.90530  Biso   1.000  C
  C277     1.0000 0.94365  0.02120  0.40530  Biso   1.000  C
  C278     1.0000 0.05635  0.02120  0.09470  Biso   1.000  C
  C279     1.0000 0.44365  0.52120  0.40530  Biso   1.000  C
  C280     1.0000 0.55635  0.52120  0.09470  Biso   1.000  C
  H233     1.0000 0.07280  0.00800  0.60480  Biso   1.000  H
  H234     1.0000 0.92720  0.00800  0.89520  Biso   1.000  H
  H235     1.0000 0.57280  0.50800  0.60480  Biso   1.000  H
  H236     1.0000 0.42720  0.50800  0.89520  Biso   1.000  H
  H237     1.0000 0.92720  0.99200  0.39520  Biso   1.000  H
  H238     1.0000 0.07280  0.99200  0.10480  Biso   1.000  H
  H239     1.0000 0.42720  0.49200  0.39520  Biso   1.000  H
  H240     1.0000 0.57280  0.49200  0.10480  Biso   1.000  H
  C281     1.0000 0.06522  0.68730  0.55750  Biso   1.000  C
  C282     1.0000 0.93478  0.68730  0.94250  Biso   1.000  C
  C283     1.0000 0.56522  0.18730  0.55750  Biso   1.000  C
  C284     1.0000 0.43478  0.18730  0.94250  Biso   1.000  C
  C285     1.0000 0.93478  0.31270  0.44250  Biso   1.000  C
  C286     1.0000 0.06522  0.31270  0.05750  Biso   1.000  C
  C287     1.0000 0.43478  0.81270  0.44250  Biso   1.000  C
  C288     1.0000 0.56522  0.81270  0.05750  Biso   1.000  C
  C289     1.0000 0.05377  0.60960  0.57800  Biso   1.000  C
  C290     1.0000 0.94623  0.60960  0.92200  Biso   1.000  C
  C291     1.0000 0.55377  0.10960  0.57800  Biso   1.000  C
  C292     1.0000 0.44623  0.10960  0.92200  Biso   1.000  C
  C293     1.0000 0.94623  0.39040  0.42200  Biso   1.000  C
  C294     1.0000 0.05377  0.39040  0.07800  Biso   1.000  C
  C295     1.0000 0.44623  0.89040  0.42200  Biso   1.000  C
  C296     1.0000 0.55377  0.89040  0.07800  Biso   1.000  C
  H241     1.0000 0.06250  0.57600  0.62100  Biso   1.000  H
  H242     1.0000 0.93750  0.57600  0.87900  Biso   1.000  H
  H243     1.0000 0.56250  0.07600  0.62100  Biso   1.000  H
  H244     1.0000 0.43750  0.07600  0.87900  Biso   1.000  H
  H245     1.0000 0.93750  0.42400  0.37900  Biso   1.000  H
  H246     1.0000 0.06250  0.42400  0.12100  Biso   1.000  H
  H247     1.0000 0.43750  0.92400  0.37900  Biso   1.000  H
  H248     1.0000 0.56250  0.92400  0.12100  Biso   1.000  H
  C297     1.0000 0.02964  0.58070  0.53630  Biso   1.000  C
  C298     1.0000 0.97036  0.58070  0.96370  Biso   1.000  C
  C299     1.0000 0.52964  0.08070  0.53630  Biso   1.000  C
  C300     1.0000 0.47036  0.08070  0.96370  Biso   1.000  C
  C301     1.0000 0.97036  0.41930  0.46370  Biso   1.000  C
  C302     1.0000 0.02964  0.41930  0.03630  Biso   1.000  C
  C303     1.0000 0.47036  0.91930  0.46370  Biso   1.000  C
  C304     1.0000 0.52964  0.91930  0.03630  Biso   1.000  C
  H249     1.0000 0.02210  0.52710  0.55010  Biso   1.000  H
  H250     1.0000 0.97790  0.52710  0.94990  Biso   1.000  H
  H251     1.0000 0.52210  0.02710  0.55010  Biso   1.000  H
  H252     1.0000 0.47790  0.02710  0.94990  Biso   1.000  H
  H253     1.0000 0.97790  0.47290  0.44990  Biso   1.000  H
  H254     1.0000 0.02210  0.47290  0.05010  Biso   1.000  H
  H255     1.0000 0.47790  0.97290  0.44990  Biso   1.000  H
  H256     1.0000 0.52210  0.97290  0.05010  Biso   1.000  H
  C305     1.0000 0.01660  0.63130  0.47380  Biso   1.000  C
  C306     1.0000 0.98340  0.63130  0.02620  Biso   1.000  C
  C307     1.0000 0.51660  0.13130  0.47380  Biso   1.000  C
  C308     1.0000 0.48340  0.13130  0.02620  Biso   1.000  C
  C309     1.0000 0.98340  0.36870  0.52620  Biso   1.000  C
  C310     1.0000 0.01660  0.36870  0.97380  Biso   1.000  C
  C311     1.0000 0.48340  0.86870  0.52620  Biso   1.000  C
  C312     1.0000 0.51660  0.86870  0.97380  Biso   1.000  C
  H257     1.0000 0.00010  0.61230  0.44500  Biso   1.000  H
  H258     1.0000 0.99990  0.61230  0.05500  Biso   1.000  H
  H259     1.0000 0.50010  0.11230  0.44500  Biso   1.000  H
  H260     1.0000 0.49990  0.11230  0.05500  Biso   1.000  H
  H261     1.0000 0.99990  0.38770  0.55500  Biso   1.000  H
  H262     1.0000 0.00010  0.38770  0.94500  Biso   1.000  H
  H263     1.0000 0.49990  0.88770  0.55500  Biso   1.000  H
  H264     1.0000 0.50010  0.88770  0.94500  Biso   1.000  H
  C313     1.0000 0.02767  0.70800  0.45450  Biso   1.000  C
  C314     1.0000 0.97233  0.70800  0.04550  Biso   1.000  C
  C315     1.0000 0.52767  0.20800  0.45450  Biso   1.000  C
  C316     1.0000 0.47233  0.20800  0.04550  Biso   1.000  C
  C317     1.0000 0.97233  0.29200  0.54550  Biso   1.000  C
  C318     1.0000 0.02767  0.29200  0.95450  Biso   1.000  C
  C319     1.0000 0.47233  0.79200  0.54550  Biso   1.000  C
  C320     1.0000 0.52767  0.79200  0.95450  Biso   1.000  C
  H265     1.0000 0.01860  0.74240  0.41240  Biso   1.000  H
  H266     1.0000 0.98140  0.74240  0.08760  Biso   1.000  H
  H267     1.0000 0.51860  0.24240  0.41240  Biso   1.000  H
  H268     1.0000 0.48140  0.24240  0.08760  Biso   1.000  H
  H269     1.0000 0.98140  0.25760  0.58760  Biso   1.000  H
  H270     1.0000 0.01860  0.25760  0.91240  Biso   1.000  H
  H271     1.0000 0.48140  0.75760  0.58760  Biso   1.000  H
  H272     1.0000 0.51860  0.75760  0.91240  Biso   1.000  H
  C321     1.0000 0.05190  0.73690  0.49490  Biso   1.000  C
  C322     1.0000 0.94810  0.73690  0.00510  Biso   1.000  C
  C323     1.0000 0.55190  0.23690  0.49490  Biso   1.000  C
  C324     1.0000 0.44810  0.23690  0.00510  Biso   1.000  C
  C325     1.0000 0.94810  0.26310  0.50510  Biso   1.000  C
  C326     1.0000 0.05190  0.26310  0.99490  Biso   1.000  C
  C327     1.0000 0.44810  0.76310  0.50510  Biso   1.000  C
  C328     1.0000 0.55190  0.76310  0.99490  Biso   1.000  C
  H273     1.0000 0.05940  0.79010  0.48020  Biso   1.000  H
  H274     1.0000 0.94060  0.79010  0.01980  Biso   1.000  H
  H275     1.0000 0.55940  0.29010  0.48020  Biso   1.000  H
  H276     1.0000 0.44060  0.29010  0.01980  Biso   1.000  H
  H277     1.0000 0.94060  0.20990  0.51980  Biso   1.000  H
  H278     1.0000 0.05940  0.20990  0.98020  Biso   1.000  H
  H279     1.0000 0.44060  0.70990  0.51980  Biso   1.000  H
  H280     1.0000 0.55940  0.70990  0.98020  Biso   1.000  H
  C329     1.0000 0.11229  0.77310  0.54380  Biso   1.000  C
  C330     1.0000 0.88771  0.77310  0.95620  Biso   1.000  C
  C331     1.0000 0.61229  0.27310  0.54380  Biso   1.000  C
  C332     1.0000 0.38771  0.27310  0.95620  Biso   1.000  C
  C333     1.0000 0.88771  0.22690  0.45620  Biso   1.000  C
  C334     1.0000 0.11229  0.22690  0.04380  Biso   1.000  C
  C335     1.0000 0.38771  0.72690  0.45620  Biso   1.000  C
  C336     1.0000 0.61229  0.72690  0.04380  Biso   1.000  C
  C337     1.0000 0.11751  0.71820  0.48670  Biso   1.000  C
  C338     1.0000 0.88249  0.71820  0.01330  Biso   1.000  C
  C339     1.0000 0.61751  0.21820  0.48670  Biso   1.000  C
  C340     1.0000 0.38249  0.21820  0.01330  Biso   1.000  C
  C341     1.0000 0.88249  0.28180  0.51330  Biso   1.000  C
  C342     1.0000 0.11751  0.28180  0.98670  Biso   1.000  C
  C343     1.0000 0.38249  0.78180  0.51330  Biso   1.000  C
  C344     1.0000 0.61751  0.78180  0.98670  Biso   1.000  C
  H281     1.0000 0.11300  0.65620  0.48540  Biso   1.000  H
  H282     1.0000 0.88700  0.65620  0.01460  Biso   1.000  H
  H283     1.0000 0.61300  0.15620  0.48540  Biso   1.000  H
  H284     1.0000 0.38700  0.15620  0.01460  Biso   1.000  H
  H285     1.0000 0.88700  0.34380  0.51460  Biso   1.000  H
  H286     1.0000 0.11300  0.34380  0.98540  Biso   1.000  H
  H287     1.0000 0.38700  0.84380  0.51460  Biso   1.000  H
  H288     1.0000 0.61300  0.84380  0.98540  Biso   1.000  H
  C345     1.0000 0.12921  0.75340  0.43180  Biso   1.000  C
  C346     1.0000 0.87079  0.75340  0.06820  Biso   1.000  C
  C347     1.0000 0.62921  0.25340  0.43180  Biso   1.000  C
  C348     1.0000 0.37079  0.25340  0.06820  Biso   1.000  C
  C349     1.0000 0.87079  0.24660  0.56820  Biso   1.000  C
  C350     1.0000 0.12921  0.24660  0.93180  Biso   1.000  C
  C351     1.0000 0.37079  0.74660  0.56820  Biso   1.000  C
  C352     1.0000 0.62921  0.74660  0.93180  Biso   1.000  C
  H289     1.0000 0.13250  0.71590  0.39260  Biso   1.000  H
  H290     1.0000 0.86750  0.71590  0.10740  Biso   1.000  H
  H291     1.0000 0.63250  0.21590  0.39260  Biso   1.000  H
  H292     1.0000 0.36750  0.21590  0.10740  Biso   1.000  H
  H293     1.0000 0.86750  0.28410  0.60740  Biso   1.000  H
  H294     1.0000 0.13250  0.28410  0.89260  Biso   1.000  H
  H295     1.0000 0.36750  0.78410  0.60740  Biso   1.000  H
  H296     1.0000 0.63250  0.78410  0.89260  Biso   1.000  H
  C353     1.0000 0.13605  0.84440  0.43450  Biso   1.000  C
  C354     1.0000 0.86395  0.84440  0.06550  Biso   1.000  C
  C355     1.0000 0.63605  0.34440  0.43450  Biso   1.000  C
  C356     1.0000 0.36395  0.34440  0.06550  Biso   1.000  C
  C357     1.0000 0.86395  0.15560  0.56550  Biso   1.000  C
  C358     1.0000 0.13605  0.15560  0.93450  Biso   1.000  C
  C359     1.0000 0.36395  0.65560  0.56550  Biso   1.000  C
  C360     1.0000 0.63605  0.65560  0.93450  Biso   1.000  C
  H297     1.0000 0.14420  0.86880  0.39740  Biso   1.000  H
  H298     1.0000 0.85580  0.86880  0.10260  Biso   1.000  H
  H299     1.0000 0.64420  0.36880  0.39740  Biso   1.000  H
  H300     1.0000 0.35580  0.36880  0.10260  Biso   1.000  H
  H301     1.0000 0.85580  0.13120  0.60260  Biso   1.000  H
  H302     1.0000 0.14420  0.13120  0.89740  Biso   1.000  H
  H303     1.0000 0.35580  0.63120  0.60260  Biso   1.000  H
  H304     1.0000 0.64420  0.63120  0.89740  Biso   1.000  H
  C361     1.0000 0.13098  0.89860  0.49060  Biso   1.000  C
  C362     1.0000 0.86902  0.89860  0.00940  Biso   1.000  C
  C363     1.0000 0.63098  0.39860  0.49060  Biso   1.000  C
  C364     1.0000 0.36902  0.39860  0.00940  Biso   1.000  C
  C365     1.0000 0.86902  0.10140  0.50940  Biso   1.000  C
  C366     1.0000 0.13098  0.10140  0.99060  Biso   1.000  C
  C367     1.0000 0.36902  0.60140  0.50940  Biso   1.000  C
  C368     1.0000 0.63098  0.60140  0.99060  Biso   1.000  C
  H305     1.0000 0.13560  0.96040  0.49200  Biso   1.000  H
  H306     1.0000 0.86440  0.96040  0.00800  Biso   1.000  H
  H307     1.0000 0.63560  0.46040  0.49200  Biso   1.000  H
  H308     1.0000 0.36440  0.46040  0.00800  Biso   1.000  H
  H309     1.0000 0.86440  0.03960  0.50800  Biso   1.000  H
  H310     1.0000 0.13560  0.03960  0.99200  Biso   1.000  H
  H311     1.0000 0.36440  0.53960  0.50800  Biso   1.000  H
  H312     1.0000 0.63560  0.53960  0.99200  Biso   1.000  H
  C369     1.0000 0.11912  0.86370  0.54560  Biso   1.000  C
  C370     1.0000 0.88088  0.86370  0.95440  Biso   1.000  C
  C371     1.0000 0.61912  0.36370  0.54560  Biso   1.000  C
  C372     1.0000 0.38088  0.36370  0.95440  Biso   1.000  C
  C373     1.0000 0.88088  0.13630  0.45440  Biso   1.000  C
  C374     1.0000 0.11912  0.13630  0.04560  Biso   1.000  C
  C375     1.0000 0.38088  0.63630  0.45440  Biso   1.000  C
  C376     1.0000 0.61912  0.63630  0.04560  Biso   1.000  C
  H313     1.0000 0.11570  0.90180  0.58440  Biso   1.000  H
  H314     1.0000 0.88430  0.90180  0.91560  Biso   1.000  H
  H315     1.0000 0.61570  0.40180  0.58440  Biso   1.000  H
  H316     1.0000 0.38430  0.40180  0.91560  Biso   1.000  H
  H317     1.0000 0.88430  0.09820  0.41560  Biso   1.000  H
  H318     1.0000 0.11570  0.09820  0.08440  Biso   1.000  H
  H319     1.0000 0.38430  0.59820  0.41560  Biso   1.000  H
  H320     1.0000 0.61570  0.59820  0.08440  Biso   1.000  H
  C377     1.0000 0.11233  0.62250  0.64760  Biso   1.000  C
  C378     1.0000 0.88767  0.62250  0.85240  Biso   1.000  C
  C379     1.0000 0.61233  0.12250  0.64760  Biso   1.000  C
  C380     1.0000 0.38767  0.12250  0.85240  Biso   1.000  C
  C381     1.0000 0.88767  0.37750  0.35240  Biso   1.000  C
  C382     1.0000 0.11233  0.37750  0.14760  Biso   1.000  C
  C383     1.0000 0.38767  0.87750  0.35240  Biso   1.000  C
  C384     1.0000 0.61233  0.87750  0.14760  Biso   1.000  C
  H321     1.0000 0.10190  0.59100  0.67880  Biso   1.000  H
  H322     1.0000 0.89810  0.59100  0.82120  Biso   1.000  H
  H323     1.0000 0.60190  0.09100  0.67880  Biso   1.000  H
  H324     1.0000 0.39810  0.09100  0.82120  Biso   1.000  H
  H325     1.0000 0.89810  0.40900  0.32120  Biso   1.000  H
  H326     1.0000 0.10190  0.40900  0.17880  Biso   1.000  H
  H327     1.0000 0.39810  0.90900  0.32120  Biso   1.000  H
  H328     1.0000 0.60190  0.90900  0.17880  Biso   1.000  H
  H329     1.0000 0.11210  0.58450  0.60260  Biso   1.000  H
  H330     1.0000 0.88790  0.58450  0.89740  Biso   1.000  H
  H331     1.0000 0.61210  0.08450  0.60260  Biso   1.000  H
  H332     1.0000 0.38790  0.08450  0.89740  Biso   1.000  H
  H333     1.0000 0.88790  0.41550  0.39740  Biso   1.000  H
  H334     1.0000 0.11210  0.41550  0.10260  Biso   1.000  H
  H335     1.0000 0.38790  0.91550  0.39740  Biso   1.000  H
  H336     1.0000 0.61210  0.91550  0.10260  Biso   1.000  H
  C385     1.0000 0.15344  0.51410  0.73330  Biso   1.000  C
  C386     1.0000 0.84656  0.51410  0.76670  Biso   1.000  C
  C387     1.0000 0.65344  0.01410  0.73330  Biso   1.000  C
  C388     1.0000 0.34656  0.01410  0.76670  Biso   1.000  C
  C389     1.0000 0.84656  0.48590  0.26670  Biso   1.000  C
  C390     1.0000 0.15344  0.48590  0.23330  Biso   1.000  C
  C391     1.0000 0.34656  0.98590  0.26670  Biso   1.000  C
  C392     1.0000 0.65344  0.98590  0.23330  Biso   1.000  C
  C393     1.0000 0.17906  0.49740  0.77410  Biso   1.000  C
  C394     1.0000 0.82094  0.49740  0.72590  Biso   1.000  C
  C395     1.0000 0.67906  0.99740  0.77410  Biso   1.000  C
  C396     1.0000 0.32094  0.99740  0.72590  Biso   1.000  C
  C397     1.0000 0.82094  0.50260  0.22590  Biso   1.000  C
  C398     1.0000 0.17906  0.50260  0.27410  Biso   1.000  C
  C399     1.0000 0.32094  0.00260  0.22590  Biso   1.000  C
  C400     1.0000 0.67906  0.00260  0.27410  Biso   1.000  C
  H337     1.0000 0.19160  0.54440  0.78150  Biso   1.000  H
  H338     1.0000 0.80840  0.54440  0.71850  Biso   1.000  H
  H339     1.0000 0.69160  0.04440  0.78150  Biso   1.000  H
  H340     1.0000 0.30840  0.04440  0.71850  Biso   1.000  H
  H341     1.0000 0.80840  0.45560  0.21850  Biso   1.000  H
  H342     1.0000 0.19160  0.45560  0.28150  Biso   1.000  H
  H343     1.0000 0.30840  0.95560  0.21850  Biso   1.000  H
  H344     1.0000 0.69160  0.95560  0.28150  Biso   1.000  H
  C401     1.0000 0.18620  0.41230  0.80370  Biso   1.000  C
  C402     1.0000 0.81380  0.41230  0.69630  Biso   1.000  C
  C403     1.0000 0.68620  0.91230  0.80370  Biso   1.000  C
  C404     1.0000 0.31380  0.91230  0.69630  Biso   1.000  C
  C405     1.0000 0.81380  0.58770  0.19630  Biso   1.000  C
  C406     1.0000 0.18620  0.58770  0.30370  Biso   1.000  C
  C407     1.0000 0.31380  0.08770  0.19630  Biso   1.000  C
  C408     1.0000 0.68620  0.08770  0.30370  Biso   1.000  C
  H345     1.0000 0.20350  0.40160  0.83180  Biso   1.000  H
  H346     1.0000 0.79650  0.40160  0.66820  Biso   1.000  H
  H347     1.0000 0.70350  0.90160  0.83180  Biso   1.000  H
  H348     1.0000 0.29650  0.90160  0.66820  Biso   1.000  H
  H349     1.0000 0.79650  0.59840  0.16820  Biso   1.000  H
  H350     1.0000 0.20350  0.59840  0.33180  Biso   1.000  H
  H351     1.0000 0.29650  0.09840  0.16820  Biso   1.000  H
  H352     1.0000 0.70350  0.09840  0.33180  Biso   1.000  H
  C409     1.0000 0.16821  0.34360  0.79220  Biso   1.000  C
  C410     1.0000 0.83179  0.34360  0.70780  Biso   1.000  C
  C411     1.0000 0.66821  0.84360  0.79220  Biso   1.000  C
  C412     1.0000 0.33179  0.84360  0.70780  Biso   1.000  C
  C413     1.0000 0.83179  0.65640  0.20780  Biso   1.000  C
  C414     1.0000 0.16821  0.65640  0.29220  Biso   1.000  C
  C415     1.0000 0.33179  0.15640  0.20780  Biso   1.000  C
  C416     1.0000 0.66821  0.15640  0.29220  Biso   1.000  C
  H353     1.0000 0.17320  0.28550  0.81240  Biso   1.000  H
  H354     1.0000 0.82680  0.28550  0.68760  Biso   1.000  H
  H355     1.0000 0.67320  0.78550  0.81240  Biso   1.000  H
  H356     1.0000 0.32680  0.78550  0.68760  Biso   1.000  H
  H357     1.0000 0.82680  0.71450  0.18760  Biso   1.000  H
  H358     1.0000 0.17320  0.71450  0.31240  Biso   1.000  H
  H359     1.0000 0.32680  0.21450  0.18760  Biso   1.000  H
  H360     1.0000 0.67320  0.21450  0.31240  Biso   1.000  H
  C417     1.0000 0.14323  0.35850  0.75180  Biso   1.000  C
  C418     1.0000 0.85677  0.35850  0.74820  Biso   1.000  C
  C419     1.0000 0.64323  0.85850  0.75180  Biso   1.000  C
  C420     1.0000 0.35677  0.85850  0.74820  Biso   1.000  C
  C421     1.0000 0.85677  0.64150  0.24820  Biso   1.000  C
  C422     1.0000 0.14323  0.64150  0.25180  Biso   1.000  C
  C423     1.0000 0.35677  0.14150  0.24820  Biso   1.000  C
  C424     1.0000 0.64323  0.14150  0.25180  Biso   1.000  C
  H361     1.0000 0.13090  0.31080  0.74410  Biso   1.000  H
  H362     1.0000 0.86910  0.31080  0.75590  Biso   1.000  H
  H363     1.0000 0.63090  0.81080  0.74410  Biso   1.000  H
  H364     1.0000 0.36910  0.81080  0.75590  Biso   1.000  H
  H365     1.0000 0.86910  0.68920  0.25590  Biso   1.000  H
  H366     1.0000 0.13090  0.68920  0.24410  Biso   1.000  H
  H367     1.0000 0.36910  0.18920  0.25590  Biso   1.000  H
  H368     1.0000 0.63090  0.18920  0.24410  Biso   1.000  H
  C425     1.0000 0.13581  0.44320  0.72220  Biso   1.000  C
  C426     1.0000 0.86419  0.44320  0.77780  Biso   1.000  C
  C427     1.0000 0.63581  0.94320  0.72220  Biso   1.000  C
  C428     1.0000 0.36419  0.94320  0.77780  Biso   1.000  C
  C429     1.0000 0.86419  0.55680  0.27780  Biso   1.000  C
  C430     1.0000 0.13581  0.55680  0.22220  Biso   1.000  C
  C431     1.0000 0.36419  0.05680  0.27780  Biso   1.000  C
  C432     1.0000 0.63581  0.05680  0.22220  Biso   1.000  C
  H369     1.0000 0.11850  0.45290  0.69390  Biso   1.000  H
  H370     1.0000 0.88150  0.45290  0.80610  Biso   1.000  H
  H371     1.0000 0.61850  0.95290  0.69390  Biso   1.000  H
  H372     1.0000 0.38150  0.95290  0.80610  Biso   1.000  H
  H373     1.0000 0.88150  0.54710  0.30610  Biso   1.000  H
  H374     1.0000 0.11850  0.54710  0.19390  Biso   1.000  H
  H375     1.0000 0.38150  0.04710  0.30610  Biso   1.000  H
  H376     1.0000 0.61850  0.04710  0.19390  Biso   1.000  H
  C433     1.0000 0.16463  0.64290  0.63100  Biso   1.000  C
  C434     1.0000 0.83537  0.64290  0.86900  Biso   1.000  C
  C435     1.0000 0.66463  0.14290  0.63100  Biso   1.000  C
  C436     1.0000 0.33537  0.14290  0.86900  Biso   1.000  C
  C437     1.0000 0.83537  0.35710  0.36900  Biso   1.000  C
  C438     1.0000 0.16463  0.35710  0.13100  Biso   1.000  C
  C439     1.0000 0.33537  0.85710  0.36900  Biso   1.000  C
  C440     1.0000 0.66463  0.85710  0.13100  Biso   1.000  C
  C441     1.0000 0.16507  0.57560  0.57860  Biso   1.000  C
  C442     1.0000 0.83493  0.57560  0.92140  Biso   1.000  C
  C443     1.0000 0.66507  0.07560  0.57860  Biso   1.000  C
  C444     1.0000 0.33493  0.07560  0.92140  Biso   1.000  C
  C445     1.0000 0.83493  0.42440  0.42140  Biso   1.000  C
  C446     1.0000 0.16507  0.42440  0.07860  Biso   1.000  C
  C447     1.0000 0.33493  0.92440  0.42140  Biso   1.000  C
  C448     1.0000 0.66507  0.92440  0.07860  Biso   1.000  C
  H377     1.0000 0.15580  0.52130  0.58070  Biso   1.000  H
  H378     1.0000 0.84420  0.52130  0.91930  Biso   1.000  H
  H379     1.0000 0.65580  0.02130  0.58070  Biso   1.000  H
  H380     1.0000 0.34420  0.02130  0.91930  Biso   1.000  H
  H381     1.0000 0.84420  0.47870  0.41930  Biso   1.000  H
  H382     1.0000 0.15580  0.47870  0.08070  Biso   1.000  H
  H383     1.0000 0.34420  0.97870  0.41930  Biso   1.000  H
  H384     1.0000 0.65580  0.97870  0.08070  Biso   1.000  H
  C449     1.0000 0.17904  0.58680  0.52280  Biso   1.000  C
  C450     1.0000 0.82096  0.58680  0.97720  Biso   1.000  C
  C451     1.0000 0.67904  0.08680  0.52280  Biso   1.000  C
  C452     1.0000 0.32096  0.08680  0.97720  Biso   1.000  C
  C453     1.0000 0.82096  0.41320  0.47720  Biso   1.000  C
  C454     1.0000 0.17904  0.41320  0.02280  Biso   1.000  C
  C455     1.0000 0.32096  0.91320  0.47720  Biso   1.000  C
  C456     1.0000 0.67904  0.91320  0.02280  Biso   1.000  C
  H385     1.0000 0.17890  0.54070  0.48630  Biso   1.000  H
  H386     1.0000 0.82110  0.54070  0.01370  Biso   1.000  H
  H387     1.0000 0.67890  0.04070  0.48630  Biso   1.000  H
  H388     1.0000 0.32110  0.04070  0.01370  Biso   1.000  H
  H389     1.0000 0.82110  0.45930  0.51370  Biso   1.000  H
  H390     1.0000 0.17890  0.45930  0.98630  Biso   1.000  H
  H391     1.0000 0.32110  0.95930  0.51370  Biso   1.000  H
  H392     1.0000 0.67890  0.95930  0.98630  Biso   1.000  H
  C457     1.0000 0.19296  0.66340  0.52000  Biso   1.000  C
  C458     1.0000 0.80704  0.66340  0.98000  Biso   1.000  C
  C459     1.0000 0.69296  0.16340  0.52000  Biso   1.000  C
  C460     1.0000 0.30704  0.16340  0.98000  Biso   1.000  C
  C461     1.0000 0.80704  0.33660  0.48000  Biso   1.000  C
  C462     1.0000 0.19296  0.33660  0.02000  Biso   1.000  C
  C463     1.0000 0.30704  0.83660  0.48000  Biso   1.000  C
  C464     1.0000 0.69296  0.83660  0.02000  Biso   1.000  C
  H393     1.0000 0.20280  0.67040  0.48250  Biso   1.000  H
  H394     1.0000 0.79720  0.67040  0.01750  Biso   1.000  H
  H395     1.0000 0.70280  0.17040  0.48250  Biso   1.000  H
  H396     1.0000 0.29720  0.17040  0.01750  Biso   1.000  H
  H397     1.0000 0.79720  0.32960  0.51750  Biso   1.000  H
  H398     1.0000 0.20280  0.32960  0.98250  Biso   1.000  H
  H399     1.0000 0.29720  0.82960  0.51750  Biso   1.000  H
  H400     1.0000 0.70280  0.82960  0.98250  Biso   1.000  H
  C465     1.0000 0.19261  0.73130  0.57270  Biso   1.000  C
  C466     1.0000 0.80739  0.73130  0.92730  Biso   1.000  C
  C467     1.0000 0.69261  0.23130  0.57270  Biso   1.000  C
  C468     1.0000 0.30739  0.23130  0.92730  Biso   1.000  C
  C469     1.0000 0.80739  0.26870  0.42730  Biso   1.000  C
  C470     1.0000 0.19261  0.26870  0.07270  Biso   1.000  C
  C471     1.0000 0.30739  0.76870  0.42730  Biso   1.000  C
  C472     1.0000 0.69261  0.76870  0.07270  Biso   1.000  C
  H401     1.0000 0.20210  0.78510  0.57050  Biso   1.000  H
  H402     1.0000 0.79790  0.78510  0.92950  Biso   1.000  H
  H403     1.0000 0.70210  0.28510  0.57050  Biso   1.000  H
  H404     1.0000 0.29790  0.28510  0.92950  Biso   1.000  H
  H405     1.0000 0.79790  0.21490  0.42950  Biso   1.000  H
  H406     1.0000 0.20210  0.21490  0.07050  Biso   1.000  H
  H407     1.0000 0.29790  0.71490  0.42950  Biso   1.000  H
  H408     1.0000 0.70210  0.71490  0.07050  Biso   1.000  H
  C473     1.0000 0.17860  0.72170  0.62830  Biso   1.000  C
  C474     1.0000 0.82140  0.72170  0.87170  Biso   1.000  C
  C475     1.0000 0.67860  0.22170  0.62830  Biso   1.000  C
  C476     1.0000 0.32140  0.22170  0.87170  Biso   1.000  C
  C477     1.0000 0.82140  0.27830  0.37170  Biso   1.000  C
  C478     1.0000 0.17860  0.27830  0.12830  Biso   1.000  C
  C479     1.0000 0.32140  0.77830  0.37170  Biso   1.000  C
  C480     1.0000 0.67860  0.77830  0.12830  Biso   1.000  C
  H409     1.0000 0.17860  0.76840  0.66420  Biso   1.000  H
  H410     1.0000 0.82140  0.76840  0.83580  Biso   1.000  H
  H411     1.0000 0.67860  0.26840  0.66420  Biso   1.000  H
  H412     1.0000 0.32140  0.26840  0.83580  Biso   1.000  H
  H413     1.0000 0.82140  0.23160  0.33580  Biso   1.000  H
  H414     1.0000 0.17860  0.23160  0.16420  Biso   1.000  H
  H415     1.0000 0.32140  0.73160  0.33580  Biso   1.000  H
  H416     1.0000 0.67860  0.73160  0.16420  Biso   1.000  H
  C481     1.0000 0.16050  0.02360  0.71970  Biso   1.000  C
  C482     1.0000 0.83950  0.02360  0.78030  Biso   1.000  C
  C483     1.0000 0.66050  0.52360  0.71970  Biso   1.000  C
  C484     1.0000 0.33950  0.52360  0.78030  Biso   1.000  C
  C485     1.0000 0.83950  0.97640  0.28030  Biso   1.000  C
  C486     1.0000 0.16050  0.97640  0.21970  Biso   1.000  C
  C487     1.0000 0.33950  0.47640  0.28030  Biso   1.000  C
  C488     1.0000 0.66050  0.47640  0.21970  Biso   1.000  C
  S9       1.0000 0.06205  0.64410  0.18030  Biso   1.000  S
  S10      1.0000 0.93795  0.64410  0.31970  Biso   1.000  S
  S11      1.0000 0.56205  0.14410  0.18030  Biso   1.000  S
  S12      1.0000 0.43795  0.14410  0.31970  Biso   1.000  S
  S13      1.0000 0.93795  0.35590  0.81970  Biso   1.000  S
  S14      1.0000 0.06205  0.35590  0.68030  Biso   1.000  S
  S15      1.0000 0.43795  0.85590  0.81970  Biso   1.000  S
  S16      1.0000 0.56205  0.85590  0.68030  Biso   1.000  S
  F25      1.0000 0.02480  0.74910  0.20110  Biso   1.000  F
  F26      1.0000 0.97520  0.74910  0.29890  Biso   1.000  F
  F27      1.0000 0.52480  0.24910  0.20110  Biso   1.000  F
  F28      1.0000 0.47520  0.24910  0.29890  Biso   1.000  F
  F29      1.0000 0.97520  0.25090  0.79890  Biso   1.000  F
  F30      1.0000 0.02480  0.25090  0.70110  Biso   1.000  F
  F31      1.0000 0.47520  0.75090  0.79890  Biso   1.000  F
  F32      1.0000 0.52480  0.75090  0.70110  Biso   1.000  F
  F33      1.0000 0.01677  0.59640  0.19330  Biso   1.000  F
  F34      1.0000 0.98323  0.59640  0.30670  Biso   1.000  F
  F35      1.0000 0.51677  0.09640  0.19330  Biso   1.000  F
  F36      1.0000 0.48323  0.09640  0.30670  Biso   1.000  F
  F37      1.0000 0.98323  0.40360  0.80670  Biso   1.000  F
  F38      1.0000 0.01677  0.40360  0.69330  Biso   1.000  F
  F39      1.0000 0.48323  0.90360  0.80670  Biso   1.000  F
  F40      1.0000 0.51677  0.90360  0.69330  Biso   1.000  F
  F41      1.0000 0.04179  0.64860  0.29430  Biso   1.000  F
  F42      1.0000 0.95821  0.64860  0.20570  Biso   1.000  F
  F43      1.0000 0.54179  0.14860  0.29430  Biso   1.000  F
  F44      1.0000 0.45821  0.14860  0.20570  Biso   1.000  F
  F45      1.0000 0.95821  0.35140  0.70570  Biso   1.000  F
  F46      1.0000 0.04179  0.35140  0.79430  Biso   1.000  F
  F47      1.0000 0.45821  0.85140  0.70570  Biso   1.000  F
  F48      1.0000 0.54179  0.85140  0.79430  Biso   1.000  F
  O25      1.0000 0.05040  0.66630  0.09870  Biso   1.000  O
  O26      1.0000 0.94960  0.66630  0.40130  Biso   1.000  O
  O27      1.0000 0.55040  0.16630  0.09870  Biso   1.000  O
  O28      1.0000 0.44960  0.16630  0.40130  Biso   1.000  O
  O29      1.0000 0.94960  0.33370  0.90130  Biso   1.000  O
  O30      1.0000 0.05040  0.33370  0.59870  Biso   1.000  O
  O31      1.0000 0.44960  0.83370  0.90130  Biso   1.000  O
  O32      1.0000 0.55040  0.83370  0.59870  Biso   1.000  O
  O33      1.0000 0.07005  0.55350  0.19230  Biso   1.000  O
  O34      1.0000 0.92995  0.55350  0.30770  Biso   1.000  O
  O35      1.0000 0.57005  0.05350  0.19230  Biso   1.000  O
  O36      1.0000 0.42995  0.05350  0.30770  Biso   1.000  O
  O37      1.0000 0.92995  0.44650  0.80770  Biso   1.000  O
  O38      1.0000 0.07005  0.44650  0.69230  Biso   1.000  O
  O39      1.0000 0.42995  0.94650  0.80770  Biso   1.000  O
  O40      1.0000 0.57005  0.94650  0.69230  Biso   1.000  O
  O41      1.0000 0.08080  0.71170  0.22350  Biso   1.000  O
  O42      1.0000 0.91920  0.71170  0.27650  Biso   1.000  O
  O43      1.0000 0.58080  0.21170  0.22350  Biso   1.000  O
  O44      1.0000 0.41920  0.21170  0.27650  Biso   1.000  O
  O45      1.0000 0.91920  0.28830  0.77650  Biso   1.000  O
  O46      1.0000 0.08080  0.28830  0.72350  Biso   1.000  O
  O47      1.0000 0.41920  0.78830  0.77650  Biso   1.000  O
  O48      1.0000 0.58080  0.78830  0.72350  Biso   1.000  O
  C489     1.0000 0.03550  0.66320  0.21980  Biso   1.000  C
  C490     1.0000 0.96450  0.66320  0.28020  Biso   1.000  C
  C491     1.0000 0.53550  0.16320  0.21980  Biso   1.000  C
  C492     1.0000 0.46450  0.16320  0.28020  Biso   1.000  C
  C493     1.0000 0.96450  0.33680  0.78020  Biso   1.000  C
  C494     1.0000 0.03550  0.33680  0.71980  Biso   1.000  C
  C495     1.0000 0.46450  0.83680  0.78020  Biso   1.000  C
  C496     1.0000 0.53550  0.83680  0.71980  Biso   1.000  C
  O49      1.0000 0.08136  0.82210  0.05810  Biso   1.000  O
  O50      1.0000 0.91864  0.82210  0.44190  Biso   1.000  O
  O51      1.0000 0.58136  0.32210  0.05810  Biso   1.000  O
  O52      1.0000 0.41864  0.32210  0.44190  Biso   1.000  O
  O53      1.0000 0.91864  0.17790  0.94190  Biso   1.000  O
  O54      1.0000 0.08136  0.17790  0.55810  Biso   1.000  O
  O55      1.0000 0.41864  0.67790  0.94190  Biso   1.000  O
  O56      1.0000 0.58136  0.67790  0.55810  Biso   1.000  O
  H417     1.0000 0.07190  0.79080  0.07970  Biso   1.000  H
  H418     1.0000 0.92810  0.79080  0.42030  Biso   1.000  H
  H419     1.0000 0.57190  0.29080  0.07970  Biso   1.000  H
  H420     1.0000 0.42810  0.29080  0.42030  Biso   1.000  H
  H421     1.0000 0.92810  0.20920  0.92030  Biso   1.000  H
  H422     1.0000 0.07190  0.20920  0.57970  Biso   1.000  H
  H423     1.0000 0.42810  0.70920  0.92030  Biso   1.000  H
  H424     1.0000 0.57190  0.70920  0.57970  Biso   1.000  H
  C497     1.0000 0.10520  0.83940  0.10920  Biso   1.000  C
  C498     1.0000 0.89480  0.83940  0.39080  Biso   1.000  C
  C499     1.0000 0.60520  0.33940  0.10920  Biso   1.000  C
  C500     1.0000 0.39480  0.33940  0.39080  Biso   1.000  C
  C501     1.0000 0.89480  0.16060  0.89080  Biso   1.000  C
  C502     1.0000 0.10520  0.16060  0.60920  Biso   1.000  C
  C503     1.0000 0.39480  0.66060  0.89080  Biso   1.000  C
  C504     1.0000 0.60520  0.66060  0.60920  Biso   1.000  C
  H425     1.0000 0.11360  0.89130  0.09150  Biso   1.000  H
  H426     1.0000 0.88640  0.89130  0.40850  Biso   1.000  H
  H427     1.0000 0.61360  0.39130  0.09150  Biso   1.000  H
  H428     1.0000 0.38640  0.39130  0.40850  Biso   1.000  H
  H429     1.0000 0.88640  0.10870  0.90850  Biso   1.000  H
  H430     1.0000 0.11360  0.10870  0.59150  Biso   1.000  H
  H431     1.0000 0.38640  0.60870  0.90850  Biso   1.000  H
  H432     1.0000 0.61360  0.60870  0.59150  Biso   1.000  H
  H433     1.0000 0.11650  0.78660  0.11230  Biso   1.000  H
  H434     1.0000 0.88350  0.78660  0.38770  Biso   1.000  H
  H435     1.0000 0.61650  0.28660  0.11230  Biso   1.000  H
  H436     1.0000 0.38350  0.28660  0.38770  Biso   1.000  H
  H437     1.0000 0.88350  0.21340  0.88770  Biso   1.000  H
  H438     1.0000 0.11650  0.21340  0.61230  Biso   1.000  H
  H439     1.0000 0.38350  0.71340  0.88770  Biso   1.000  H
  H440     1.0000 0.61650  0.71340  0.61230  Biso   1.000  H
  H441     1.0000 0.10220  0.85240  0.15960  Biso   1.000  H
  H442     1.0000 0.89780  0.85240  0.34040  Biso   1.000  H
  H443     1.0000 0.60220  0.35240  0.15960  Biso   1.000  H
  H444     1.0000 0.39780  0.35240  0.34040  Biso   1.000  H
  H445     1.0000 0.89780  0.14760  0.84040  Biso   1.000  H
  H446     1.0000 0.10220  0.14760  0.65960  Biso   1.000  H
  H447     1.0000 0.39780  0.64760  0.84040  Biso   1.000  H
  H448     1.0000 0.60220  0.64760  0.65960  Biso   1.000  H
  O57      1.0000 0.24223  0.94910  0.54610  Biso   1.000  O
  O58      1.0000 0.75777  0.94910  0.95390  Biso   1.000  O
  O59      1.0000 0.74223  0.44910  0.54610  Biso   1.000  O
  O60      1.0000 0.25777  0.44910  0.95390  Biso   1.000  O
  O61      1.0000 0.75777  0.05090  0.45390  Biso   1.000  O
  O62      1.0000 0.24223  0.05090  0.04610  Biso   1.000  O
  O63      1.0000 0.25777  0.55090  0.45390  Biso   1.000  O
  O64      1.0000 0.74223  0.55090  0.04610  Biso   1.000  O
  C505     1.0000 0.23230  0.94100  0.46240  Biso   1.000  C
  C506     1.0000 0.76770  0.94100  0.03760  Biso   1.000  C
  C507     1.0000 0.73230  0.44100  0.46240  Biso   1.000  C
  C508     1.0000 0.26770  0.44100  0.03760  Biso   1.000  C
  C509     1.0000 0.76770  0.05900  0.53760  Biso   1.000  C
  C510     1.0000 0.23230  0.05900  0.96240  Biso   1.000  C
  C511     1.0000 0.26770  0.55900  0.53760  Biso   1.000  C
  C512     1.0000 0.73230  0.55900  0.96240  Biso   1.000  C
  N17      1.0000 0.24730  0.31590  0.81480  Biso   1.000  N
  N18      1.0000 0.75270  0.31590  0.68520  Biso   1.000  N
  N19      1.0000 0.74730  0.81590  0.81480  Biso   1.000  N
  N20      1.0000 0.25270  0.81590  0.68520  Biso   1.000  N
  N21      1.0000 0.75270  0.68410  0.18520  Biso   1.000  N
  N22      1.0000 0.24730  0.68410  0.31480  Biso   1.000  N
  N23      1.0000 0.25270  0.18410  0.18520  Biso   1.000  N
  N24      1.0000 0.74730  0.18410  0.31480  Biso   1.000  N
  C513     1.0000 0.23910  0.24810  0.85670  Biso   1.000  C
  C514     1.0000 0.76090  0.24810  0.64330  Biso   1.000  C
  C515     1.0000 0.73910  0.74810  0.85670  Biso   1.000  C
  C516     1.0000 0.26090  0.74810  0.64330  Biso   1.000  C
  C517     1.0000 0.76090  0.75190  0.14330  Biso   1.000  C
  C518     1.0000 0.23910  0.75190  0.35670  Biso   1.000  C
  C519     1.0000 0.26090  0.25190  0.14330  Biso   1.000  C
  C520     1.0000 0.73910  0.25190  0.35670  Biso   1.000  C
  C521     1.0000 0.24110  0.15850  0.83670  Biso   1.000  C
  C522     1.0000 0.75890  0.15850  0.66330  Biso   1.000  C
  C523     1.0000 0.74110  0.65850  0.83670  Biso   1.000  C
  C524     1.0000 0.25890  0.65850  0.66330  Biso   1.000  C
  C525     1.0000 0.75890  0.84150  0.16330  Biso   1.000  C
  C526     1.0000 0.24110  0.84150  0.33670  Biso   1.000  C
  C527     1.0000 0.25890  0.34150  0.16330  Biso   1.000  C
  C528     1.0000 0.74110  0.34150  0.33670  Biso   1.000  C
  C529     1.0000 0.25130  0.13690  0.77470  Biso   1.000  C
  C530     1.0000 0.74870  0.13690  0.72530  Biso   1.000  C
  C531     1.0000 0.75130  0.63690  0.77470  Biso   1.000  C
  C532     1.0000 0.24870  0.63690  0.72530  Biso   1.000  C
  C533     1.0000 0.74870  0.86310  0.22530  Biso   1.000  C
  C534     1.0000 0.25130  0.86310  0.27470  Biso   1.000  C
  C535     1.0000 0.24870  0.36310  0.22530  Biso   1.000  C
  C536     1.0000 0.75130  0.36310  0.27470  Biso   1.000  C
  C537     1.0000 0.25950  0.20480  0.73270  Biso   1.000  C
  C538     1.0000 0.74050  0.20480  0.76730  Biso   1.000  C
  C539     1.0000 0.75950  0.70480  0.73270  Biso   1.000  C
  C540     1.0000 0.24050  0.70480  0.76730  Biso   1.000  C
  C541     1.0000 0.74050  0.79520  0.26730  Biso   1.000  C
  C542     1.0000 0.25950  0.79520  0.23270  Biso   1.000  C
  C543     1.0000 0.24050  0.29520  0.26730  Biso   1.000  C
  C544     1.0000 0.75950  0.29520  0.23270  Biso   1.000  C
  C545     1.0000 0.25750  0.29430  0.75280  Biso   1.000  C
  C546     1.0000 0.74250  0.29430  0.74720  Biso   1.000  C
  C547     1.0000 0.75750  0.79430  0.75280  Biso   1.000  C
  C548     1.0000 0.24250  0.79430  0.74720  Biso   1.000  C
  C549     1.0000 0.74250  0.70570  0.24720  Biso   1.000  C
  C550     1.0000 0.25750  0.70570  0.25280  Biso   1.000  C
  C551     1.0000 0.24250  0.20570  0.24720  Biso   1.000  C
  C552     1.0000 0.75750  0.20570  0.25280  Biso   1.000  C
  N25      1.0000 0.24600  0.87000  0.69380  Biso   1.000  N
  N26      1.0000 0.75400  0.87000  0.80620  Biso   1.000  N
  N27      1.0000 0.74600  0.37000  0.69380  Biso   1.000  N
  N28      1.0000 0.25400  0.37000  0.80620  Biso   1.000  N
  N29      1.0000 0.75400  0.13000  0.30620  Biso   1.000  N
  N30      1.0000 0.24600  0.13000  0.19380  Biso   1.000  N
  N31      1.0000 0.25400  0.63000  0.30620  Biso   1.000  N
  N32      1.0000 0.74600  0.63000  0.19380  Biso   1.000  N
  C553     1.0000 0.25160  0.88670  0.77150  Biso   1.000  C
  C554     1.0000 0.74840  0.88670  0.72850  Biso   1.000  C
  C555     1.0000 0.75160  0.38670  0.77150  Biso   1.000  C
  C556     1.0000 0.24840  0.38670  0.72850  Biso   1.000  C
  C557     1.0000 0.74840  0.11330  0.22850  Biso   1.000  C
  C558     1.0000 0.25160  0.11330  0.27150  Biso   1.000  C
  C559     1.0000 0.24840  0.61330  0.22850  Biso   1.000  C
  C560     1.0000 0.75160  0.61330  0.27150  Biso   1.000  C
  C561     1.0000 0.25340  0.97470  0.79810  Biso   1.000  C
  C562     1.0000 0.74660  0.97470  0.70190  Biso   1.000  C
  C563     1.0000 0.75340  0.47470  0.79810  Biso   1.000  C
  C564     1.0000 0.24660  0.47470  0.70190  Biso   1.000  C
  C565     1.0000 0.74660  0.02530  0.20190  Biso   1.000  C
  C566     1.0000 0.25340  0.02530  0.29810  Biso   1.000  C
  C567     1.0000 0.24660  0.52530  0.20190  Biso   1.000  C
  C568     1.0000 0.75340  0.52530  0.29810  Biso   1.000  C
  C569     1.0000 0.24960  0.04610  0.74710  Biso   1.000  C
  C570     1.0000 0.75040  0.04610  0.75290  Biso   1.000  C
  C571     1.0000 0.74960  0.54610  0.74710  Biso   1.000  C
  C572     1.0000 0.25040  0.54610  0.75290  Biso   1.000  C
  C573     1.0000 0.75040  0.95390  0.25290  Biso   1.000  C
  C574     1.0000 0.24960  0.95390  0.24710  Biso   1.000  C
  C575     1.0000 0.25040  0.45390  0.25290  Biso   1.000  C
  C576     1.0000 0.74960  0.45390  0.24710  Biso   1.000  C
  C577     1.0000 0.24400  0.02940  0.66940  Biso   1.000  C
  C578     1.0000 0.75600  0.02940  0.83060  Biso   1.000  C
  C579     1.0000 0.74400  0.52940  0.66940  Biso   1.000  C
  C580     1.0000 0.25600  0.52940  0.83060  Biso   1.000  C
  C581     1.0000 0.75600  0.97060  0.33060  Biso   1.000  C
  C582     1.0000 0.24400  0.97060  0.16940  Biso   1.000  C
  C583     1.0000 0.25600  0.47060  0.33060  Biso   1.000  C
  C584     1.0000 0.74400  0.47060  0.16940  Biso   1.000  C
  C585     1.0000 0.24230  0.94140  0.64280  Biso   1.000  C
  C586     1.0000 0.75770  0.94140  0.85720  Biso   1.000  C
  C587     1.0000 0.74230  0.44140  0.64280  Biso   1.000  C
  C588     1.0000 0.25770  0.44140  0.85720  Biso   1.000  C
  C589     1.0000 0.75770  0.05860  0.35720  Biso   1.000  C
  C590     1.0000 0.24230  0.05860  0.14280  Biso   1.000  C
  C591     1.0000 0.25770  0.55860  0.35720  Biso   1.000  C
  C592     1.0000 0.74230  0.55860  0.14280  Biso   1.000  C
  C593     1.0000 0.04980  0.72210  0.22790  Biso   1.000  C
  C594     1.0000 0.95020  0.72210  0.27210  Biso   1.000  C
  C595     1.0000 0.54980  0.22210  0.22790  Biso   1.000  C
  C596     1.0000 0.45020  0.22210  0.27210  Biso   1.000  C
  C597     1.0000 0.95020  0.27790  0.77210  Biso   1.000  C
  C598     1.0000 0.04980  0.27790  0.72790  Biso   1.000  C
  C599     1.0000 0.45020  0.77790  0.77210  Biso   1.000  C
  C600     1.0000 0.54980  0.77790  0.72790  Biso   1.000  C
  F49      1.0000 0.06210  0.80450  0.22120  Biso   1.000  F
  F50      1.0000 0.93790  0.80450  0.27880  Biso   1.000  F
  F51      1.0000 0.56210  0.30450  0.22120  Biso   1.000  F
  F52      1.0000 0.43790  0.30450  0.27880  Biso   1.000  F
  F53      1.0000 0.93790  0.19550  0.77880  Biso   1.000  F
  F54      1.0000 0.06210  0.19550  0.72120  Biso   1.000  F
  F55      1.0000 0.43790  0.69550  0.77880  Biso   1.000  F
  F56      1.0000 0.56210  0.69550  0.72120  Biso   1.000  F
  F57      1.0000 0.02260  0.73340  0.21270  Biso   1.000  F
  F58      1.0000 0.97740  0.73340  0.28730  Biso   1.000  F
  F59      1.0000 0.52260  0.23340  0.21270  Biso   1.000  F
  F60      1.0000 0.47740  0.23340  0.28730  Biso   1.000  F
  F61      1.0000 0.97740  0.26660  0.78730  Biso   1.000  F
  F62      1.0000 0.02260  0.26660  0.71270  Biso   1.000  F
  F63      1.0000 0.47740  0.76660  0.78730  Biso   1.000  F
  F64      1.0000 0.52260  0.76660  0.71270  Biso   1.000  F
  F65      1.0000 0.05550  0.68980  0.29820  Biso   1.000  F
  F66      1.0000 0.94450  0.68980  0.20180  Biso   1.000  F
  F67      1.0000 0.55550  0.18980  0.29820  Biso   1.000  F
  F68      1.0000 0.44450  0.18980  0.20180  Biso   1.000  F
  F69      1.0000 0.94450  0.31020  0.70180  Biso   1.000  F
  F70      1.0000 0.05550  0.31020  0.79820  Biso   1.000  F
  F71      1.0000 0.44450  0.81020  0.70180  Biso   1.000  F
  F72      1.0000 0.55550  0.81020  0.79820  Biso   1.000  F
  O65      1.0000 0.03490  0.57680  0.16460  Biso   1.000  O
  O66      1.0000 0.96510  0.57680  0.33540  Biso   1.000  O
  O67      1.0000 0.53490  0.07680  0.16460  Biso   1.000  O
  O68      1.0000 0.46510  0.07680  0.33540  Biso   1.000  O
  O69      1.0000 0.96510  0.42320  0.83540  Biso   1.000  O
  O70      1.0000 0.03490  0.42320  0.66460  Biso   1.000  O
  O71      1.0000 0.46510  0.92320  0.83540  Biso   1.000  O
  O72      1.0000 0.53490  0.92320  0.66460  Biso   1.000  O
  O73      1.0000 0.08160  0.60670  0.19090  Biso   1.000  O
  O74      1.0000 0.91840  0.60670  0.30910  Biso   1.000  O
  O75      1.0000 0.58160  0.10670  0.19090  Biso   1.000  O
  O76      1.0000 0.41840  0.10670  0.30910  Biso   1.000  O
  O77      1.0000 0.91840  0.39330  0.80910  Biso   1.000  O
  O78      1.0000 0.08160  0.39330  0.69090  Biso   1.000  O
  O79      1.0000 0.41840  0.89330  0.80910  Biso   1.000  O
  O80      1.0000 0.58160  0.89330  0.69090  Biso   1.000  O
  O81      1.0000 0.05300  0.70020  0.09470  Biso   1.000  O
  O82      1.0000 0.94700  0.70020  0.40530  Biso   1.000  O
  O83      1.0000 0.55300  0.20020  0.09470  Biso   1.000  O
  O84      1.0000 0.44700  0.20020  0.40530  Biso   1.000  O
  O85      1.0000 0.94700  0.29980  0.90530  Biso   1.000  O
  O86      1.0000 0.05300  0.29980  0.59470  Biso   1.000  O
  O87      1.0000 0.44700  0.79980  0.90530  Biso   1.000  O
  O88      1.0000 0.55300  0.79980  0.59470  Biso   1.000  O
  S17      1.0000 0.05640  0.64240  0.16440  Biso   1.000  S
  S18      1.0000 0.94360  0.64240  0.33560  Biso   1.000  S
  S19      1.0000 0.55640  0.14240  0.16440  Biso   1.000  S
  S20      1.0000 0.44360  0.14240  0.33560  Biso   1.000  S
  S21      1.0000 0.94360  0.35760  0.83560  Biso   1.000  S
  S22      1.0000 0.05640  0.35760  0.66440  Biso   1.000  S
  S23      1.0000 0.44360  0.85760  0.83560  Biso   1.000  S
  S24      1.0000 0.55640  0.85760  0.66440  Biso   1.000  S
