data_image0
_cell_length_a       22.3792
_cell_length_b       22.3792
_cell_length_c       13.1261
_cell_angle_alpha    90
_cell_angle_beta     90
_cell_angle_gamma    90

_symmetry_space_group_name_H-M    "P 1"
_symmetry_int_tables_number       1

loop_
  _symmetry_equiv_pos_as_xyz
  'x, y, z'

loop_
  _atom_site_label
  _atom_site_occupancy
  _atom_site_fract_x
  _atom_site_fract_y
  _atom_site_fract_z
  _atom_site_thermal_displace_type
  _atom_site_B_iso_or_equiv
  _atom_site_type_symbol
  Cu1      1.0000 0.25805  0.49195  0.12500  Biso   1.000  Cu
  Cu2      1.0000 0.24195  0.50805  0.62500  Biso   1.000  Cu
  Cu3      1.0000 0.75805  0.00805  0.37500  Biso   1.000  Cu
  Cu4      1.0000 0.74195  0.99195  0.87500  Biso   1.000  Cu
  Cu5      1.0000 0.24195  0.49195  0.37500  Biso   1.000  Cu
  Cu6      1.0000 0.25805  0.50805  0.87500  Biso   1.000  Cu
  Cu7      1.0000 0.74195  0.00805  0.12500  Biso   1.000  Cu
  Cu8      1.0000 0.75805  0.99195  0.62500  Biso   1.000  Cu
  Cu9      1.0000 0.74195  0.50805  0.87500  Biso   1.000  Cu
  Cu10     1.0000 0.75805  0.49195  0.37500  Biso   1.000  Cu
  Cu11     1.0000 0.74195  0.49195  0.12500  Biso   1.000  Cu
  Cu12     1.0000 0.75805  0.50805  0.62500  Biso   1.000  Cu
  Cu13     1.0000 0.24195  0.00805  0.37500  Biso   1.000  Cu
  Cu14     1.0000 0.25805  0.99195  0.87500  Biso   1.000  Cu
  Cu15     1.0000 0.24195  0.99195  0.62500  Biso   1.000  Cu
  Cu16     1.0000 0.25805  0.00805  0.12500  Biso   1.000  Cu
  I1       1.0000 0.16722  0.50000  0.00000  Biso   1.000  I
  I2       1.0000 0.33278  0.50000  0.50000  Biso   1.000  I
  I3       1.0000 0.75000  0.91722  0.25000  Biso   1.000  I
  I4       1.0000 0.75000  0.08278  0.75000  Biso   1.000  I
  I5       1.0000 0.66722  0.00000  0.50000  Biso   1.000  I
  I6       1.0000 0.83278  0.00000  0.00000  Biso   1.000  I
  I7       1.0000 0.25000  0.41722  0.75000  Biso   1.000  I
  I8       1.0000 0.25000  0.58278  0.25000  Biso   1.000  I
  I9       1.0000 0.83278  0.50000  0.00000  Biso   1.000  I
  I10      1.0000 0.66722  0.50000  0.50000  Biso   1.000  I
  I11      1.0000 0.75000  0.58278  0.25000  Biso   1.000  I
  I12      1.0000 0.75000  0.41722  0.75000  Biso   1.000  I
  I13      1.0000 0.33278  0.00000  0.50000  Biso   1.000  I
  I14      1.0000 0.16722  0.00000  0.00000  Biso   1.000  I
  I15      1.0000 0.25000  0.08278  0.75000  Biso   1.000  I
  I16      1.0000 0.25000  0.91722  0.25000  Biso   1.000  I
  N1       1.0000 0.34030  0.49460  0.05300  Biso   1.000  N
  N2       1.0000 0.15970  0.50540  0.55300  Biso   1.000  N
  N3       1.0000 0.75540  0.09030  0.30300  Biso   1.000  N
  N4       1.0000 0.74460  0.90970  0.80300  Biso   1.000  N
  N5       1.0000 0.15970  0.49460  0.44700  Biso   1.000  N
  N6       1.0000 0.34030  0.50540  0.94700  Biso   1.000  N
  N7       1.0000 0.74460  0.09030  0.19700  Biso   1.000  N
  N8       1.0000 0.75540  0.90970  0.69700  Biso   1.000  N
  N9       1.0000 0.84030  0.99460  0.55300  Biso   1.000  N
  N10      1.0000 0.65970  0.00540  0.05300  Biso   1.000  N
  N11      1.0000 0.25540  0.59030  0.80300  Biso   1.000  N
  N12      1.0000 0.24460  0.40970  0.30300  Biso   1.000  N
  N13      1.0000 0.65970  0.99460  0.94700  Biso   1.000  N
  N14      1.0000 0.84030  0.00540  0.44700  Biso   1.000  N
  N15      1.0000 0.24460  0.59030  0.69700  Biso   1.000  N
  N16      1.0000 0.25540  0.40970  0.19700  Biso   1.000  N
  N17      1.0000 0.65970  0.50540  0.94700  Biso   1.000  N
  N18      1.0000 0.84030  0.49460  0.44700  Biso   1.000  N
  N19      1.0000 0.74460  0.40970  0.19700  Biso   1.000  N
  N20      1.0000 0.75540  0.59030  0.69700  Biso   1.000  N
  N21      1.0000 0.84030  0.50540  0.55300  Biso   1.000  N
  N22      1.0000 0.65970  0.49460  0.05300  Biso   1.000  N
  N23      1.0000 0.75540  0.40970  0.30300  Biso   1.000  N
  N24      1.0000 0.74460  0.59030  0.80300  Biso   1.000  N
  N25      1.0000 0.15970  0.00540  0.44700  Biso   1.000  N
  N26      1.0000 0.34030  0.99460  0.94700  Biso   1.000  N
  N27      1.0000 0.24460  0.90970  0.69700  Biso   1.000  N
  N28      1.0000 0.25540  0.09030  0.19700  Biso   1.000  N
  N29      1.0000 0.34030  0.00540  0.05300  Biso   1.000  N
  N30      1.0000 0.15970  0.99460  0.55300  Biso   1.000  N
  N31      1.0000 0.25540  0.90970  0.80300  Biso   1.000  N
  N32      1.0000 0.24460  0.09030  0.30300  Biso   1.000  N
  C1       1.0000 0.39110  0.48940  0.10270  Biso   1.000  C
  C2       1.0000 0.10890  0.51060  0.60270  Biso   1.000  C
  C3       1.0000 0.76060  0.14110  0.35270  Biso   1.000  C
  C4       1.0000 0.73940  0.85890  0.85270  Biso   1.000  C
  C5       1.0000 0.10890  0.48940  0.39730  Biso   1.000  C
  C6       1.0000 0.39110  0.51060  0.89730  Biso   1.000  C
  C7       1.0000 0.73940  0.14110  0.14730  Biso   1.000  C
  C8       1.0000 0.76060  0.85890  0.64730  Biso   1.000  C
  C9       1.0000 0.89110  0.98940  0.60270  Biso   1.000  C
  C10      1.0000 0.60890  0.01060  0.10270  Biso   1.000  C
  C11      1.0000 0.26060  0.64110  0.85270  Biso   1.000  C
  C12      1.0000 0.23940  0.35890  0.35270  Biso   1.000  C
  C13      1.0000 0.60890  0.98940  0.89730  Biso   1.000  C
  C14      1.0000 0.89110  0.01060  0.39730  Biso   1.000  C
  C15      1.0000 0.23940  0.64110  0.64730  Biso   1.000  C
  C16      1.0000 0.26060  0.35890  0.14730  Biso   1.000  C
  C17      1.0000 0.60890  0.51060  0.89730  Biso   1.000  C
  C18      1.0000 0.89110  0.48940  0.39730  Biso   1.000  C
  C19      1.0000 0.73940  0.35890  0.14730  Biso   1.000  C
  C20      1.0000 0.76060  0.64110  0.64730  Biso   1.000  C
  C21      1.0000 0.89110  0.51060  0.60270  Biso   1.000  C
  C22      1.0000 0.60890  0.48940  0.10270  Biso   1.000  C
  C23      1.0000 0.76060  0.35890  0.35270  Biso   1.000  C
  C24      1.0000 0.73940  0.64110  0.85270  Biso   1.000  C
  C25      1.0000 0.10890  0.01060  0.39730  Biso   1.000  C
  C26      1.0000 0.39110  0.98940  0.89730  Biso   1.000  C
  C27      1.0000 0.23940  0.85890  0.64730  Biso   1.000  C
  C28      1.0000 0.26060  0.14110  0.14730  Biso   1.000  C
  C29      1.0000 0.39110  0.01060  0.10270  Biso   1.000  C
  C30      1.0000 0.10890  0.98940  0.60270  Biso   1.000  C
  C31      1.0000 0.26060  0.85890  0.85270  Biso   1.000  C
  C32      1.0000 0.23940  0.14110  0.35270  Biso   1.000  C
  C33      1.0000 0.44680  0.49410  0.05280  Biso   1.000  C
  C34      1.0000 0.05320  0.50590  0.55280  Biso   1.000  C
  C35      1.0000 0.75590  0.19680  0.30280  Biso   1.000  C
  C36      1.0000 0.74410  0.80320  0.80280  Biso   1.000  C
  C37      1.0000 0.05320  0.49410  0.44720  Biso   1.000  C
  C38      1.0000 0.44680  0.50590  0.94720  Biso   1.000  C
  C39      1.0000 0.74410  0.19680  0.19720  Biso   1.000  C
  C40      1.0000 0.75590  0.80320  0.69720  Biso   1.000  C
  C41      1.0000 0.94680  0.99410  0.55280  Biso   1.000  C
  C42      1.0000 0.55320  0.00590  0.05280  Biso   1.000  C
  C43      1.0000 0.25590  0.69680  0.80280  Biso   1.000  C
  C44      1.0000 0.24410  0.30320  0.30280  Biso   1.000  C
  C45      1.0000 0.55320  0.99410  0.94720  Biso   1.000  C
  C46      1.0000 0.94680  0.00590  0.44720  Biso   1.000  C
  C47      1.0000 0.24410  0.69680  0.69720  Biso   1.000  C
  C48      1.0000 0.25590  0.30320  0.19720  Biso   1.000  C
  C49      1.0000 0.55320  0.50590  0.94720  Biso   1.000  C
  C50      1.0000 0.94680  0.49410  0.44720  Biso   1.000  C
  C51      1.0000 0.74410  0.30320  0.19720  Biso   1.000  C
  C52      1.0000 0.75590  0.69680  0.69720  Biso   1.000  C
  C53      1.0000 0.94680  0.50590  0.55280  Biso   1.000  C
  C54      1.0000 0.55320  0.49410  0.05280  Biso   1.000  C
  C55      1.0000 0.75590  0.30320  0.30280  Biso   1.000  C
  C56      1.0000 0.74410  0.69680  0.80280  Biso   1.000  C
  C57      1.0000 0.05320  0.00590  0.44720  Biso   1.000  C
  C58      1.0000 0.44680  0.99410  0.94720  Biso   1.000  C
  C59      1.0000 0.24410  0.80320  0.69720  Biso   1.000  C
  C60      1.0000 0.25590  0.19680  0.19720  Biso   1.000  C
  C61      1.0000 0.44680  0.00590  0.05280  Biso   1.000  C
  C62      1.0000 0.05320  0.99410  0.55280  Biso   1.000  C
  C63      1.0000 0.25590  0.80320  0.80280  Biso   1.000  C
  C64      1.0000 0.24410  0.19680  0.30280  Biso   1.000  C
  C65      1.0000 0.50000  0.48850  0.10780  Biso   1.000  C
  C66      1.0000 0.00000  0.51150  0.60780  Biso   1.000  C
  C67      1.0000 0.76150  0.25000  0.35780  Biso   1.000  C
  C68      1.0000 0.73850  0.75000  0.85780  Biso   1.000  C
  C69      1.0000 0.00000  0.48850  0.39220  Biso   1.000  C
  C70      1.0000 0.50000  0.51150  0.89220  Biso   1.000  C
  C71      1.0000 0.73850  0.25000  0.14220  Biso   1.000  C
  C72      1.0000 0.76150  0.75000  0.64220  Biso   1.000  C
  C73      1.0000 0.00000  0.98850  0.60780  Biso   1.000  C
  C74      1.0000 0.50000  0.01150  0.10780  Biso   1.000  C
  C75      1.0000 0.26150  0.75000  0.85780  Biso   1.000  C
  C76      1.0000 0.23850  0.25000  0.35780  Biso   1.000  C
  C77      1.0000 0.50000  0.98850  0.89220  Biso   1.000  C
  C78      1.0000 0.00000  0.01150  0.39220  Biso   1.000  C
  C79      1.0000 0.23850  0.75000  0.64220  Biso   1.000  C
  C80      1.0000 0.26150  0.25000  0.14220  Biso   1.000  C
  C81      1.0000 0.50000  0.47720  0.22050  Biso   1.000  C
  C82      1.0000 0.00000  0.52280  0.72050  Biso   1.000  C
  C83      1.0000 0.77280  0.25000  0.47050  Biso   1.000  C
  C84      1.0000 0.72720  0.75000  0.97050  Biso   1.000  C
  C85      1.0000 0.00000  0.47720  0.27950  Biso   1.000  C
  C86      1.0000 0.50000  0.52280  0.77950  Biso   1.000  C
  C87      1.0000 0.72720  0.25000  0.02950  Biso   1.000  C
  C88      1.0000 0.77280  0.75000  0.52950  Biso   1.000  C
  C89      1.0000 0.00000  0.97720  0.72050  Biso   1.000  C
  C90      1.0000 0.50000  0.02280  0.22050  Biso   1.000  C
  C91      1.0000 0.27280  0.75000  0.97050  Biso   1.000  C
  C92      1.0000 0.22720  0.25000  0.47050  Biso   1.000  C
  C93      1.0000 0.50000  0.97720  0.77950  Biso   1.000  C
  C94      1.0000 0.00000  0.02280  0.27950  Biso   1.000  C
  C95      1.0000 0.22720  0.75000  0.52950  Biso   1.000  C
  C96      1.0000 0.27280  0.25000  0.02950  Biso   1.000  C
  H1       1.0000 0.50000  0.43490  0.22710  Biso   1.000  H
  H2       1.0000 0.00000  0.56510  0.72710  Biso   1.000  H
  H3       1.0000 0.81510  0.25000  0.47710  Biso   1.000  H
  H4       1.0000 0.68490  0.75000  0.97710  Biso   1.000  H
  H5       1.0000 0.00000  0.43490  0.27290  Biso   1.000  H
  H6       1.0000 0.50000  0.56510  0.77290  Biso   1.000  H
  H7       1.0000 0.68490  0.25000  0.02290  Biso   1.000  H
  H8       1.0000 0.81510  0.75000  0.52290  Biso   1.000  H
  H9       1.0000 0.00000  0.93490  0.72710  Biso   1.000  H
  H10      1.0000 0.50000  0.06510  0.22710  Biso   1.000  H
  H11      1.0000 0.31510  0.75000  0.97710  Biso   1.000  H
  H12      1.0000 0.18490  0.25000  0.47710  Biso   1.000  H
  H13      1.0000 0.50000  0.93490  0.77290  Biso   1.000  H
  H14      1.0000 0.00000  0.06510  0.27290  Biso   1.000  H
  H15      1.0000 0.18490  0.75000  0.52290  Biso   1.000  H
  H16      1.0000 0.31510  0.25000  0.02290  Biso   1.000  H
  H17      1.0000 0.50000  0.51670  0.24730  Biso   1.000  H
  H18      1.0000 0.00000  0.48330  0.74730  Biso   1.000  H
  H19      1.0000 0.73330  0.25000  0.49730  Biso   1.000  H
  H20      1.0000 0.76670  0.75000  0.99730  Biso   1.000  H
  H21      1.0000 0.00000  0.51670  0.25270  Biso   1.000  H
  H22      1.0000 0.50000  0.48330  0.75270  Biso   1.000  H
  H23      1.0000 0.76670  0.25000  0.00270  Biso   1.000  H
  H24      1.0000 0.73330  0.75000  0.50270  Biso   1.000  H
  H25      1.0000 0.00000  0.01670  0.74730  Biso   1.000  H
  H26      1.0000 0.50000  0.98330  0.24730  Biso   1.000  H
  H27      1.0000 0.23330  0.75000  0.99730  Biso   1.000  H
  H28      1.0000 0.26670  0.25000  0.49730  Biso   1.000  H
  H29      1.0000 0.50000  0.01670  0.75270  Biso   1.000  H
  H30      1.0000 0.00000  0.98330  0.25270  Biso   1.000  H
  H31      1.0000 0.26670  0.75000  0.50270  Biso   1.000  H
  H32      1.0000 0.23330  0.25000  0.00270  Biso   1.000  H
  C97      1.0000 0.38840  0.47730  0.21410  Biso   1.000  C
  C98      1.0000 0.11160  0.52270  0.71410  Biso   1.000  C
  C99      1.0000 0.77270  0.13840  0.46410  Biso   1.000  C
  C100     1.0000 0.72730  0.86160  0.96410  Biso   1.000  C
  C101     1.0000 0.11160  0.47730  0.28590  Biso   1.000  C
  C102     1.0000 0.38840  0.52270  0.78590  Biso   1.000  C
  C103     1.0000 0.72730  0.13840  0.03590  Biso   1.000  C
  C104     1.0000 0.77270  0.86160  0.53590  Biso   1.000  C
  C105     1.0000 0.88840  0.97730  0.71410  Biso   1.000  C
  C106     1.0000 0.61160  0.02270  0.21410  Biso   1.000  C
  C107     1.0000 0.27270  0.63840  0.96410  Biso   1.000  C
  C108     1.0000 0.22730  0.36160  0.46410  Biso   1.000  C
  C109     1.0000 0.61160  0.97730  0.78590  Biso   1.000  C
  C110     1.0000 0.88840  0.02270  0.28590  Biso   1.000  C
  C111     1.0000 0.22730  0.63840  0.53590  Biso   1.000  C
  C112     1.0000 0.27270  0.36160  0.03590  Biso   1.000  C
  C113     1.0000 0.61160  0.52270  0.78590  Biso   1.000  C
  C114     1.0000 0.88840  0.47730  0.28590  Biso   1.000  C
  C115     1.0000 0.72730  0.36160  0.03590  Biso   1.000  C
  C116     1.0000 0.77270  0.63840  0.53590  Biso   1.000  C
  C117     1.0000 0.88840  0.52270  0.71410  Biso   1.000  C
  C118     1.0000 0.61160  0.47730  0.21410  Biso   1.000  C
  C119     1.0000 0.77270  0.36160  0.46410  Biso   1.000  C
  C120     1.0000 0.72730  0.63840  0.96410  Biso   1.000  C
  C121     1.0000 0.11160  0.02270  0.28590  Biso   1.000  C
  C122     1.0000 0.38840  0.97730  0.78590  Biso   1.000  C
  C123     1.0000 0.22730  0.86160  0.53590  Biso   1.000  C
  C124     1.0000 0.27270  0.13840  0.03590  Biso   1.000  C
  C125     1.0000 0.38840  0.02270  0.21410  Biso   1.000  C
  C126     1.0000 0.11160  0.97730  0.71410  Biso   1.000  C
  C127     1.0000 0.27270  0.86160  0.96410  Biso   1.000  C
  C128     1.0000 0.22730  0.13840  0.46410  Biso   1.000  C
  H33      1.0000 0.38160  0.43590  0.22570  Biso   1.000  H
  H34      1.0000 0.11840  0.56410  0.72570  Biso   1.000  H
  H35      1.0000 0.81410  0.13160  0.47570  Biso   1.000  H
  H36      1.0000 0.68590  0.86840  0.97570  Biso   1.000  H
  H37      1.0000 0.11840  0.43590  0.27430  Biso   1.000  H
  H38      1.0000 0.38160  0.56410  0.77430  Biso   1.000  H
  H39      1.0000 0.68590  0.13160  0.02430  Biso   1.000  H
  H40      1.0000 0.81410  0.86840  0.52430  Biso   1.000  H
  H41      1.0000 0.88160  0.93590  0.72570  Biso   1.000  H
  H42      1.0000 0.61840  0.06410  0.22570  Biso   1.000  H
  H43      1.0000 0.31410  0.63160  0.97570  Biso   1.000  H
  H44      1.0000 0.18590  0.36840  0.47570  Biso   1.000  H
  H45      1.0000 0.61840  0.93590  0.77430  Biso   1.000  H
  H46      1.0000 0.88160  0.06410  0.27430  Biso   1.000  H
  H47      1.0000 0.18590  0.63160  0.52430  Biso   1.000  H
  H48      1.0000 0.31410  0.36840  0.02430  Biso   1.000  H
  H49      1.0000 0.61840  0.56410  0.77430  Biso   1.000  H
  H50      1.0000 0.88160  0.43590  0.27430  Biso   1.000  H
  H51      1.0000 0.68590  0.36840  0.02430  Biso   1.000  H
  H52      1.0000 0.81410  0.63160  0.52430  Biso   1.000  H
  H53      1.0000 0.88160  0.56410  0.72570  Biso   1.000  H
  H54      1.0000 0.61840  0.43590  0.22570  Biso   1.000  H
  H55      1.0000 0.81410  0.36840  0.47570  Biso   1.000  H
  H56      1.0000 0.68590  0.63160  0.97570  Biso   1.000  H
  H57      1.0000 0.11840  0.06410  0.27430  Biso   1.000  H
  H58      1.0000 0.38160  0.93590  0.77430  Biso   1.000  H
  H59      1.0000 0.18590  0.86840  0.52430  Biso   1.000  H
  H60      1.0000 0.31410  0.13160  0.02430  Biso   1.000  H
  H61      1.0000 0.38160  0.06410  0.22570  Biso   1.000  H
  H62      1.0000 0.11840  0.93590  0.72570  Biso   1.000  H
  H63      1.0000 0.31410  0.86840  0.97570  Biso   1.000  H
  H64      1.0000 0.18590  0.13160  0.47570  Biso   1.000  H
  H65      1.0000 0.35530  0.49880  0.24150  Biso   1.000  H
  H66      1.0000 0.14470  0.50120  0.74150  Biso   1.000  H
  H67      1.0000 0.75120  0.10530  0.49150  Biso   1.000  H
  H68      1.0000 0.74880  0.89470  0.99150  Biso   1.000  H
  H69      1.0000 0.14470  0.49880  0.25850  Biso   1.000  H
  H70      1.0000 0.35530  0.50120  0.75850  Biso   1.000  H
  H71      1.0000 0.74880  0.10530  0.00850  Biso   1.000  H
  H72      1.0000 0.75120  0.89470  0.50850  Biso   1.000  H
  H73      1.0000 0.85530  0.99880  0.74150  Biso   1.000  H
  H74      1.0000 0.64470  0.00120  0.24150  Biso   1.000  H
  H75      1.0000 0.25120  0.60530  0.99150  Biso   1.000  H
  H76      1.0000 0.24880  0.39470  0.49150  Biso   1.000  H
  H77      1.0000 0.64470  0.99880  0.75850  Biso   1.000  H
  H78      1.0000 0.85530  0.00120  0.25850  Biso   1.000  H
  H79      1.0000 0.24880  0.60530  0.50850  Biso   1.000  H
  H80      1.0000 0.25120  0.39470  0.00850  Biso   1.000  H
  H81      1.0000 0.64470  0.50120  0.75850  Biso   1.000  H
  H82      1.0000 0.85530  0.49880  0.25850  Biso   1.000  H
  H83      1.0000 0.74880  0.39470  0.00850  Biso   1.000  H
  H84      1.0000 0.75120  0.60530  0.50850  Biso   1.000  H
  H85      1.0000 0.85530  0.50120  0.74150  Biso   1.000  H
  H86      1.0000 0.64470  0.49880  0.24150  Biso   1.000  H
  H87      1.0000 0.75120  0.39470  0.49150  Biso   1.000  H
  H88      1.0000 0.74880  0.60530  0.99150  Biso   1.000  H
  H89      1.0000 0.14470  0.00120  0.25850  Biso   1.000  H
  H90      1.0000 0.35530  0.99880  0.75850  Biso   1.000  H
  H91      1.0000 0.24880  0.89470  0.50850  Biso   1.000  H
  H92      1.0000 0.25120  0.10530  0.00850  Biso   1.000  H
  H93      1.0000 0.35530  0.00120  0.24150  Biso   1.000  H
  H94      1.0000 0.14470  0.99880  0.74150  Biso   1.000  H
  H95      1.0000 0.25120  0.89470  0.99150  Biso   1.000  H
  H96      1.0000 0.24880  0.10530  0.49150  Biso   1.000  H
  H97      1.0000 0.35680  0.44980  0.22650  Biso   1.000  H
  H98      1.0000 0.14320  0.55020  0.72650  Biso   1.000  H
  H99      1.0000 0.80020  0.10680  0.47650  Biso   1.000  H
  H100     1.0000 0.69980  0.89320  0.97650  Biso   1.000  H
  H101     1.0000 0.14320  0.44980  0.27350  Biso   1.000  H
  H102     1.0000 0.35680  0.55020  0.77350  Biso   1.000  H
  H103     1.0000 0.69980  0.10680  0.02350  Biso   1.000  H
  H104     1.0000 0.80020  0.89320  0.52350  Biso   1.000  H
  H105     1.0000 0.85680  0.94980  0.72650  Biso   1.000  H
  H106     1.0000 0.64320  0.05020  0.22650  Biso   1.000  H
  H107     1.0000 0.30020  0.60680  0.97650  Biso   1.000  H
  H108     1.0000 0.19980  0.39320  0.47650  Biso   1.000  H
  H109     1.0000 0.64320  0.94980  0.77350  Biso   1.000  H
  H110     1.0000 0.85680  0.05020  0.27350  Biso   1.000  H
  H111     1.0000 0.19980  0.60680  0.52350  Biso   1.000  H
  H112     1.0000 0.30020  0.39320  0.02350  Biso   1.000  H
  H113     1.0000 0.64320  0.55020  0.77350  Biso   1.000  H
  H114     1.0000 0.85680  0.44980  0.27350  Biso   1.000  H
  H115     1.0000 0.69980  0.39320  0.02350  Biso   1.000  H
  H116     1.0000 0.80020  0.60680  0.52350  Biso   1.000  H
  H117     1.0000 0.85680  0.55020  0.72650  Biso   1.000  H
  H118     1.0000 0.64320  0.44980  0.22650  Biso   1.000  H
  H119     1.0000 0.80020  0.39320  0.47650  Biso   1.000  H
  H120     1.0000 0.69980  0.60680  0.97650  Biso   1.000  H
  H121     1.0000 0.14320  0.05020  0.27350  Biso   1.000  H
  H122     1.0000 0.35680  0.94980  0.77350  Biso   1.000  H
  H123     1.0000 0.19980  0.89320  0.52350  Biso   1.000  H
  H124     1.0000 0.30020  0.10680  0.02350  Biso   1.000  H
  H125     1.0000 0.35680  0.05020  0.22650  Biso   1.000  H
  H126     1.0000 0.14320  0.94980  0.72650  Biso   1.000  H
  H127     1.0000 0.30020  0.89320  0.97650  Biso   1.000  H
  H128     1.0000 0.19980  0.10680  0.47650  Biso   1.000  H
  H129     1.0000 0.37870  0.51370  0.24820  Biso   1.000  H
  H130     1.0000 0.12130  0.48630  0.74820  Biso   1.000  H
  H131     1.0000 0.73630  0.12870  0.49820  Biso   1.000  H
  H132     1.0000 0.76370  0.87130  0.99820  Biso   1.000  H
  H133     1.0000 0.12130  0.51370  0.25180  Biso   1.000  H
  H134     1.0000 0.37870  0.48630  0.75180  Biso   1.000  H
  H135     1.0000 0.76370  0.12870  0.00180  Biso   1.000  H
  H136     1.0000 0.73630  0.87130  0.50180  Biso   1.000  H
  H137     1.0000 0.87870  0.01370  0.74820  Biso   1.000  H
  H138     1.0000 0.62130  0.98630  0.24820  Biso   1.000  H
  H139     1.0000 0.23630  0.62870  0.99820  Biso   1.000  H
  H140     1.0000 0.26370  0.37130  0.49820  Biso   1.000  H
  H141     1.0000 0.62130  0.01370  0.75180  Biso   1.000  H
  H142     1.0000 0.87870  0.98630  0.25180  Biso   1.000  H
  H143     1.0000 0.26370  0.62870  0.50180  Biso   1.000  H
  H144     1.0000 0.23630  0.37130  0.00180  Biso   1.000  H
  H145     1.0000 0.62130  0.48630  0.75180  Biso   1.000  H
  H146     1.0000 0.87870  0.51370  0.25180  Biso   1.000  H
  H147     1.0000 0.76370  0.37130  0.00180  Biso   1.000  H
  H148     1.0000 0.73630  0.62870  0.50180  Biso   1.000  H
  H149     1.0000 0.87870  0.48630  0.74820  Biso   1.000  H
  H150     1.0000 0.62130  0.51370  0.24820  Biso   1.000  H
  H151     1.0000 0.73630  0.37130  0.49820  Biso   1.000  H
  H152     1.0000 0.76370  0.62870  0.99820  Biso   1.000  H
  H153     1.0000 0.12130  0.98630  0.25180  Biso   1.000  H
  H154     1.0000 0.37870  0.01370  0.75180  Biso   1.000  H
  H155     1.0000 0.26370  0.87130  0.50180  Biso   1.000  H
  H156     1.0000 0.23630  0.12870  0.00180  Biso   1.000  H
  H157     1.0000 0.37870  0.98630  0.24820  Biso   1.000  H
  H158     1.0000 0.12130  0.01370  0.74820  Biso   1.000  H
  H159     1.0000 0.23630  0.87130  0.99820  Biso   1.000  H
  H160     1.0000 0.26370  0.12870  0.49820  Biso   1.000  H
  C129     1.0000 0.44310  0.49840  0.26860  Biso   1.000  C
  C130     1.0000 0.05690  0.50160  0.76860  Biso   1.000  C
  C131     1.0000 0.75160  0.19310  0.51860  Biso   1.000  C
  C132     1.0000 0.74840  0.80690  0.01860  Biso   1.000  C
  C133     1.0000 0.05690  0.49840  0.23140  Biso   1.000  C
  C134     1.0000 0.44310  0.50160  0.73140  Biso   1.000  C
  C135     1.0000 0.74840  0.19310  0.98140  Biso   1.000  C
  C136     1.0000 0.75160  0.80690  0.48140  Biso   1.000  C
  C137     1.0000 0.94310  0.99840  0.76860  Biso   1.000  C
  C138     1.0000 0.55690  0.00160  0.26860  Biso   1.000  C
  C139     1.0000 0.25160  0.69310  0.01860  Biso   1.000  C
  C140     1.0000 0.24840  0.30690  0.51860  Biso   1.000  C
  C141     1.0000 0.55690  0.99840  0.73140  Biso   1.000  C
  C142     1.0000 0.94310  0.00160  0.23140  Biso   1.000  C
  C143     1.0000 0.24840  0.69310  0.48140  Biso   1.000  C
  C144     1.0000 0.25160  0.30690  0.98140  Biso   1.000  C
  C145     1.0000 0.55690  0.50160  0.73140  Biso   1.000  C
  C146     1.0000 0.94310  0.49840  0.23140  Biso   1.000  C
  C147     1.0000 0.74840  0.30690  0.98140  Biso   1.000  C
  C148     1.0000 0.75160  0.69310  0.48140  Biso   1.000  C
  C149     1.0000 0.94310  0.50160  0.76860  Biso   1.000  C
  C150     1.0000 0.55690  0.49840  0.26860  Biso   1.000  C
  C151     1.0000 0.75160  0.30690  0.51860  Biso   1.000  C
  C152     1.0000 0.74840  0.69310  0.01860  Biso   1.000  C
  C153     1.0000 0.05690  0.00160  0.23140  Biso   1.000  C
  C154     1.0000 0.44310  0.99840  0.73140  Biso   1.000  C
  C155     1.0000 0.24840  0.80690  0.48140  Biso   1.000  C
  C156     1.0000 0.25160  0.19310  0.98140  Biso   1.000  C
  C157     1.0000 0.44310  0.00160  0.26860  Biso   1.000  C
  C158     1.0000 0.05690  0.99840  0.76860  Biso   1.000  C
  C159     1.0000 0.25160  0.80690  0.01860  Biso   1.000  C
  C160     1.0000 0.24840  0.19310  0.51860  Biso   1.000  C
  H161     1.0000 0.44320  0.54080  0.27330  Biso   1.000  H
  H162     1.0000 0.05680  0.45920  0.77330  Biso   1.000  H
  H163     1.0000 0.70920  0.19320  0.52330  Biso   1.000  H
  H164     1.0000 0.79080  0.80680  0.02330  Biso   1.000  H
  H165     1.0000 0.05680  0.54080  0.22670  Biso   1.000  H
  H166     1.0000 0.44320  0.45920  0.72670  Biso   1.000  H
  H167     1.0000 0.79080  0.19320  0.97670  Biso   1.000  H
  H168     1.0000 0.70920  0.80680  0.47670  Biso   1.000  H
  H169     1.0000 0.94320  0.04080  0.77330  Biso   1.000  H
  H170     1.0000 0.55680  0.95920  0.27330  Biso   1.000  H
  H171     1.0000 0.20920  0.69320  0.02330  Biso   1.000  H
  H172     1.0000 0.29080  0.30680  0.52330  Biso   1.000  H
  H173     1.0000 0.55680  0.04080  0.72670  Biso   1.000  H
  H174     1.0000 0.94320  0.95920  0.22670  Biso   1.000  H
  H175     1.0000 0.29080  0.69320  0.47670  Biso   1.000  H
  H176     1.0000 0.20920  0.30680  0.97670  Biso   1.000  H
  H177     1.0000 0.55680  0.45920  0.72670  Biso   1.000  H
  H178     1.0000 0.94320  0.54080  0.22670  Biso   1.000  H
  H179     1.0000 0.79080  0.30680  0.97670  Biso   1.000  H
  H180     1.0000 0.70920  0.69320  0.47670  Biso   1.000  H
  H181     1.0000 0.94320  0.45920  0.77330  Biso   1.000  H
  H182     1.0000 0.55680  0.54080  0.27330  Biso   1.000  H
  H183     1.0000 0.70920  0.30680  0.52330  Biso   1.000  H
  H184     1.0000 0.79080  0.69320  0.02330  Biso   1.000  H
  H185     1.0000 0.05680  0.95920  0.22670  Biso   1.000  H
  H186     1.0000 0.44320  0.04080  0.72670  Biso   1.000  H
  H187     1.0000 0.29080  0.80680  0.47670  Biso   1.000  H
  H188     1.0000 0.20920  0.19320  0.97670  Biso   1.000  H
  H189     1.0000 0.44320  0.95920  0.27330  Biso   1.000  H
  H190     1.0000 0.05680  0.04080  0.77330  Biso   1.000  H
  H191     1.0000 0.20920  0.80680  0.02330  Biso   1.000  H
  H192     1.0000 0.29080  0.19320  0.52330  Biso   1.000  H
  H193     1.0000 0.44180  0.48320  0.33700  Biso   1.000  H
  H194     1.0000 0.05820  0.51680  0.83700  Biso   1.000  H
  H195     1.0000 0.76680  0.19180  0.58700  Biso   1.000  H
  H196     1.0000 0.73320  0.80820  0.08700  Biso   1.000  H
  H197     1.0000 0.05820  0.48320  0.16300  Biso   1.000  H
  H198     1.0000 0.44180  0.51680  0.66300  Biso   1.000  H
  H199     1.0000 0.73320  0.19180  0.91300  Biso   1.000  H
  H200     1.0000 0.76680  0.80820  0.41300  Biso   1.000  H
  H201     1.0000 0.94180  0.98320  0.83700  Biso   1.000  H
  H202     1.0000 0.55820  0.01680  0.33700  Biso   1.000  H
  H203     1.0000 0.26680  0.69180  0.08700  Biso   1.000  H
  H204     1.0000 0.23320  0.30820  0.58700  Biso   1.000  H
  H205     1.0000 0.55820  0.98320  0.66300  Biso   1.000  H
  H206     1.0000 0.94180  0.01680  0.16300  Biso   1.000  H
  H207     1.0000 0.23320  0.69180  0.41300  Biso   1.000  H
  H208     1.0000 0.26680  0.30820  0.91300  Biso   1.000  H
  H209     1.0000 0.55820  0.51680  0.66300  Biso   1.000  H
  H210     1.0000 0.94180  0.48320  0.16300  Biso   1.000  H
  H211     1.0000 0.73320  0.30820  0.91300  Biso   1.000  H
  H212     1.0000 0.76680  0.69180  0.41300  Biso   1.000  H
  H213     1.0000 0.94180  0.51680  0.83700  Biso   1.000  H
  H214     1.0000 0.55820  0.48320  0.33700  Biso   1.000  H
  H215     1.0000 0.76680  0.30820  0.58700  Biso   1.000  H
  H216     1.0000 0.73320  0.69180  0.08700  Biso   1.000  H
  H217     1.0000 0.05820  0.01680  0.16300  Biso   1.000  H
  H218     1.0000 0.44180  0.98320  0.66300  Biso   1.000  H
  H219     1.0000 0.23320  0.80820  0.41300  Biso   1.000  H
  H220     1.0000 0.26680  0.19180  0.91300  Biso   1.000  H
  H221     1.0000 0.44180  0.01680  0.33700  Biso   1.000  H
  H222     1.0000 0.05820  0.98320  0.83700  Biso   1.000  H
  H223     1.0000 0.26680  0.80820  0.08700  Biso   1.000  H
  H224     1.0000 0.23320  0.19180  0.58700  Biso   1.000  H
  C161     1.0000 0.44340  0.45340  0.25850  Biso   1.000  C
  C162     1.0000 0.05660  0.54660  0.75850  Biso   1.000  C
  C163     1.0000 0.79660  0.19340  0.50850  Biso   1.000  C
  C164     1.0000 0.70340  0.80660  0.00850  Biso   1.000  C
  C165     1.0000 0.05660  0.45340  0.24150  Biso   1.000  C
  C166     1.0000 0.44340  0.54660  0.74150  Biso   1.000  C
  C167     1.0000 0.70340  0.19340  0.99150  Biso   1.000  C
  C168     1.0000 0.79660  0.80660  0.49150  Biso   1.000  C
  C169     1.0000 0.94340  0.95340  0.75850  Biso   1.000  C
  C170     1.0000 0.55660  0.04660  0.25850  Biso   1.000  C
  C171     1.0000 0.29660  0.69340  0.00850  Biso   1.000  C
  C172     1.0000 0.20340  0.30660  0.50850  Biso   1.000  C
  C173     1.0000 0.55660  0.95340  0.74150  Biso   1.000  C
  C174     1.0000 0.94340  0.04660  0.24150  Biso   1.000  C
  C175     1.0000 0.20340  0.69340  0.49150  Biso   1.000  C
  C176     1.0000 0.29660  0.30660  0.99150  Biso   1.000  C
  C177     1.0000 0.55660  0.54660  0.74150  Biso   1.000  C
  C178     1.0000 0.94340  0.45340  0.24150  Biso   1.000  C
  C179     1.0000 0.70340  0.30660  0.99150  Biso   1.000  C
  C180     1.0000 0.79660  0.69340  0.49150  Biso   1.000  C
  C181     1.0000 0.94340  0.54660  0.75850  Biso   1.000  C
  C182     1.0000 0.55660  0.45340  0.25850  Biso   1.000  C
  C183     1.0000 0.79660  0.30660  0.50850  Biso   1.000  C
  C184     1.0000 0.70340  0.69340  0.00850  Biso   1.000  C
  C185     1.0000 0.05660  0.04660  0.24150  Biso   1.000  C
  C186     1.0000 0.44340  0.95340  0.74150  Biso   1.000  C
  C187     1.0000 0.20340  0.80660  0.49150  Biso   1.000  C
  C188     1.0000 0.29660  0.19340  0.99150  Biso   1.000  C
  C189     1.0000 0.44340  0.04660  0.25850  Biso   1.000  C
  C190     1.0000 0.05660  0.95340  0.75850  Biso   1.000  C
  C191     1.0000 0.29660  0.80660  0.00850  Biso   1.000  C
  C192     1.0000 0.20340  0.19340  0.50850  Biso   1.000  C
  H225     1.0000 0.44220  0.45970  0.33090  Biso   1.000  H
  H226     1.0000 0.05780  0.54030  0.83090  Biso   1.000  H
  H227     1.0000 0.79030  0.19220  0.58090  Biso   1.000  H
  H228     1.0000 0.70970  0.80780  0.08090  Biso   1.000  H
  H229     1.0000 0.05780  0.45970  0.16910  Biso   1.000  H
  H230     1.0000 0.44220  0.54030  0.66910  Biso   1.000  H
  H231     1.0000 0.70970  0.19220  0.91910  Biso   1.000  H
  H232     1.0000 0.79030  0.80780  0.41910  Biso   1.000  H
  H233     1.0000 0.94220  0.95970  0.83090  Biso   1.000  H
  H234     1.0000 0.55780  0.04030  0.33090  Biso   1.000  H
  H235     1.0000 0.29030  0.69220  0.08090  Biso   1.000  H
  H236     1.0000 0.20970  0.30780  0.58090  Biso   1.000  H
  H237     1.0000 0.55780  0.95970  0.66910  Biso   1.000  H
  H238     1.0000 0.94220  0.04030  0.16910  Biso   1.000  H
  H239     1.0000 0.20970  0.69220  0.41910  Biso   1.000  H
  H240     1.0000 0.29030  0.30780  0.91910  Biso   1.000  H
  H241     1.0000 0.55780  0.54030  0.66910  Biso   1.000  H
  H242     1.0000 0.94220  0.45970  0.16910  Biso   1.000  H
  H243     1.0000 0.70970  0.30780  0.91910  Biso   1.000  H
  H244     1.0000 0.79030  0.69220  0.41910  Biso   1.000  H
  H245     1.0000 0.94220  0.54030  0.83090  Biso   1.000  H
  H246     1.0000 0.55780  0.45970  0.33090  Biso   1.000  H
  H247     1.0000 0.79030  0.30780  0.58090  Biso   1.000  H
  H248     1.0000 0.70970  0.69220  0.08090  Biso   1.000  H
  H249     1.0000 0.05780  0.04030  0.16910  Biso   1.000  H
  H250     1.0000 0.44220  0.95970  0.66910  Biso   1.000  H
  H251     1.0000 0.20970  0.80780  0.41910  Biso   1.000  H
  H252     1.0000 0.29030  0.19220  0.91910  Biso   1.000  H
  H253     1.0000 0.44220  0.04030  0.33090  Biso   1.000  H
  H254     1.0000 0.05780  0.95970  0.83090  Biso   1.000  H
  H255     1.0000 0.29030  0.80780  0.08090  Biso   1.000  H
  H256     1.0000 0.20970  0.19220  0.58090  Biso   1.000  H
  H257     1.0000 0.44330  0.41140  0.24770  Biso   1.000  H
  H258     1.0000 0.05670  0.58860  0.74770  Biso   1.000  H
  H259     1.0000 0.83860  0.19330  0.49770  Biso   1.000  H
  H260     1.0000 0.66140  0.80670  0.99770  Biso   1.000  H
  H261     1.0000 0.05670  0.41140  0.25230  Biso   1.000  H
  H262     1.0000 0.44330  0.58860  0.75230  Biso   1.000  H
  H263     1.0000 0.66140  0.19330  0.00230  Biso   1.000  H
  H264     1.0000 0.83860  0.80670  0.50230  Biso   1.000  H
  H265     1.0000 0.94330  0.91140  0.74770  Biso   1.000  H
  H266     1.0000 0.55670  0.08860  0.24770  Biso   1.000  H
  H267     1.0000 0.33860  0.69330  0.99770  Biso   1.000  H
  H268     1.0000 0.16140  0.30670  0.49770  Biso   1.000  H
  H269     1.0000 0.55670  0.91140  0.75230  Biso   1.000  H
  H270     1.0000 0.94330  0.08860  0.25230  Biso   1.000  H
  H271     1.0000 0.16140  0.69330  0.50230  Biso   1.000  H
  H272     1.0000 0.33860  0.30670  0.00230  Biso   1.000  H
  H273     1.0000 0.55670  0.58860  0.75230  Biso   1.000  H
  H274     1.0000 0.94330  0.41140  0.25230  Biso   1.000  H
  H275     1.0000 0.66140  0.30670  0.00230  Biso   1.000  H
  H276     1.0000 0.83860  0.69330  0.50230  Biso   1.000  H
  H277     1.0000 0.94330  0.58860  0.74770  Biso   1.000  H
  H278     1.0000 0.55670  0.41140  0.24770  Biso   1.000  H
  H279     1.0000 0.83860  0.30670  0.49770  Biso   1.000  H
  H280     1.0000 0.66140  0.69330  0.99770  Biso   1.000  H
  H281     1.0000 0.05670  0.08860  0.25230  Biso   1.000  H
  H282     1.0000 0.44330  0.91140  0.75230  Biso   1.000  H
  H283     1.0000 0.16140  0.80670  0.50230  Biso   1.000  H
  H284     1.0000 0.33860  0.19330  0.00230  Biso   1.000  H
  H285     1.0000 0.44330  0.08860  0.24770  Biso   1.000  H
  H286     1.0000 0.05670  0.91140  0.74770  Biso   1.000  H
  H287     1.0000 0.33860  0.80670  0.99770  Biso   1.000  H
  H288     1.0000 0.16140  0.19330  0.49770  Biso   1.000  H
  Cl1      1.0000 0.50000  0.40400  0.50220  Biso   1.000  Cl
  Cl2      1.0000 0.00000  0.59600  0.00220  Biso   1.000  Cl
  Cl3      1.0000 0.84600  0.25000  0.75220  Biso   1.000  Cl
  Cl4      1.0000 0.65400  0.75000  0.25220  Biso   1.000  Cl
  Cl5      1.0000 0.00000  0.40400  0.99780  Biso   1.000  Cl
  Cl6      1.0000 0.50000  0.59600  0.49780  Biso   1.000  Cl
  Cl7      1.0000 0.65400  0.25000  0.74780  Biso   1.000  Cl
  Cl8      1.0000 0.84600  0.75000  0.24780  Biso   1.000  Cl
  Cl9      1.0000 0.00000  0.90400  0.00220  Biso   1.000  Cl
  Cl10     1.0000 0.50000  0.09600  0.50220  Biso   1.000  Cl
  Cl11     1.0000 0.34600  0.75000  0.25220  Biso   1.000  Cl
  Cl12     1.0000 0.15400  0.25000  0.75220  Biso   1.000  Cl
  Cl13     1.0000 0.50000  0.90400  0.49780  Biso   1.000  Cl
  Cl14     1.0000 0.00000  0.09600  0.99780  Biso   1.000  Cl
  Cl15     1.0000 0.15400  0.75000  0.24780  Biso   1.000  Cl
  Cl16     1.0000 0.34600  0.25000  0.74780  Biso   1.000  Cl
  Cl17     1.0000 0.58190  0.33190  0.62500  Biso   1.000  Cl
  Cl18     1.0000 0.91810  0.66810  0.12500  Biso   1.000  Cl
  Cl19     1.0000 0.91810  0.33190  0.87500  Biso   1.000  Cl
  Cl20     1.0000 0.58190  0.66810  0.37500  Biso   1.000  Cl
  Cl21     1.0000 0.08190  0.83190  0.12500  Biso   1.000  Cl
  Cl22     1.0000 0.41810  0.16810  0.62500  Biso   1.000  Cl
  Cl23     1.0000 0.41810  0.83190  0.37500  Biso   1.000  Cl
  Cl24     1.0000 0.08190  0.16810  0.87500  Biso   1.000  Cl
  Cl25     1.0000 0.41810  0.66810  0.37500  Biso   1.000  Cl
  Cl26     1.0000 0.08190  0.33190  0.87500  Biso   1.000  Cl
  Cl27     1.0000 0.58190  0.16810  0.62500  Biso   1.000  Cl
  Cl28     1.0000 0.91810  0.83190  0.12500  Biso   1.000  Cl
  Cl29     1.0000 0.08190  0.66810  0.12500  Biso   1.000  Cl
  Cl30     1.0000 0.41810  0.33190  0.62500  Biso   1.000  Cl
  Cl31     1.0000 0.91810  0.16810  0.87500  Biso   1.000  Cl
  Cl32     1.0000 0.58190  0.83190  0.37500  Biso   1.000  Cl
  Cl33     1.0000 0.59130  0.33420  0.39850  Biso   1.000  Cl
  Cl34     1.0000 0.90870  0.66580  0.89850  Biso   1.000  Cl
  Cl35     1.0000 0.91580  0.34130  0.64850  Biso   1.000  Cl
  Cl36     1.0000 0.58420  0.65870  0.14850  Biso   1.000  Cl
  Cl37     1.0000 0.90870  0.33420  0.10150  Biso   1.000  Cl
  Cl38     1.0000 0.59130  0.66580  0.60150  Biso   1.000  Cl
  Cl39     1.0000 0.58420  0.34130  0.85150  Biso   1.000  Cl
  Cl40     1.0000 0.91580  0.65870  0.35150  Biso   1.000  Cl
  Cl41     1.0000 0.09130  0.83420  0.89850  Biso   1.000  Cl
  Cl42     1.0000 0.40870  0.16580  0.39850  Biso   1.000  Cl
  Cl43     1.0000 0.41580  0.84130  0.14850  Biso   1.000  Cl
  Cl44     1.0000 0.08420  0.15870  0.64850  Biso   1.000  Cl
  Cl45     1.0000 0.40870  0.83420  0.60150  Biso   1.000  Cl
  Cl46     1.0000 0.09130  0.16580  0.10150  Biso   1.000  Cl
  Cl47     1.0000 0.08420  0.84130  0.35150  Biso   1.000  Cl
  Cl48     1.0000 0.41580  0.15870  0.85150  Biso   1.000  Cl
  Cl49     1.0000 0.40870  0.66580  0.60150  Biso   1.000  Cl
  Cl50     1.0000 0.09130  0.33420  0.10150  Biso   1.000  Cl
  Cl51     1.0000 0.58420  0.15870  0.85150  Biso   1.000  Cl
  Cl52     1.0000 0.91580  0.84130  0.35150  Biso   1.000  Cl
  Cl53     1.0000 0.09130  0.66580  0.89850  Biso   1.000  Cl
  Cl54     1.0000 0.40870  0.33420  0.39850  Biso   1.000  Cl
  Cl55     1.0000 0.91580  0.15870  0.64850  Biso   1.000  Cl
  Cl56     1.0000 0.58420  0.84130  0.14850  Biso   1.000  Cl
  Cl57     1.0000 0.90870  0.16580  0.10150  Biso   1.000  Cl
  Cl58     1.0000 0.59130  0.83420  0.60150  Biso   1.000  Cl
  Cl59     1.0000 0.08420  0.65870  0.35150  Biso   1.000  Cl
  Cl60     1.0000 0.41580  0.34130  0.85150  Biso   1.000  Cl
  Cl61     1.0000 0.59130  0.16580  0.39850  Biso   1.000  Cl
  Cl62     1.0000 0.90870  0.83420  0.89850  Biso   1.000  Cl
  Cl63     1.0000 0.41580  0.65870  0.14850  Biso   1.000  Cl
  Cl64     1.0000 0.08420  0.34130  0.64850  Biso   1.000  Cl
  C193     1.0000 0.56710  0.36740  0.51110  Biso   1.000  C
  C194     1.0000 0.93290  0.63260  0.01110  Biso   1.000  C
  C195     1.0000 0.88260  0.31710  0.76110  Biso   1.000  C
  C196     1.0000 0.61740  0.68290  0.26110  Biso   1.000  C
  C197     1.0000 0.93290  0.36740  0.98890  Biso   1.000  C
  C198     1.0000 0.56710  0.63260  0.48890  Biso   1.000  C
  C199     1.0000 0.61740  0.31710  0.73890  Biso   1.000  C
  C200     1.0000 0.88260  0.68290  0.23890  Biso   1.000  C
  C201     1.0000 0.06710  0.86740  0.01110  Biso   1.000  C
  C202     1.0000 0.43290  0.13260  0.51110  Biso   1.000  C
  C203     1.0000 0.38260  0.81710  0.26110  Biso   1.000  C
  C204     1.0000 0.11740  0.18290  0.76110  Biso   1.000  C
  C205     1.0000 0.43290  0.86740  0.48890  Biso   1.000  C
  C206     1.0000 0.06710  0.13260  0.98890  Biso   1.000  C
  C207     1.0000 0.11740  0.81710  0.23890  Biso   1.000  C
  C208     1.0000 0.38260  0.18290  0.73890  Biso   1.000  C
  C209     1.0000 0.43290  0.63260  0.48890  Biso   1.000  C
  C210     1.0000 0.06710  0.36740  0.98890  Biso   1.000  C
  C211     1.0000 0.61740  0.18290  0.73890  Biso   1.000  C
  C212     1.0000 0.88260  0.81710  0.23890  Biso   1.000  C
  C213     1.0000 0.06710  0.63260  0.01110  Biso   1.000  C
  C214     1.0000 0.43290  0.36740  0.51110  Biso   1.000  C
  C215     1.0000 0.88260  0.18290  0.76110  Biso   1.000  C
  C216     1.0000 0.61740  0.81710  0.26110  Biso   1.000  C
  C217     1.0000 0.93290  0.13260  0.98890  Biso   1.000  C
  C218     1.0000 0.56710  0.86740  0.48890  Biso   1.000  C
  C219     1.0000 0.11740  0.68290  0.23890  Biso   1.000  C
  C220     1.0000 0.38260  0.31710  0.73890  Biso   1.000  C
  C221     1.0000 0.56710  0.13260  0.51110  Biso   1.000  C
  C222     1.0000 0.93290  0.86740  0.01110  Biso   1.000  C
  C223     1.0000 0.38260  0.68290  0.26110  Biso   1.000  C
  C224     1.0000 0.11740  0.31710  0.76110  Biso   1.000  C
  H289     1.0000 0.59530  0.40200  0.51560  Biso   1.000  H
  H290     1.0000 0.90470  0.59800  0.01560  Biso   1.000  H
  H291     1.0000 0.84800  0.34530  0.76560  Biso   1.000  H
  H292     1.0000 0.65200  0.65470  0.26560  Biso   1.000  H
  H293     1.0000 0.90470  0.40200  0.98440  Biso   1.000  H
  H294     1.0000 0.59530  0.59800  0.48440  Biso   1.000  H
  H295     1.0000 0.65200  0.34530  0.73440  Biso   1.000  H
  H296     1.0000 0.84800  0.65470  0.23440  Biso   1.000  H
  H297     1.0000 0.09530  0.90200  0.01560  Biso   1.000  H
  H298     1.0000 0.40470  0.09800  0.51560  Biso   1.000  H
  H299     1.0000 0.34800  0.84530  0.26560  Biso   1.000  H
  H300     1.0000 0.15200  0.15470  0.76560  Biso   1.000  H
  H301     1.0000 0.40470  0.90200  0.48440  Biso   1.000  H
  H302     1.0000 0.09530  0.09800  0.98440  Biso   1.000  H
  H303     1.0000 0.15200  0.84530  0.23440  Biso   1.000  H
  H304     1.0000 0.34800  0.15470  0.73440  Biso   1.000  H
  H305     1.0000 0.40470  0.59800  0.48440  Biso   1.000  H
  H306     1.0000 0.09530  0.40200  0.98440  Biso   1.000  H
  H307     1.0000 0.65200  0.15470  0.73440  Biso   1.000  H
  H308     1.0000 0.84800  0.84530  0.23440  Biso   1.000  H
  H309     1.0000 0.09530  0.59800  0.01560  Biso   1.000  H
  H310     1.0000 0.40470  0.40200  0.51560  Biso   1.000  H
  H311     1.0000 0.84800  0.15470  0.76560  Biso   1.000  H
  H312     1.0000 0.65200  0.84530  0.26560  Biso   1.000  H
  H313     1.0000 0.90470  0.09800  0.98440  Biso   1.000  H
  H314     1.0000 0.59530  0.90200  0.48440  Biso   1.000  H
  H315     1.0000 0.15200  0.65470  0.23440  Biso   1.000  H
  H316     1.0000 0.34800  0.34530  0.73440  Biso   1.000  H
  H317     1.0000 0.59530  0.09800  0.51560  Biso   1.000  H
  H318     1.0000 0.90470  0.90200  0.01560  Biso   1.000  H
  H319     1.0000 0.34800  0.65470  0.26560  Biso   1.000  H
  H320     1.0000 0.15200  0.34530  0.76560  Biso   1.000  H
