data_image0
_cell_length_a       14.5479
_cell_length_b       36.7355
_cell_length_c       16.9674
_cell_angle_alpha    90
_cell_angle_beta     95.547
_cell_angle_gamma    90

_symmetry_space_group_name_H-M    "P 1"
_symmetry_int_tables_number       1

loop_
  _symmetry_equiv_pos_as_xyz
  'x, y, z'

loop_
  _atom_site_label
  _atom_site_occupancy
  _atom_site_fract_x
  _atom_site_fract_y
  _atom_site_fract_z
  _atom_site_thermal_displace_type
  _atom_site_B_iso_or_equiv
  _atom_site_type_symbol
  Cu1      1.0000 0.78474  0.11167  0.73421  Biso   1.000  Cu
  Cu2      1.0000 0.71526  0.61167  0.76579  Biso   1.000  Cu
  Cu3      1.0000 0.21526  0.88833  0.26579  Biso   1.000  Cu
  Cu4      1.0000 0.28474  0.38833  0.23421  Biso   1.000  Cu
  Cu5      1.0000 0.31270  0.08452  0.19575  Biso   1.000  Cu
  Cu6      1.0000 0.18730  0.58452  0.30425  Biso   1.000  Cu
  Cu7      1.0000 0.68730  0.91548  0.80425  Biso   1.000  Cu
  Cu8      1.0000 0.81270  0.41548  0.69575  Biso   1.000  Cu
  P1       1.0000 0.20700  0.98213  0.70280  Biso   1.000  P
  P2       1.0000 0.29300  0.48213  0.79720  Biso   1.000  P
  P3       1.0000 0.79300  0.01787  0.29720  Biso   1.000  P
  P4       1.0000 0.70700  0.51787  0.20280  Biso   1.000  P
  C1       1.0000 0.11690  0.10880  0.39060  Biso   1.000  C
  C2       1.0000 0.38310  0.60880  0.10940  Biso   1.000  C
  C3       1.0000 0.88310  0.89120  0.60940  Biso   1.000  C
  C4       1.0000 0.61690  0.39120  0.89060  Biso   1.000  C
  H1       1.0000 0.09720  0.13290  0.40050  Biso   1.000  H
  H2       1.0000 0.40280  0.63290  0.09950  Biso   1.000  H
  H3       1.0000 0.90280  0.86710  0.59950  Biso   1.000  H
  H4       1.0000 0.59720  0.36710  0.90050  Biso   1.000  H
  N1       1.0000 0.27430  0.32890  0.23100  Biso   1.000  N
  N2       1.0000 0.22570  0.82890  0.26900  Biso   1.000  N
  N3       1.0000 0.72570  0.67110  0.76900  Biso   1.000  N
  N4       1.0000 0.77430  0.17110  0.73100  Biso   1.000  N
  N5       1.0000 0.28750  0.14170  0.19560  Biso   1.000  N
  N6       1.0000 0.21250  0.64170  0.30440  Biso   1.000  N
  N7       1.0000 0.71250  0.85830  0.80440  Biso   1.000  N
  N8       1.0000 0.78750  0.35830  0.69560  Biso   1.000  N
  C5       1.0000 0.61850  0.09690  0.85160  Biso   1.000  C
  C6       1.0000 0.88150  0.59690  0.64840  Biso   1.000  C
  C7       1.0000 0.38150  0.90310  0.14840  Biso   1.000  C
  C8       1.0000 0.11850  0.40310  0.35160  Biso   1.000  C
  C9       1.0000 0.71180  0.10070  0.89670  Biso   1.000  C
  C10      1.0000 0.78820  0.60070  0.60330  Biso   1.000  C
  C11      1.0000 0.28820  0.89930  0.10330  Biso   1.000  C
  C12      1.0000 0.21180  0.39930  0.39670  Biso   1.000  C
  N9       1.0000 0.33040  0.06770  0.08690  Biso   1.000  N
  N10      1.0000 0.16960  0.56770  0.41310  Biso   1.000  N
  N11      1.0000 0.66960  0.93230  0.91310  Biso   1.000  N
  N12      1.0000 0.83040  0.43230  0.58690  Biso   1.000  N
  N13      1.0000 0.70050  0.09720  0.64510  Biso   1.000  N
  N14      1.0000 0.79950  0.59720  0.85490  Biso   1.000  N
  N15      1.0000 0.29950  0.90280  0.35490  Biso   1.000  N
  N16      1.0000 0.20050  0.40280  0.14510  Biso   1.000  N
  C13      1.0000 0.88410  0.09790  0.97580  Biso   1.000  C
  C14      1.0000 0.61590  0.59790  0.52420  Biso   1.000  C
  C15      1.0000 0.11590  0.90210  0.02420  Biso   1.000  C
  C16      1.0000 0.38410  0.40210  0.47580  Biso   1.000  C
  C17      1.0000 0.57740  0.08650  0.51230  Biso   1.000  C
  C18      1.0000 0.92260  0.58650  0.98770  Biso   1.000  C
  C19      1.0000 0.42260  0.91350  0.48770  Biso   1.000  C
  C20      1.0000 0.07740  0.41350  0.01230  Biso   1.000  C
  C21      1.0000 0.26010  0.04560  0.05710  Biso   1.000  C
  C22      1.0000 0.23990  0.54560  0.44290  Biso   1.000  C
  C23      1.0000 0.73990  0.95440  0.94290  Biso   1.000  C
  C24      1.0000 0.76010  0.45440  0.55710  Biso   1.000  C
  C25      1.0000 0.94590  0.09980  0.84270  Biso   1.000  C
  C26      1.0000 0.55410  0.59980  0.65730  Biso   1.000  C
  C27      1.0000 0.05410  0.90020  0.15730  Biso   1.000  C
  C28      1.0000 0.44590  0.40020  0.34270  Biso   1.000  C
  C29      1.0000 0.14460  0.05850  0.30790  Biso   1.000  C
  C30      1.0000 0.35540  0.55850  0.19210  Biso   1.000  C
  C31      1.0000 0.85540  0.94150  0.69210  Biso   1.000  C
  C32      1.0000 0.64460  0.44150  0.80790  Biso   1.000  C
  C33      1.0000 0.86950  0.09930  0.88920  Biso   1.000  C
  C34      1.0000 0.63050  0.59930  0.61080  Biso   1.000  C
  C35      1.0000 0.13050  0.90070  0.11080  Biso   1.000  C
  C36      1.0000 0.36950  0.40070  0.38920  Biso   1.000  C
  C37      1.0000 0.54860  0.10200  0.57570  Biso   1.000  C
  C38      1.0000 0.95140  0.60200  0.92430  Biso   1.000  C
  C39      1.0000 0.45140  0.89800  0.42430  Biso   1.000  C
  C40      1.0000 0.04860  0.39800  0.07570  Biso   1.000  C
  H5       1.0000 0.48650  0.10980  0.57680  Biso   1.000  H
  H6       1.0000 0.01350  0.60980  0.92320  Biso   1.000  H
  H7       1.0000 0.51350  0.89020  0.42320  Biso   1.000  H
  H8       1.0000 0.98650  0.39020  0.07680  Biso   1.000  H
  C41      1.0000 0.72540  0.09950  0.98080  Biso   1.000  C
  C42      1.0000 0.77460  0.59950  0.51920  Biso   1.000  C
  C43      1.0000 0.27460  0.90050  0.01920  Biso   1.000  C
  C44      1.0000 0.22540  0.40050  0.48080  Biso   1.000  C
  H9       1.0000 0.67420  0.09900  0.01160  Biso   1.000  H
  H10      1.0000 0.82580  0.59900  0.48840  Biso   1.000  H
  H11      1.0000 0.32580  0.90100  0.98840  Biso   1.000  H
  H12      1.0000 0.17420  0.40100  0.51160  Biso   1.000  H
  N17      1.0000 0.92450  0.10340  0.76500  Biso   1.000  N
  N18      1.0000 0.57550  0.60340  0.73500  Biso   1.000  N
  N19      1.0000 0.07550  0.89660  0.23500  Biso   1.000  N
  N20      1.0000 0.42450  0.39660  0.26500  Biso   1.000  N
  N21      1.0000 0.78280  0.10068  0.85360  Biso   1.000  N
  N22      1.0000 0.71720  0.60068  0.64640  Biso   1.000  N
  N23      1.0000 0.21720  0.89932  0.14640  Biso   1.000  N
  N24      1.0000 0.28280  0.39932  0.35360  Biso   1.000  N
  C45      1.0000 0.13200  0.99480  0.00070  Biso   1.000  C
  C46      1.0000 0.36800  0.49480  0.49930  Biso   1.000  C
  C47      1.0000 0.86800  0.00520  0.99930  Biso   1.000  C
  C48      1.0000 0.63200  0.50520  0.50070  Biso   1.000  C
  H13      1.0000 0.09330  0.97470  0.98540  Biso   1.000  H
  H14      1.0000 0.40670  0.47470  0.51460  Biso   1.000  H
  H15      1.0000 0.90670  0.02530  0.01460  Biso   1.000  H
  H16      1.0000 0.59330  0.52530  0.48540  Biso   1.000  H
  C49      1.0000 0.23290  0.31220  0.16420  Biso   1.000  C
  C50      1.0000 0.26710  0.81220  0.33580  Biso   1.000  C
  C51      1.0000 0.76710  0.68780  0.83580  Biso   1.000  C
  C52      1.0000 0.73290  0.18780  0.66420  Biso   1.000  C
  H17      1.0000 0.20050  0.32630  0.12360  Biso   1.000  H
  H18      1.0000 0.29950  0.82630  0.37640  Biso   1.000  H
  H19      1.0000 0.79950  0.67370  0.87640  Biso   1.000  H
  H20      1.0000 0.70050  0.17370  0.62360  Biso   1.000  H
  C53      1.0000 0.21630  0.19440  0.16650  Biso   1.000  C
  C54      1.0000 0.28370  0.69440  0.33350  Biso   1.000  C
  C55      1.0000 0.78370  0.80560  0.83350  Biso   1.000  C
  C56      1.0000 0.71630  0.30560  0.66650  Biso   1.000  C
  H21      1.0000 0.16410  0.20670  0.14110  Biso   1.000  H
  H22      1.0000 0.33590  0.70670  0.35890  Biso   1.000  H
  H23      1.0000 0.83590  0.79330  0.85890  Biso   1.000  H
  H24      1.0000 0.66410  0.29330  0.64110  Biso   1.000  H
  C57      1.0000 0.32570  0.04390  0.92840  Biso   1.000  C
  C58      1.0000 0.17430  0.54390  0.57160  Biso   1.000  C
  C59      1.0000 0.67430  0.95610  0.07160  Biso   1.000  C
  C60      1.0000 0.82570  0.45610  0.42840  Biso   1.000  C
  H25      1.0000 0.32310  0.03670  0.87450  Biso   1.000  H
  H26      1.0000 0.17690  0.53670  0.62550  Biso   1.000  H
  H27      1.0000 0.67690  0.96330  0.12550  Biso   1.000  H
  H28      1.0000 0.82310  0.46330  0.37450  Biso   1.000  H
  F1       1.0000 0.30900  0.99270  0.74170  Biso   1.000  F
  F2       1.0000 0.19100  0.49270  0.75830  Biso   1.000  F
  F3       1.0000 0.69100  0.00730  0.25830  Biso   1.000  F
  F4       1.0000 0.80900  0.50730  0.24170  Biso   1.000  F
  C61      1.0000 0.72950  0.08800  0.57850  Biso   1.000  C
  C62      1.0000 0.77050  0.58800  0.92150  Biso   1.000  C
  C63      1.0000 0.27050  0.91200  0.42150  Biso   1.000  C
  C64      1.0000 0.22950  0.41200  0.07850  Biso   1.000  C
  H29      1.0000 0.79400  0.08530  0.57560  Biso   1.000  H
  H30      1.0000 0.70600  0.58530  0.92440  Biso   1.000  H
  H31      1.0000 0.20600  0.91470  0.42440  Biso   1.000  H
  H32      1.0000 0.29400  0.41470  0.07560  Biso   1.000  H
  C65      1.0000 0.81180  0.09890  0.01540  Biso   1.000  C
  C66      1.0000 0.68820  0.59890  0.48460  Biso   1.000  C
  C67      1.0000 0.18820  0.90110  0.98460  Biso   1.000  C
  C68      1.0000 0.31180  0.40110  0.51540  Biso   1.000  C
  H33      1.0000 0.82090  0.09940  0.07150  Biso   1.000  H
  H34      1.0000 0.67910  0.59940  0.42850  Biso   1.000  H
  H35      1.0000 0.17910  0.90060  0.92850  Biso   1.000  H
  H36      1.0000 0.32090  0.40060  0.57150  Biso   1.000  H
  C69      1.0000 0.61410  0.10630  0.64150  Biso   1.000  C
  C70      1.0000 0.88590  0.60630  0.85850  Biso   1.000  C
  C71      1.0000 0.38590  0.89370  0.35850  Biso   1.000  C
  C72      1.0000 0.11410  0.39370  0.14150  Biso   1.000  C
  H37      1.0000 0.59310  0.11690  0.68750  Biso   1.000  H
  H38      1.0000 0.90690  0.61690  0.81250  Biso   1.000  H
  H39      1.0000 0.40690  0.88310  0.31250  Biso   1.000  H
  H40      1.0000 0.09310  0.38310  0.18750  Biso   1.000  H
  C73      1.0000 0.04010  0.09620  0.87900  Biso   1.000  C
  C74      1.0000 0.45990  0.59620  0.62100  Biso   1.000  C
  C75      1.0000 0.95990  0.90380  0.12100  Biso   1.000  C
  C76      1.0000 0.54010  0.40380  0.37900  Biso   1.000  C
  C77      1.0000 0.96630  0.11180  0.62840  Biso   1.000  C
  C78      1.0000 0.53370  0.61180  0.87160  Biso   1.000  C
  C79      1.0000 0.03370  0.88820  0.37160  Biso   1.000  C
  C80      1.0000 0.46630  0.38820  0.12840  Biso   1.000  C
  C81      1.0000 0.28540  0.21440  0.20780  Biso   1.000  C
  C82      1.0000 0.21460  0.71440  0.29220  Biso   1.000  C
  C83      1.0000 0.71460  0.78560  0.79220  Biso   1.000  C
  C84      1.0000 0.78540  0.28560  0.70780  Biso   1.000  C
  C85      1.0000 0.10040  0.09300  0.31370  Biso   1.000  C
  C86      1.0000 0.39960  0.59300  0.18630  Biso   1.000  C
  C87      1.0000 0.89960  0.90700  0.68630  Biso   1.000  C
  C88      1.0000 0.60040  0.40700  0.81370  Biso   1.000  C
  C89      1.0000 0.36880  0.09320  0.35890  Biso   1.000  C
  C90      1.0000 0.13120  0.59320  0.14110  Biso   1.000  C
  C91      1.0000 0.63120  0.90680  0.64110  Biso   1.000  C
  C92      1.0000 0.86880  0.40680  0.85890  Biso   1.000  C
  H41      1.0000 0.30920  0.10400  0.35630  Biso   1.000  H
  H42      1.0000 0.19080  0.60400  0.14370  Biso   1.000  H
  H43      1.0000 0.69080  0.89600  0.64370  Biso   1.000  H
  H44      1.0000 0.80920  0.39600  0.85630  Biso   1.000  H
  C93      1.0000 0.14030  0.04130  0.23200  Biso   1.000  C
  C94      1.0000 0.35970  0.54130  0.26800  Biso   1.000  C
  C95      1.0000 0.85970  0.95870  0.76800  Biso   1.000  C
  C96      1.0000 0.64030  0.45870  0.73200  Biso   1.000  C
  C97      1.0000 0.05250  0.09490  0.96150  Biso   1.000  C
  C98      1.0000 0.44750  0.59490  0.53850  Biso   1.000  C
  C99      1.0000 0.94750  0.90510  0.03850  Biso   1.000  C
  C100     1.0000 0.55250  0.40510  0.46150  Biso   1.000  C
  H45      1.0000 0.11350  0.09310  0.98680  Biso   1.000  H
  H46      1.0000 0.38650  0.59310  0.51320  Biso   1.000  H
  H47      1.0000 0.88650  0.90690  0.01320  Biso   1.000  H
  H48      1.0000 0.61350  0.40690  0.48680  Biso   1.000  H
  C101     1.0000 0.19990  0.05890  0.44070  Biso   1.000  C
  C102     1.0000 0.30010  0.55890  0.05930  Biso   1.000  C
  C103     1.0000 0.80010  0.94110  0.55930  Biso   1.000  C
  C104     1.0000 0.69990  0.44110  0.94070  Biso   1.000  C
  H49      1.0000 0.23790  0.05030  0.48560  Biso   1.000  H
  H50      1.0000 0.26210  0.55030  0.01440  Biso   1.000  H
  H51      1.0000 0.76210  0.94970  0.51440  Biso   1.000  H
  H52      1.0000 0.73790  0.44970  0.98560  Biso   1.000  H
  C105     1.0000 0.19660  0.03540  0.10480  Biso   1.000  C
  C106     1.0000 0.30340  0.53540  0.39520  Biso   1.000  C
  C107     1.0000 0.80340  0.96460  0.89520  Biso   1.000  C
  C108     1.0000 0.69660  0.46460  0.60480  Biso   1.000  C
  C109     1.0000 0.90790  0.12400  0.47500  Biso   1.000  C
  C110     1.0000 0.59210  0.62400  0.02500  Biso   1.000  C
  C111     1.0000 0.09210  0.87600  0.52500  Biso   1.000  C
  C112     1.0000 0.40790  0.37600  0.97500  Biso   1.000  C
  C113     1.0000 0.23860  0.27530  0.15650  Biso   1.000  C
  C114     1.0000 0.26140  0.77530  0.34350  Biso   1.000  C
  C115     1.0000 0.76140  0.72470  0.84350  Biso   1.000  C
  C116     1.0000 0.73860  0.22470  0.65650  Biso   1.000  C
  H53      1.0000 0.21660  0.26400  0.10790  Biso   1.000  H
  H54      1.0000 0.28340  0.76400  0.39210  Biso   1.000  H
  H55      1.0000 0.78340  0.73600  0.89210  Biso   1.000  H
  H56      1.0000 0.71660  0.23600  0.60790  Biso   1.000  H
  C117     1.0000 0.31650  0.27120  0.28580  Biso   1.000  C
  C118     1.0000 0.18350  0.77120  0.21420  Biso   1.000  C
  C119     1.0000 0.68350  0.72880  0.71420  Biso   1.000  C
  C120     1.0000 0.81650  0.22880  0.78580  Biso   1.000  C
  H57      1.0000 0.34850  0.25860  0.32920  Biso   1.000  H
  H58      1.0000 0.15150  0.75860  0.17080  Biso   1.000  H
  H59      1.0000 0.65150  0.74140  0.67080  Biso   1.000  H
  H60      1.0000 0.84850  0.24140  0.82920  Biso   1.000  H
  F5       1.0000 0.10590  0.97030  0.66930  Biso   1.000  F
  F6       1.0000 0.39410  0.47030  0.83070  Biso   1.000  F
  F7       1.0000 0.89410  0.02970  0.33070  Biso   1.000  F
  F8       1.0000 0.60590  0.52970  0.16930  Biso   1.000  F
  C121     1.0000 0.22140  0.15690  0.16140  Biso   1.000  C
  C122     1.0000 0.27860  0.65690  0.33860  Biso   1.000  C
  C123     1.0000 0.77860  0.84310  0.83860  Biso   1.000  C
  C124     1.0000 0.72140  0.34310  0.66140  Biso   1.000  C
  H61      1.0000 0.17410  0.14340  0.13190  Biso   1.000  H
  H62      1.0000 0.32590  0.64340  0.36810  Biso   1.000  H
  H63      1.0000 0.82590  0.85660  0.86810  Biso   1.000  H
  H64      1.0000 0.67410  0.35660  0.63190  Biso   1.000  H
  C125     1.0000 0.44790  0.09480  0.77290  Biso   1.000  C
  C126     1.0000 0.05210  0.59480  0.72710  Biso   1.000  C
  C127     1.0000 0.55210  0.90520  0.22710  Biso   1.000  C
  C128     1.0000 0.94790  0.40520  0.27290  Biso   1.000  C
  F9       1.0000 0.19900  0.96010  0.77920  Biso   1.000  F
  F10      1.0000 0.30100  0.46010  0.72080  Biso   1.000  F
  F11      1.0000 0.80100  0.03990  0.22080  Biso   1.000  F
  F12      1.0000 0.69900  0.53990  0.27920  Biso   1.000  F
  C129     1.0000 0.54440  0.15760  0.10700  Biso   1.000  C
  C130     1.0000 0.95560  0.65760  0.39300  Biso   1.000  C
  C131     1.0000 0.45560  0.84240  0.89300  Biso   1.000  C
  C132     1.0000 0.04440  0.34240  0.60700  Biso   1.000  C
  H65      1.0000 0.54620  0.18330  0.10240  Biso   1.000  H
  H66      1.0000 0.95380  0.68330  0.39760  Biso   1.000  H
  H67      1.0000 0.45380  0.81670  0.89760  Biso   1.000  H
  H68      1.0000 0.04620  0.31670  0.60240  Biso   1.000  H
  C133     1.0000 0.27660  0.25410  0.21940  Biso   1.000  C
  C134     1.0000 0.22340  0.75410  0.28060  Biso   1.000  C
  C135     1.0000 0.72340  0.74590  0.78060  Biso   1.000  C
  C136     1.0000 0.77660  0.24590  0.71940  Biso   1.000  C
  C137     1.0000 0.39130  0.07730  0.03930  Biso   1.000  C
  C138     1.0000 0.10870  0.57730  0.46070  Biso   1.000  C
  C139     1.0000 0.60870  0.92270  0.96070  Biso   1.000  C
  C140     1.0000 0.89130  0.42270  0.53930  Biso   1.000  C
  C141     1.0000 0.95470  0.14780  0.60970  Biso   1.000  C
  C142     1.0000 0.54530  0.64780  0.89030  Biso   1.000  C
  C143     1.0000 0.04530  0.85220  0.39030  Biso   1.000  C
  C144     1.0000 0.45470  0.35220  0.10970  Biso   1.000  C
  C145     1.0000 0.49600  0.06370  0.78180  Biso   1.000  C
  C146     1.0000 0.00400  0.56370  0.71820  Biso   1.000  C
  C147     1.0000 0.50400  0.93630  0.21820  Biso   1.000  C
  C148     1.0000 0.99600  0.43630  0.28180  Biso   1.000  C
  H69      1.0000 0.47090  0.04110  0.76290  Biso   1.000  H
  H70      1.0000 0.02910  0.54110  0.73710  Biso   1.000  H
  H71      1.0000 0.52910  0.95890  0.23710  Biso   1.000  H
  H72      1.0000 0.97090  0.45890  0.26290  Biso   1.000  H
  C149     1.0000 0.36730  0.16130  0.23330  Biso   1.000  C
  C150     1.0000 0.13270  0.66130  0.26670  Biso   1.000  C
  C151     1.0000 0.63270  0.83870  0.76670  Biso   1.000  C
  C152     1.0000 0.86730  0.33870  0.73330  Biso   1.000  C
  H73      1.0000 0.42330  0.14880  0.24860  Biso   1.000  H
  H74      1.0000 0.07670  0.64880  0.25140  Biso   1.000  H
  H75      1.0000 0.57670  0.85120  0.75140  Biso   1.000  H
  H76      1.0000 0.92330  0.35120  0.74860  Biso   1.000  H
  C153     1.0000 0.42570  0.09670  0.42900  Biso   1.000  C
  C154     1.0000 0.07430  0.59670  0.07100  Biso   1.000  C
  C155     1.0000 0.57430  0.90330  0.57100  Biso   1.000  C
  C156     1.0000 0.92570  0.40330  0.92900  Biso   1.000  C
  H77      1.0000 0.40360  0.10880  0.47300  Biso   1.000  H
  H78      1.0000 0.09640  0.60880  0.02700  Biso   1.000  H
  H79      1.0000 0.59640  0.89120  0.52700  Biso   1.000  H
  H80      1.0000 0.90360  0.39120  0.97300  Biso   1.000  H
  C157     1.0000 0.53790  0.06400  0.37260  Biso   1.000  C
  C158     1.0000 0.96210  0.56400  0.12740  Biso   1.000  C
  C159     1.0000 0.46210  0.93600  0.62740  Biso   1.000  C
  C160     1.0000 0.03790  0.43600  0.87260  Biso   1.000  C
  H81      1.0000 0.59700  0.05290  0.37450  Biso   1.000  H
  H82      1.0000 0.90300  0.55290  0.12550  Biso   1.000  H
  H83      1.0000 0.40300  0.94710  0.62550  Biso   1.000  H
  H84      1.0000 0.09700  0.44710  0.87450  Biso   1.000  H
  C161     1.0000 0.26350  0.03140  0.97220  Biso   1.000  C
  C162     1.0000 0.23650  0.53140  0.52780  Biso   1.000  C
  C163     1.0000 0.73650  0.96860  0.02780  Biso   1.000  C
  C164     1.0000 0.76350  0.46860  0.47220  Biso   1.000  C
  C165     1.0000 0.58510  0.06630  0.82030  Biso   1.000  C
  C166     1.0000 0.91490  0.56630  0.67970  Biso   1.000  C
  C167     1.0000 0.41490  0.93370  0.17970  Biso   1.000  C
  C168     1.0000 0.08510  0.43370  0.32030  Biso   1.000  C
  C169     1.0000 0.51210  0.08310  0.43520  Biso   1.000  C
  C170     1.0000 0.98790  0.58310  0.06480  Biso   1.000  C
  C171     1.0000 0.48790  0.91690  0.56480  Biso   1.000  C
  C172     1.0000 0.01210  0.41690  0.93520  Biso   1.000  C
  F13      1.0000 0.24580  0.94540  0.66690  Biso   1.000  F
  F14      1.0000 0.25420  0.44540  0.83310  Biso   1.000  F
  F15      1.0000 0.75420  0.05460  0.33310  Biso   1.000  F
  F16      1.0000 0.74580  0.55460  0.16690  Biso   1.000  F
  C173     1.0000 0.39360  0.06690  0.95720  Biso   1.000  C
  C174     1.0000 0.10640  0.56690  0.54280  Biso   1.000  C
  C175     1.0000 0.60640  0.93310  0.04280  Biso   1.000  C
  C176     1.0000 0.89360  0.43310  0.45720  Biso   1.000  C
  H85      1.0000 0.43960  0.07550  0.92570  Biso   1.000  H
  H86      1.0000 0.06040  0.57550  0.57430  Biso   1.000  H
  H87      1.0000 0.56040  0.92450  0.07430  Biso   1.000  H
  H88      1.0000 0.93960  0.42450  0.42570  Biso   1.000  H
  C177     1.0000 0.04490  0.10920  0.25160  Biso   1.000  C
  C178     1.0000 0.45510  0.60920  0.24840  Biso   1.000  C
  C179     1.0000 0.95510  0.89080  0.74840  Biso   1.000  C
  C180     1.0000 0.54490  0.39080  0.75160  Biso   1.000  C
  H89      1.0000 0.99600  0.09220  0.23190  Biso   1.000  H
  H90      1.0000 0.50400  0.59220  0.26810  Biso   1.000  H
  H91      1.0000 0.00400  0.90780  0.76810  Biso   1.000  H
  H92      1.0000 0.49600  0.40780  0.73190  Biso   1.000  H
  H93      1.0000 0.08270  0.11530  0.20870  Biso   1.000  H
  H94      1.0000 0.41730  0.61530  0.29130  Biso   1.000  H
  H95      1.0000 0.91730  0.88470  0.79130  Biso   1.000  H
  H96      1.0000 0.58270  0.38470  0.70870  Biso   1.000  H
  H97      1.0000 0.01710  0.13140  0.27070  Biso   1.000  H
  H98      1.0000 0.48290  0.63140  0.22930  Biso   1.000  H
  H99      1.0000 0.98290  0.86860  0.72930  Biso   1.000  H
  H100     1.0000 0.51710  0.36860  0.77070  Biso   1.000  H
  C181     1.0000 0.62380  0.10300  0.15600  Biso   1.000  C
  C182     1.0000 0.87620  0.60300  0.34400  Biso   1.000  C
  C183     1.0000 0.37620  0.89700  0.84400  Biso   1.000  C
  C184     1.0000 0.12380  0.39700  0.65600  Biso   1.000  C
  H101     1.0000 0.67560  0.09190  0.18470  Biso   1.000  H
  H102     1.0000 0.82440  0.59190  0.31530  Biso   1.000  H
  H103     1.0000 0.32440  0.90810  0.81530  Biso   1.000  H
  H104     1.0000 0.17560  0.40810  0.68470  Biso   1.000  H
  C185     1.0000 0.98290  0.09610  0.00580  Biso   1.000  C
  C186     1.0000 0.51710  0.59610  0.49420  Biso   1.000  C
  C187     1.0000 0.01710  0.90390  0.99420  Biso   1.000  C
  C188     1.0000 0.48290  0.40390  0.50580  Biso   1.000  C
  H105     1.0000 0.99750  0.09590  0.06160  Biso   1.000  H
  H106     1.0000 0.50250  0.59590  0.43840  Biso   1.000  H
  H107     1.0000 0.00250  0.90410  0.93840  Biso   1.000  H
  H108     1.0000 0.49750  0.40410  0.56160  Biso   1.000  H
  C189     1.0000 0.56540  0.12880  0.84550  Biso   1.000  C
  C190     1.0000 0.93460  0.62880  0.65450  Biso   1.000  C
  C191     1.0000 0.43460  0.87120  0.15450  Biso   1.000  C
  C192     1.0000 0.06540  0.37120  0.34550  Biso   1.000  C
  C193     1.0000 0.47010  0.13990  0.06850  Biso   1.000  C
  C194     1.0000 0.02990  0.63990  0.43150  Biso   1.000  C
  C195     1.0000 0.52990  0.86010  0.93150  Biso   1.000  C
  C196     1.0000 0.97010  0.36010  0.56850  Biso   1.000  C
  N25      1.0000 0.20030  0.04950  0.17950  Biso   1.000  N
  N26      1.0000 0.29970  0.54950  0.32050  Biso   1.000  N
  N27      1.0000 0.79970  0.95050  0.82050  Biso   1.000  N
  N28      1.0000 0.70030  0.45050  0.67950  Biso   1.000  N
  C197     1.0000 0.34730  0.09370  0.72770  Biso   1.000  C
  C198     1.0000 0.15270  0.59370  0.77230  Biso   1.000  C
  C199     1.0000 0.65270  0.90630  0.27230  Biso   1.000  C
  C200     1.0000 0.84730  0.40630  0.22770  Biso   1.000  C
  H109     1.0000 0.35050  0.08430  0.67390  Biso   1.000  H
  H110     1.0000 0.14950  0.58430  0.82610  Biso   1.000  H
  H111     1.0000 0.64950  0.91570  0.32610  Biso   1.000  H
  H112     1.0000 0.85050  0.41570  0.17390  Biso   1.000  H
  H113     1.0000 0.32140  0.11840  0.72490  Biso   1.000  H
  H114     1.0000 0.17860  0.61840  0.77510  Biso   1.000  H
  H115     1.0000 0.67860  0.88160  0.27510  Biso   1.000  H
  H116     1.0000 0.82140  0.38160  0.22490  Biso   1.000  H
  H117     1.0000 0.30780  0.07780  0.75620  Biso   1.000  H
  H118     1.0000 0.19220  0.57780  0.74380  Biso   1.000  H
  H119     1.0000 0.69220  0.92220  0.24380  Biso   1.000  H
  H120     1.0000 0.80780  0.42220  0.25620  Biso   1.000  H
  C201     1.0000 0.97520  0.04640  0.60060  Biso   1.000  C
  C202     1.0000 0.52480  0.54640  0.89940  Biso   1.000  C
  C203     1.0000 0.02480  0.95360  0.39940  Biso   1.000  C
  C204     1.0000 0.47520  0.45360  0.10060  Biso   1.000  C
  H121     1.0000 0.96250  0.04350  0.65600  Biso   1.000  H
  H122     1.0000 0.53750  0.54350  0.84400  Biso   1.000  H
  H123     1.0000 0.03750  0.95650  0.34400  Biso   1.000  H
  H124     1.0000 0.46250  0.45650  0.15600  Biso   1.000  H
  H125     1.0000 0.03970  0.04010  0.59530  Biso   1.000  H
  H126     1.0000 0.46030  0.54010  0.90470  Biso   1.000  H
  H127     1.0000 0.96030  0.95990  0.40470  Biso   1.000  H
  H128     1.0000 0.53970  0.45990  0.09530  Biso   1.000  H
  H129     1.0000 0.93460  0.03030  0.56700  Biso   1.000  H
  H130     1.0000 0.56540  0.53030  0.93300  Biso   1.000  H
  H131     1.0000 0.06540  0.96970  0.43300  Biso   1.000  H
  H132     1.0000 0.43460  0.46970  0.06700  Biso   1.000  H
  C205     1.0000 0.98360  0.18240  0.66220  Biso   1.000  C
  C206     1.0000 0.51640  0.68240  0.83780  Biso   1.000  C
  C207     1.0000 0.01640  0.81760  0.33780  Biso   1.000  C
  C208     1.0000 0.48360  0.31760  0.16220  Biso   1.000  C
  H133     1.0000 0.97550  0.17720  0.71780  Biso   1.000  H
  H134     1.0000 0.52450  0.67720  0.78220  Biso   1.000  H
  H135     1.0000 0.02450  0.82280  0.28220  Biso   1.000  H
  H136     1.0000 0.47550  0.32280  0.21780  Biso   1.000  H
  H137     1.0000 0.94460  0.20310  0.64420  Biso   1.000  H
  H138     1.0000 0.55540  0.70310  0.85580  Biso   1.000  H
  H139     1.0000 0.05540  0.79690  0.35580  Biso   1.000  H
  H140     1.0000 0.44460  0.29690  0.14420  Biso   1.000  H
  H141     1.0000 0.04840  0.18840  0.65720  Biso   1.000  H
  H142     1.0000 0.45160  0.68840  0.84280  Biso   1.000  H
  H143     1.0000 0.95160  0.81160  0.34280  Biso   1.000  H
  H144     1.0000 0.54840  0.31160  0.15720  Biso   1.000  H
  C209     1.0000 0.95810  0.08450  0.57600  Biso   1.000  C
  C210     1.0000 0.54190  0.58450  0.92400  Biso   1.000  C
  C211     1.0000 0.04190  0.91550  0.42400  Biso   1.000  C
  C212     1.0000 0.45810  0.41550  0.07600  Biso   1.000  C
  C213     1.0000 0.47590  0.10000  0.07410  Biso   1.000  C
  C214     1.0000 0.02410  0.60000  0.42590  Biso   1.000  C
  C215     1.0000 0.52410  0.90000  0.92590  Biso   1.000  C
  C216     1.0000 0.97590  0.40000  0.57410  Biso   1.000  C
  F17      1.0000 0.22030  0.99890  0.62860  Biso   1.000  F
  F18      1.0000 0.27970  0.49890  0.87140  Biso   1.000  F
  F19      1.0000 0.77970  0.00110  0.37140  Biso   1.000  F
  F20      1.0000 0.72030  0.50110  0.12860  Biso   1.000  F
  C217     1.0000 0.08500  0.10210  0.74940  Biso   1.000  C
  C218     1.0000 0.41500  0.60210  0.75060  Biso   1.000  C
  C219     1.0000 0.91500  0.89790  0.25060  Biso   1.000  C
  C220     1.0000 0.58500  0.39790  0.24940  Biso   1.000  C
  H145     1.0000 0.13340  0.10270  0.71570  Biso   1.000  H
  H146     1.0000 0.36660  0.60270  0.78430  Biso   1.000  H
  H147     1.0000 0.86660  0.89730  0.28430  Biso   1.000  H
  H148     1.0000 0.63340  0.39730  0.21570  Biso   1.000  H
  C221     1.0000 0.59490  0.16440  0.88090  Biso   1.000  C
  C222     1.0000 0.90510  0.66440  0.61910  Biso   1.000  C
  C223     1.0000 0.40510  0.83560  0.11910  Biso   1.000  C
  C224     1.0000 0.09490  0.33560  0.38090  Biso   1.000  C
  H149     1.0000 0.54250  0.18130  0.87650  Biso   1.000  H
  H150     1.0000 0.95750  0.68130  0.62350  Biso   1.000  H
  H151     1.0000 0.45750  0.81870  0.12350  Biso   1.000  H
  H152     1.0000 0.04250  0.31870  0.37650  Biso   1.000  H
  H153     1.0000 0.64490  0.17450  0.85260  Biso   1.000  H
  H154     1.0000 0.85510  0.67450  0.64740  Biso   1.000  H
  H155     1.0000 0.35510  0.82550  0.14740  Biso   1.000  H
  H156     1.0000 0.14490  0.32550  0.35260  Biso   1.000  H
  H157     1.0000 0.61700  0.16100  0.93680  Biso   1.000  H
  H158     1.0000 0.88300  0.66100  0.56320  Biso   1.000  H
  H159     1.0000 0.38300  0.83900  0.06320  Biso   1.000  H
  H160     1.0000 0.11700  0.33900  0.43680  Biso   1.000  H
  C225     1.0000 0.55820  0.03750  0.11450  Biso   1.000  C
  C226     1.0000 0.94180  0.53750  0.38550  Biso   1.000  C
  C227     1.0000 0.44180  0.96250  0.88550  Biso   1.000  C
  C228     1.0000 0.05820  0.46250  0.61450  Biso   1.000  C
  H161     1.0000 0.49670  0.02640  0.11130  Biso   1.000  H
  H162     1.0000 0.00330  0.52640  0.38870  Biso   1.000  H
  H163     1.0000 0.50330  0.97360  0.88870  Biso   1.000  H
  H164     1.0000 0.99670  0.47360  0.61130  Biso   1.000  H
  H165     1.0000 0.59410  0.02960  0.16340  Biso   1.000  H
  H166     1.0000 0.90590  0.52960  0.33660  Biso   1.000  H
  H167     1.0000 0.40590  0.97040  0.83660  Biso   1.000  H
  H168     1.0000 0.09410  0.47040  0.66340  Biso   1.000  H
  H169     1.0000 0.58980  0.02980  0.06880  Biso   1.000  H
  H170     1.0000 0.91020  0.52980  0.43120  Biso   1.000  H
  H171     1.0000 0.41020  0.97020  0.93120  Biso   1.000  H
  H172     1.0000 0.08980  0.47020  0.56880  Biso   1.000  H
  C229     1.0000 0.18210  0.00680  0.94720  Biso   1.000  C
  C230     1.0000 0.31790  0.50680  0.55280  Biso   1.000  C
  C231     1.0000 0.81790  0.99320  0.05280  Biso   1.000  C
  C232     1.0000 0.68210  0.49320  0.44720  Biso   1.000  C
  H173     1.0000 0.16800  0.00040  0.89320  Biso   1.000  H
  H174     1.0000 0.33200  0.50040  0.60680  Biso   1.000  H
  H175     1.0000 0.83200  0.99960  0.10680  Biso   1.000  H
  H176     1.0000 0.66800  0.49960  0.39320  Biso   1.000  H
  C233     1.0000 0.06820  0.01230  0.20180  Biso   1.000  C
  C234     1.0000 0.43180  0.51230  0.29820  Biso   1.000  C
  C235     1.0000 0.93180  0.98770  0.79820  Biso   1.000  C
  C236     1.0000 0.56820  0.48770  0.70180  Biso   1.000  C
  H177     1.0000 0.02320  0.00390  0.23460  Biso   1.000  H
  H178     1.0000 0.47680  0.50390  0.26540  Biso   1.000  H
  H179     1.0000 0.97680  0.99610  0.76540  Biso   1.000  H
  H180     1.0000 0.52320  0.49610  0.73460  Biso   1.000  H
  C237     1.0000 0.12760  0.00710  0.07510  Biso   1.000  C
  C238     1.0000 0.37240  0.50710  0.42490  Biso   1.000  C
  C239     1.0000 0.87240  0.99290  0.92490  Biso   1.000  C
  C240     1.0000 0.62760  0.49290  0.57510  Biso   1.000  C
  C241     1.0000 0.20160  0.03530  0.37990  Biso   1.000  C
  C242     1.0000 0.29840  0.53530  0.12010  Biso   1.000  C
  C243     1.0000 0.79840  0.96470  0.62010  Biso   1.000  C
  C244     1.0000 0.70160  0.46470  0.87990  Biso   1.000  C
  F21      1.0000 0.16390  0.01390  0.74630  Biso   1.000  F
  F22      1.0000 0.33610  0.51390  0.75370  Biso   1.000  F
  F23      1.0000 0.83610  0.98610  0.25370  Biso   1.000  F
  F24      1.0000 0.66390  0.48610  0.24630  Biso   1.000  F
  C245     1.0000 0.47820  0.12840  0.80470  Biso   1.000  C
  C246     1.0000 0.02180  0.62840  0.69530  Biso   1.000  C
  C247     1.0000 0.52180  0.87160  0.19530  Biso   1.000  C
  C248     1.0000 0.97820  0.37160  0.30470  Biso   1.000  C
  H181     1.0000 0.44110  0.14970  0.79870  Biso   1.000  H
  H182     1.0000 0.05890  0.64970  0.70130  Biso   1.000  H
  H183     1.0000 0.55890  0.85030  0.20130  Biso   1.000  H
  H184     1.0000 0.94110  0.35030  0.29870  Biso   1.000  H
  C249     1.0000 0.10490  0.09750  0.83010  Biso   1.000  C
  C250     1.0000 0.39510  0.59750  0.66990  Biso   1.000  C
  C251     1.0000 0.89510  0.90250  0.16990  Biso   1.000  C
  C252     1.0000 0.60490  0.40250  0.33010  Biso   1.000  C
  H185     1.0000 0.16760  0.09520  0.85090  Biso   1.000  H
  H186     1.0000 0.33240  0.59520  0.64910  Biso   1.000  H
  H187     1.0000 0.83240  0.90480  0.14910  Biso   1.000  H
  H188     1.0000 0.66760  0.40480  0.35090  Biso   1.000  H
  C253     1.0000 0.54860  0.08110  0.11450  Biso   1.000  C
  C254     1.0000 0.95140  0.58110  0.38550  Biso   1.000  C
  C255     1.0000 0.45140  0.91890  0.88550  Biso   1.000  C
  C256     1.0000 0.04860  0.41890  0.61450  Biso   1.000  C
  C257     1.0000 0.36090  0.19660  0.24610  Biso   1.000  C
  C258     1.0000 0.13910  0.69660  0.25390  Biso   1.000  C
  C259     1.0000 0.63910  0.80340  0.75390  Biso   1.000  C
  C260     1.0000 0.86090  0.30340  0.74610  Biso   1.000  C
  H189     1.0000 0.40610  0.20930  0.27990  Biso   1.000  H
  H190     1.0000 0.09390  0.70930  0.22010  Biso   1.000  H
  H191     1.0000 0.59390  0.79070  0.72010  Biso   1.000  H
  H192     1.0000 0.90610  0.29070  0.77990  Biso   1.000  H
  C261     1.0000 0.39580  0.15830  0.01970  Biso   1.000  C
  C262     1.0000 0.10420  0.65830  0.48030  Biso   1.000  C
  C263     1.0000 0.60420  0.84170  0.98030  Biso   1.000  C
  C264     1.0000 0.89580  0.34170  0.51970  Biso   1.000  C
  H193     1.0000 0.40070  0.18460  0.02820  Biso   1.000  H
  H194     1.0000 0.09930  0.68460  0.47180  Biso   1.000  H
  H195     1.0000 0.59930  0.81540  0.97180  Biso   1.000  H
  H196     1.0000 0.90070  0.31540  0.52820  Biso   1.000  H
  H197     1.0000 0.33600  0.14970  0.03450  Biso   1.000  H
  H198     1.0000 0.16400  0.64970  0.46550  Biso   1.000  H
  H199     1.0000 0.66400  0.85030  0.96550  Biso   1.000  H
  H200     1.0000 0.83600  0.35030  0.53450  Biso   1.000  H
  H201     1.0000 0.40090  0.15280  0.96380  Biso   1.000  H
  H202     1.0000 0.09910  0.65280  0.53620  Biso   1.000  H
  H203     1.0000 0.59910  0.84720  0.03620  Biso   1.000  H
  H204     1.0000 0.90090  0.34720  0.46380  Biso   1.000  H
  N29      1.0000 0.39230  0.07570  0.29470  Biso   1.000  N
  N30      1.0000 0.10770  0.57570  0.20530  Biso   1.000  N
  N31      1.0000 0.60770  0.92430  0.70530  Biso   1.000  N
  N32      1.0000 0.89230  0.42430  0.79470  Biso   1.000  N
  C265     1.0000 0.86920  0.13420  0.38640  Biso   1.000  C
  C266     1.0000 0.63080  0.63420  0.11360  Biso   1.000  C
  C267     1.0000 0.13080  0.86580  0.61360  Biso   1.000  C
  C268     1.0000 0.36920  0.36580  0.88640  Biso   1.000  C
  H205     1.0000 0.81250  0.12040  0.37140  Biso   1.000  H
  H206     1.0000 0.68750  0.62040  0.12860  Biso   1.000  H
  H207     1.0000 0.18750  0.87960  0.62860  Biso   1.000  H
  H208     1.0000 0.31250  0.37960  0.87140  Biso   1.000  H
  H209     1.0000 0.91560  0.12810  0.35030  Biso   1.000  H
  H210     1.0000 0.58440  0.62810  0.14970  Biso   1.000  H
  H211     1.0000 0.08440  0.87190  0.64970  Biso   1.000  H
  H212     1.0000 0.41560  0.37190  0.85030  Biso   1.000  H
  H213     1.0000 0.85590  0.16030  0.38310  Biso   1.000  H
  H214     1.0000 0.64410  0.66030  0.11690  Biso   1.000  H
  H215     1.0000 0.14410  0.83970  0.61690  Biso   1.000  H
  H216     1.0000 0.35590  0.33970  0.88310  Biso   1.000  H
  C269     1.0000 0.47320  0.06120  0.30340  Biso   1.000  C
  C270     1.0000 0.02680  0.56120  0.19660  Biso   1.000  C
  C271     1.0000 0.52680  0.93880  0.69660  Biso   1.000  C
  C272     1.0000 0.97320  0.43880  0.80340  Biso   1.000  C
  H217     1.0000 0.49180  0.04750  0.26020  Biso   1.000  H
  H218     1.0000 0.00820  0.54750  0.23980  Biso   1.000  H
  H219     1.0000 0.50820  0.95250  0.73980  Biso   1.000  H
  H220     1.0000 0.99180  0.45250  0.76020  Biso   1.000  H
  C273     1.0000 0.30510  0.30910  0.28330  Biso   1.000  C
  C274     1.0000 0.19490  0.80910  0.21670  Biso   1.000  C
  C275     1.0000 0.69490  0.69090  0.71670  Biso   1.000  C
  C276     1.0000 0.80510  0.19090  0.78330  Biso   1.000  C
  H221     1.0000 0.32540  0.32120  0.33130  Biso   1.000  H
  H222     1.0000 0.17460  0.82120  0.16870  Biso   1.000  H
  H223     1.0000 0.67460  0.67880  0.66870  Biso   1.000  H
  H224     1.0000 0.82540  0.17880  0.83130  Biso   1.000  H
  C277     1.0000 0.61480  0.14130  0.15070  Biso   1.000  C
  C278     1.0000 0.88520  0.64130  0.34930  Biso   1.000  C
  C279     1.0000 0.38520  0.85870  0.84930  Biso   1.000  C
  C280     1.0000 0.11480  0.35870  0.65070  Biso   1.000  C
  C281     1.0000 0.18120  0.10930  0.53950  Biso   1.000  C
  C282     1.0000 0.31880  0.60930  0.96050  Biso   1.000  C
  C283     1.0000 0.81880  0.89070  0.46050  Biso   1.000  C
  C284     1.0000 0.68120  0.39070  0.03950  Biso   1.000  C
  H225     1.0000 0.20670  0.09290  0.58160  Biso   1.000  H
  H226     1.0000 0.29330  0.59290  0.91840  Biso   1.000  H
  H227     1.0000 0.79330  0.90710  0.41840  Biso   1.000  H
  H228     1.0000 0.70670  0.40710  0.08160  Biso   1.000  H
  H229     1.0000 0.12180  0.11890  0.55280  Biso   1.000  H
  H230     1.0000 0.37820  0.61890  0.94720  Biso   1.000  H
  H231     1.0000 0.87820  0.88110  0.44720  Biso   1.000  H
  H232     1.0000 0.62180  0.38110  0.05280  Biso   1.000  H
  H233     1.0000 0.22420  0.12950  0.53400  Biso   1.000  H
  H234     1.0000 0.27580  0.62950  0.96600  Biso   1.000  H
  H235     1.0000 0.77580  0.87050  0.46600  Biso   1.000  H
  H236     1.0000 0.72420  0.37050  0.03400  Biso   1.000  H
  C285     1.0000 0.92920  0.08710  0.49560  Biso   1.000  C
  C286     1.0000 0.57080  0.58710  0.00440  Biso   1.000  C
  C287     1.0000 0.07080  0.91290  0.50440  Biso   1.000  C
  C288     1.0000 0.42920  0.41290  0.99560  Biso   1.000  C
  H237     1.0000 0.92440  0.06720  0.45970  Biso   1.000  H
  H238     1.0000 0.57560  0.56720  0.04030  Biso   1.000  H
  H239     1.0000 0.07560  0.93280  0.54030  Biso   1.000  H
  H240     1.0000 0.42440  0.43280  0.95970  Biso   1.000  H
  C289     1.0000 0.99060  0.10610  0.71680  Biso   1.000  C
  C290     1.0000 0.50940  0.60610  0.78320  Biso   1.000  C
  C291     1.0000 0.00940  0.89390  0.28320  Biso   1.000  C
  C292     1.0000 0.49060  0.39390  0.21680  Biso   1.000  C
  C293     1.0000 0.24330  0.99970  0.35950  Biso   1.000  C
  C294     1.0000 0.25670  0.49970  0.14050  Biso   1.000  C
  C295     1.0000 0.75670  0.00030  0.64050  Biso   1.000  C
  C296     1.0000 0.74330  0.50030  0.85950  Biso   1.000  C
  H241     1.0000 0.24830  0.98380  0.40610  Biso   1.000  H
  H242     1.0000 0.25170  0.48380  0.09390  Biso   1.000  H
  H243     1.0000 0.75170  0.01620  0.59390  Biso   1.000  H
  H244     1.0000 0.74830  0.51620  0.90610  Biso   1.000  H
  H245     1.0000 0.30480  0.00390  0.34240  Biso   1.000  H
  H246     1.0000 0.19520  0.50390  0.15760  Biso   1.000  H
  H247     1.0000 0.69520  0.99610  0.65760  Biso   1.000  H
  H248     1.0000 0.80480  0.49610  0.84240  Biso   1.000  H
  H249     1.0000 0.20400  0.98810  0.31650  Biso   1.000  H
  H250     1.0000 0.29600  0.48810  0.18350  Biso   1.000  H
  H251     1.0000 0.79600  0.01190  0.68350  Biso   1.000  H
  H252     1.0000 0.70400  0.51190  0.81650  Biso   1.000  H
  C297     1.0000 0.64350  0.03190  0.83010  Biso   1.000  C
  C298     1.0000 0.85650  0.53190  0.66990  Biso   1.000  C
  C299     1.0000 0.35650  0.96810  0.16990  Biso   1.000  C
  C300     1.0000 0.14350  0.46810  0.33010  Biso   1.000  C
  H253     1.0000 0.67130  0.03010  0.88490  Biso   1.000  H
  H254     1.0000 0.82870  0.53010  0.61510  Biso   1.000  H
  H255     1.0000 0.32870  0.96990  0.11510  Biso   1.000  H
  H256     1.0000 0.17130  0.46990  0.38490  Biso   1.000  H
  H257     1.0000 0.69230  0.03280  0.79420  Biso   1.000  H
  H258     1.0000 0.80770  0.53280  0.70580  Biso   1.000  H
  H259     1.0000 0.30770  0.96720  0.20580  Biso   1.000  H
  H260     1.0000 0.19230  0.46720  0.29420  Biso   1.000  H
  H261     1.0000 0.60430  0.01060  0.81750  Biso   1.000  H
  H262     1.0000 0.89570  0.51060  0.68250  Biso   1.000  H
  H263     1.0000 0.39570  0.98940  0.18250  Biso   1.000  H
  H264     1.0000 0.10430  0.48940  0.31750  Biso   1.000  H
  C301     1.0000 0.92540  0.15770  0.52620  Biso   1.000  C
  C302     1.0000 0.57460  0.65770  0.97380  Biso   1.000  C
  C303     1.0000 0.07460  0.84230  0.47380  Biso   1.000  C
  C304     1.0000 0.42540  0.34230  0.02620  Biso   1.000  C
  H265     1.0000 0.91850  0.18200  0.50720  Biso   1.000  H
  H266     1.0000 0.58150  0.68200  0.99280  Biso   1.000  H
  H267     1.0000 0.08150  0.81800  0.49280  Biso   1.000  H
  H268     1.0000 0.41850  0.31800  0.00720  Biso   1.000  H
  C305     1.0000 0.66880  0.08200  0.50980  Biso   1.000  C
  C306     1.0000 0.83120  0.58200  0.99020  Biso   1.000  C
  C307     1.0000 0.33120  0.91800  0.49020  Biso   1.000  C
  C308     1.0000 0.16880  0.41800  0.00980  Biso   1.000  C
  H269     1.0000 0.69230  0.07460  0.46200  Biso   1.000  H
  H270     1.0000 0.80770  0.57460  0.03800  Biso   1.000  H
  H271     1.0000 0.30770  0.92540  0.53800  Biso   1.000  H
  H272     1.0000 0.19230  0.42540  0.96200  Biso   1.000  H
  C309     1.0000 0.16590  0.08660  0.45490  Biso   1.000  C
  C310     1.0000 0.33410  0.58660  0.04510  Biso   1.000  C
  C311     1.0000 0.83410  0.91340  0.54510  Biso   1.000  C
  C312     1.0000 0.66590  0.41340  0.95490  Biso   1.000  C
  C313     1.0000 0.07080  0.99950  0.12980  Biso   1.000  C
  C314     1.0000 0.42920  0.49950  0.37020  Biso   1.000  C
  C315     1.0000 0.92920  0.00050  0.87020  Biso   1.000  C
  C316     1.0000 0.57080  0.50050  0.62980  Biso   1.000  C
  H273     1.0000 0.02460  0.98190  0.11430  Biso   1.000  H
  H274     1.0000 0.47540  0.48190  0.38570  Biso   1.000  H
  H275     1.0000 0.97540  0.01810  0.88570  Biso   1.000  H
  H276     1.0000 0.52460  0.51810  0.61430  Biso   1.000  H
  C317     1.0000 0.69270  0.16590  0.19650  Biso   1.000  C
  C318     1.0000 0.80730  0.66590  0.30350  Biso   1.000  C
  C319     1.0000 0.30730  0.83410  0.80350  Biso   1.000  C
  C320     1.0000 0.19270  0.33410  0.69650  Biso   1.000  C
  H277     1.0000 0.67190  0.19130  0.19640  Biso   1.000  H
  H278     1.0000 0.82810  0.69130  0.30360  Biso   1.000  H
  H279     1.0000 0.32810  0.80870  0.80360  Biso   1.000  H
  H280     1.0000 0.17190  0.30870  0.69640  Biso   1.000  H
  H281     1.0000 0.74950  0.16420  0.17000  Biso   1.000  H
  H282     1.0000 0.75050  0.66420  0.33000  Biso   1.000  H
  H283     1.0000 0.25050  0.83580  0.83000  Biso   1.000  H
  H284     1.0000 0.24950  0.33580  0.67000  Biso   1.000  H
  H285     1.0000 0.70470  0.15740  0.25120  Biso   1.000  H
  H286     1.0000 0.79530  0.65740  0.24880  Biso   1.000  H
  H287     1.0000 0.29530  0.84260  0.74880  Biso   1.000  H
  H288     1.0000 0.20470  0.34260  0.75120  Biso   1.000  H
