data_image0
_cell_length_a       17.353
_cell_length_b       21.8357
_cell_length_c       21.2915
_cell_angle_alpha    90
_cell_angle_beta     96.502
_cell_angle_gamma    90

_symmetry_space_group_name_H-M    "P 1"
_symmetry_int_tables_number       1

loop_
  _symmetry_equiv_pos_as_xyz
  'x, y, z'

loop_
  _atom_site_label
  _atom_site_occupancy
  _atom_site_fract_x
  _atom_site_fract_y
  _atom_site_fract_z
  _atom_site_thermal_displace_type
  _atom_site_B_iso_or_equiv
  _atom_site_type_symbol
  W1       1.0000 0.87270  0.30527  0.24284  Biso   1.000  W
  W2       1.0000 0.62730  0.80527  0.25716  Biso   1.000  W
  W3       1.0000 0.12730  0.69473  0.75716  Biso   1.000  W
  W4       1.0000 0.37270  0.19473  0.74284  Biso   1.000  W
  Cu1      1.0000 0.45060  0.29485  0.18676  Biso   1.000  Cu
  Cu2      1.0000 0.04940  0.79485  0.31324  Biso   1.000  Cu
  Cu3      1.0000 0.54940  0.70515  0.81324  Biso   1.000  Cu
  Cu4      1.0000 0.95060  0.20515  0.68676  Biso   1.000  Cu
  Cu5      1.0000 0.48059  0.14255  0.16861  Biso   1.000  Cu
  Cu6      1.0000 0.01941  0.64255  0.33139  Biso   1.000  Cu
  Cu7      1.0000 0.51941  0.85745  0.83139  Biso   1.000  Cu
  Cu8      1.0000 0.98059  0.35745  0.66861  Biso   1.000  Cu
  S1       1.0000 0.75430  0.26177  0.19495  Biso   1.000  S
  S2       1.0000 0.74570  0.76177  0.30505  Biso   1.000  S
  S3       1.0000 0.24570  0.73823  0.80505  Biso   1.000  S
  S4       1.0000 0.25430  0.23823  0.69495  Biso   1.000  S
  S5       1.0000 0.81364  0.28464  0.33697  Biso   1.000  S
  S6       1.0000 0.68636  0.78464  0.16303  Biso   1.000  S
  S7       1.0000 0.18636  0.71536  0.66303  Biso   1.000  S
  S8       1.0000 0.31364  0.21536  0.83697  Biso   1.000  S
  S9       1.0000 0.91981  0.26147  0.15191  Biso   1.000  S
  S10      1.0000 0.58019  0.76147  0.34809  Biso   1.000  S
  S11      1.0000 0.08019  0.73853  0.84809  Biso   1.000  S
  S12      1.0000 0.41981  0.23853  0.65191  Biso   1.000  S
  S13      1.0000 0.97554  0.24602  0.29561  Biso   1.000  S
  S14      1.0000 0.52446  0.74602  0.20439  Biso   1.000  S
  S15      1.0000 0.02446  0.75398  0.70439  Biso   1.000  S
  S16      1.0000 0.47554  0.25398  0.79561  Biso   1.000  S
  S17      1.0000 0.83763  0.38758  0.17140  Biso   1.000  S
  S18      1.0000 0.66237  0.88758  0.32860  Biso   1.000  S
  S19      1.0000 0.16237  0.61242  0.82860  Biso   1.000  S
  S20      1.0000 0.33763  0.11242  0.67140  Biso   1.000  S
  S21      1.0000 0.93274  0.38694  0.30511  Biso   1.000  S
  S22      1.0000 0.56726  0.88694  0.19489  Biso   1.000  S
  S23      1.0000 0.06726  0.61306  0.69489  Biso   1.000  S
  S24      1.0000 0.43274  0.11306  0.80511  Biso   1.000  S
  P1       1.0000 0.35188  0.26755  0.24237  Biso   1.000  P
  P2       1.0000 0.14812  0.76755  0.25763  Biso   1.000  P
  P3       1.0000 0.64812  0.73245  0.75763  Biso   1.000  P
  P4       1.0000 0.85188  0.23245  0.74237  Biso   1.000  P
  P5       1.0000 0.37293  0.12845  0.21760  Biso   1.000  P
  P6       1.0000 0.12707  0.62845  0.28240  Biso   1.000  P
  P7       1.0000 0.62707  0.87155  0.78240  Biso   1.000  P
  P8       1.0000 0.87293  0.37155  0.71760  Biso   1.000  P
  P9       1.0000 0.45950  0.16058  0.06320  Biso   1.000  P
  P10      1.0000 0.04050  0.66058  0.43680  Biso   1.000  P
  P11      1.0000 0.54050  0.83942  0.93680  Biso   1.000  P
  P12      1.0000 0.95950  0.33942  0.56320  Biso   1.000  P
  P13      1.0000 0.44358  0.29985  0.07965  Biso   1.000  P
  P14      1.0000 0.05642  0.79985  0.42035  Biso   1.000  P
  P15      1.0000 0.55642  0.70015  0.92035  Biso   1.000  P
  P16      1.0000 0.94358  0.20015  0.57965  Biso   1.000  P
  N1       1.0000 0.56690  0.19320  0.21380  Biso   1.000  N
  N2       1.0000 0.93310  0.69320  0.28620  Biso   1.000  N
  N3       1.0000 0.43310  0.80680  0.78620  Biso   1.000  N
  N4       1.0000 0.06690  0.30680  0.71380  Biso   1.000  N
  N5       1.0000 0.64230  0.22040  0.40500  Biso   1.000  N
  N6       1.0000 0.85770  0.72040  0.09500  Biso   1.000  N
  N7       1.0000 0.35770  0.77960  0.59500  Biso   1.000  N
  N8       1.0000 0.14230  0.27960  0.90500  Biso   1.000  N
  N9       1.0000 0.04760  0.14780  0.08960  Biso   1.000  N
  N10      1.0000 0.45240  0.64780  0.41040  Biso   1.000  N
  N11      1.0000 0.95240  0.85220  0.91040  Biso   1.000  N
  N12      1.0000 0.54760  0.35220  0.58960  Biso   1.000  N
  N13      1.0000 0.13560  0.13900  0.28360  Biso   1.000  N
  N14      1.0000 0.36440  0.63900  0.21640  Biso   1.000  N
  N15      1.0000 0.86440  0.86100  0.71640  Biso   1.000  N
  N16      1.0000 0.63560  0.36100  0.78360  Biso   1.000  N
  N17      1.0000 0.84390  0.55590  0.14550  Biso   1.000  N
  N18      1.0000 0.65610  0.05590  0.35450  Biso   1.000  N
  N19      1.0000 0.15610  0.44410  0.85450  Biso   1.000  N
  N20      1.0000 0.34390  0.94410  0.64550  Biso   1.000  N
  N21      1.0000 0.96450  0.55700  0.31500  Biso   1.000  N
  N22      1.0000 0.53550  0.05700  0.18500  Biso   1.000  N
  N23      1.0000 0.03550  0.44300  0.68500  Biso   1.000  N
  N24      1.0000 0.46450  0.94300  0.81500  Biso   1.000  N
  N25      1.0000 0.53820  0.34380  0.22840  Biso   1.000  N
  N26      1.0000 0.96180  0.84380  0.27160  Biso   1.000  N
  N27      1.0000 0.46180  0.65620  0.77160  Biso   1.000  N
  N28      1.0000 0.03820  0.15620  0.72840  Biso   1.000  N
  C1       1.0000 0.40460  0.23090  0.03930  Biso   1.000  C
  C2       1.0000 0.09540  0.73090  0.46070  Biso   1.000  C
  C3       1.0000 0.59540  0.76910  0.96070  Biso   1.000  C
  C4       1.0000 0.90460  0.26910  0.53930  Biso   1.000  C
  H1       1.0000 0.40450  0.23650  0.99410  Biso   1.000  H
  H2       1.0000 0.09550  0.73650  0.50590  Biso   1.000  H
  H3       1.0000 0.59550  0.76350  0.00590  Biso   1.000  H
  H4       1.0000 0.90450  0.26350  0.49410  Biso   1.000  H
  H5       1.0000 0.35130  0.22560  0.04770  Biso   1.000  H
  H6       1.0000 0.14870  0.72560  0.45230  Biso   1.000  H
  H7       1.0000 0.64870  0.77440  0.95230  Biso   1.000  H
  H8       1.0000 0.85130  0.27440  0.54770  Biso   1.000  H
  C5       1.0000 0.30680  0.19390  0.21930  Biso   1.000  C
  C6       1.0000 0.19320  0.69390  0.28070  Biso   1.000  C
  C7       1.0000 0.69320  0.80610  0.78070  Biso   1.000  C
  C8       1.0000 0.80680  0.30610  0.71930  Biso   1.000  C
  H9       1.0000 0.27860  0.19850  0.17760  Biso   1.000  H
  H10      1.0000 0.22140  0.69850  0.32240  Biso   1.000  H
  H11      1.0000 0.72140  0.80150  0.82240  Biso   1.000  H
  H12      1.0000 0.77860  0.30150  0.67760  Biso   1.000  H
  H13      1.0000 0.26930  0.18450  0.24830  Biso   1.000  H
  H14      1.0000 0.23070  0.68450  0.25170  Biso   1.000  H
  H15      1.0000 0.73070  0.81550  0.75170  Biso   1.000  H
  H16      1.0000 0.76930  0.31550  0.74830  Biso   1.000  H
  C9       1.0000 0.62510  0.21450  0.23430  Biso   1.000  C
  C10      1.0000 0.87490  0.71450  0.26570  Biso   1.000  C
  C11      1.0000 0.37490  0.78550  0.76570  Biso   1.000  C
  C12      1.0000 0.12510  0.28550  0.73430  Biso   1.000  C
  C13      1.0000 0.69790  0.24130  0.25390  Biso   1.000  C
  C14      1.0000 0.80210  0.74130  0.24610  Biso   1.000  C
  C15      1.0000 0.30210  0.75870  0.74610  Biso   1.000  C
  C16      1.0000 0.19790  0.25870  0.75390  Biso   1.000  C
  C17      1.0000 0.72320  0.25110  0.31590  Biso   1.000  C
  C18      1.0000 0.77680  0.75110  0.18410  Biso   1.000  C
  C19      1.0000 0.27680  0.74890  0.68410  Biso   1.000  C
  C20      1.0000 0.22320  0.24890  0.81590  Biso   1.000  C
  C21      1.0000 0.67830  0.23330  0.36540  Biso   1.000  C
  C22      1.0000 0.82170  0.73330  0.13460  Biso   1.000  C
  C23      1.0000 0.32170  0.76670  0.63460  Biso   1.000  C
  C24      1.0000 0.17830  0.26670  0.86540  Biso   1.000  C
  C25      1.0000 0.02540  0.17570  0.12870  Biso   1.000  C
  C26      1.0000 0.47460  0.67570  0.37130  Biso   1.000  C
  C27      1.0000 0.97460  0.82430  0.87130  Biso   1.000  C
  C28      1.0000 0.52540  0.32430  0.62870  Biso   1.000  C
  C29      1.0000 0.99370  0.21080  0.17660  Biso   1.000  C
  C30      1.0000 0.50630  0.71080  0.32340  Biso   1.000  C
  C31      1.0000 0.00630  0.78920  0.82340  Biso   1.000  C
  C32      1.0000 0.49370  0.28920  0.67660  Biso   1.000  C
  C33      1.0000 0.01970  0.20530  0.23960  Biso   1.000  C
  C34      1.0000 0.48030  0.70530  0.26040  Biso   1.000  C
  C35      1.0000 0.98030  0.79470  0.76040  Biso   1.000  C
  C36      1.0000 0.51970  0.29470  0.73960  Biso   1.000  C
  C37      1.0000 0.08290  0.16700  0.26210  Biso   1.000  C
  C38      1.0000 0.41710  0.66700  0.23790  Biso   1.000  C
  C39      1.0000 0.91710  0.83300  0.73790  Biso   1.000  C
  C40      1.0000 0.58290  0.33300  0.76210  Biso   1.000  C
  C41      1.0000 0.94160  0.51200  0.29340  Biso   1.000  C
  C42      1.0000 0.55840  0.01200  0.20660  Biso   1.000  C
  C43      1.0000 0.05840  0.48800  0.70660  Biso   1.000  C
  C44      1.0000 0.44160  0.98800  0.79340  Biso   1.000  C
  C45      1.0000 0.91320  0.45500  0.26440  Biso   1.000  C
  C46      1.0000 0.58680  0.95500  0.23560  Biso   1.000  C
  C47      1.0000 0.08680  0.54500  0.73560  Biso   1.000  C
  C48      1.0000 0.41320  0.04500  0.76440  Biso   1.000  C
  C49      1.0000 0.87240  0.45530  0.20630  Biso   1.000  C
  C50      1.0000 0.62760  0.95530  0.29370  Biso   1.000  C
  C51      1.0000 0.12760  0.54470  0.79370  Biso   1.000  C
  C52      1.0000 0.37240  0.04470  0.70630  Biso   1.000  C
  C53      1.0000 0.85640  0.51130  0.17200  Biso   1.000  C
  C54      1.0000 0.64360  0.01130  0.32800  Biso   1.000  C
  C55      1.0000 0.14360  0.48870  0.82800  Biso   1.000  C
  C56      1.0000 0.35640  0.98870  0.67200  Biso   1.000  C
  C57      1.0000 0.58920  0.37280  0.24740  Biso   1.000  C
  C58      1.0000 0.91080  0.87280  0.25260  Biso   1.000  C
  C59      1.0000 0.41080  0.62720  0.75260  Biso   1.000  C
  C60      1.0000 0.08920  0.12720  0.74740  Biso   1.000  C
  C61      1.0000 0.65650  0.40980  0.27110  Biso   1.000  C
  C62      1.0000 0.84350  0.90980  0.22890  Biso   1.000  C
  C63      1.0000 0.34350  0.59020  0.72890  Biso   1.000  C
  C64      1.0000 0.15650  0.09020  0.77110  Biso   1.000  C
  H17      1.0000 0.66840  0.40330  0.31570  Biso   1.000  H
  H18      1.0000 0.83160  0.90330  0.18430  Biso   1.000  H
  H19      1.0000 0.33160  0.59670  0.68430  Biso   1.000  H
  H20      1.0000 0.16840  0.09670  0.81570  Biso   1.000  H
  H21      1.0000 0.64500  0.45240  0.26320  Biso   1.000  H
  H22      1.0000 0.85500  0.95240  0.23680  Biso   1.000  H
  H23      1.0000 0.35500  0.54760  0.73680  Biso   1.000  H
  H24      1.0000 0.14500  0.04760  0.76320  Biso   1.000  H
  H25      1.0000 0.70010  0.39820  0.24980  Biso   1.000  H
  H26      1.0000 0.79990  0.89820  0.25020  Biso   1.000  H
  H27      1.0000 0.29990  0.60180  0.75020  Biso   1.000  H
  H28      1.0000 0.20010  0.10180  0.74980  Biso   1.000  H
  C65      1.0000 0.26900  0.31910  0.22540  Biso   1.000  C
  C66      1.0000 0.23100  0.81910  0.27460  Biso   1.000  C
  C67      1.0000 0.73100  0.68090  0.77460  Biso   1.000  C
  C68      1.0000 0.76900  0.18090  0.72540  Biso   1.000  C
  C69      1.0000 0.19670  0.30870  0.24420  Biso   1.000  C
  C70      1.0000 0.30330  0.80870  0.25580  Biso   1.000  C
  C71      1.0000 0.80330  0.69130  0.75580  Biso   1.000  C
  C72      1.0000 0.69670  0.19130  0.74420  Biso   1.000  C
  H29      1.0000 0.18970  0.27490  0.26950  Biso   1.000  H
  H30      1.0000 0.31030  0.77490  0.23050  Biso   1.000  H
  H31      1.0000 0.81030  0.72510  0.73050  Biso   1.000  H
  H32      1.0000 0.68970  0.22510  0.76950  Biso   1.000  H
  C73      1.0000 0.13420  0.34680  0.22680  Biso   1.000  C
  C74      1.0000 0.36580  0.84680  0.27320  Biso   1.000  C
  C75      1.0000 0.86580  0.65320  0.77320  Biso   1.000  C
  C76      1.0000 0.63420  0.15320  0.72680  Biso   1.000  C
  H33      1.0000 0.08610  0.33840  0.24010  Biso   1.000  H
  H34      1.0000 0.41390  0.83840  0.25990  Biso   1.000  H
  H35      1.0000 0.91390  0.66160  0.75990  Biso   1.000  H
  H36      1.0000 0.58610  0.16160  0.74010  Biso   1.000  H
  C77      1.0000 0.14360  0.39640  0.19020  Biso   1.000  C
  C78      1.0000 0.35640  0.89640  0.30980  Biso   1.000  C
  C79      1.0000 0.85640  0.60360  0.80980  Biso   1.000  C
  C80      1.0000 0.64360  0.10360  0.69020  Biso   1.000  C
  H37      1.0000 0.10170  0.42210  0.17820  Biso   1.000  H
  H38      1.0000 0.39830  0.92210  0.32180  Biso   1.000  H
  H39      1.0000 0.89830  0.57790  0.82180  Biso   1.000  H
  H40      1.0000 0.60170  0.07790  0.67820  Biso   1.000  H
  C81      1.0000 0.21420  0.40880  0.17110  Biso   1.000  C
  C82      1.0000 0.28580  0.90880  0.32890  Biso   1.000  C
  C83      1.0000 0.78580  0.59120  0.82890  Biso   1.000  C
  C84      1.0000 0.71420  0.09120  0.67110  Biso   1.000  C
  H41      1.0000 0.22070  0.44280  0.14580  Biso   1.000  H
  H42      1.0000 0.27930  0.94280  0.35420  Biso   1.000  H
  H43      1.0000 0.77930  0.55720  0.85420  Biso   1.000  H
  H44      1.0000 0.72070  0.05720  0.64580  Biso   1.000  H
  C85      1.0000 0.27690  0.37040  0.18960  Biso   1.000  C
  C86      1.0000 0.22310  0.87040  0.31040  Biso   1.000  C
  C87      1.0000 0.72310  0.62960  0.81040  Biso   1.000  C
  C88      1.0000 0.77690  0.12960  0.68960  Biso   1.000  C
  H45      1.0000 0.32530  0.37980  0.17740  Biso   1.000  H
  H46      1.0000 0.17470  0.87980  0.32260  Biso   1.000  H
  H47      1.0000 0.67470  0.62020  0.82260  Biso   1.000  H
  H48      1.0000 0.82530  0.12020  0.67740  Biso   1.000  H
  C89      1.0000 0.37020  0.26630  0.32900  Biso   1.000  C
  C90      1.0000 0.12980  0.76630  0.17100  Biso   1.000  C
  C91      1.0000 0.62980  0.73370  0.67100  Biso   1.000  C
  C92      1.0000 0.87020  0.23370  0.82900  Biso   1.000  C
  C93      1.0000 0.32530  0.23420  0.36720  Biso   1.000  C
  C94      1.0000 0.17470  0.73420  0.13280  Biso   1.000  C
  C95      1.0000 0.67470  0.76580  0.63280  Biso   1.000  C
  C96      1.0000 0.82530  0.26580  0.86720  Biso   1.000  C
  H49      1.0000 0.28360  0.21100  0.34910  Biso   1.000  H
  H50      1.0000 0.21640  0.71100  0.15090  Biso   1.000  H
  H51      1.0000 0.71640  0.78900  0.65090  Biso   1.000  H
  H52      1.0000 0.78360  0.28900  0.84910  Biso   1.000  H
  C97      1.0000 0.34180  0.23650  0.43240  Biso   1.000  C
  C98      1.0000 0.15820  0.73650  0.06760  Biso   1.000  C
  C99      1.0000 0.65820  0.76350  0.56760  Biso   1.000  C
  C100     1.0000 0.84180  0.26350  0.93240  Biso   1.000  C
  H53      1.0000 0.31240  0.21350  0.45770  Biso   1.000  H
  H54      1.0000 0.18760  0.71350  0.04230  Biso   1.000  H
  H55      1.0000 0.68760  0.78650  0.54230  Biso   1.000  H
  H56      1.0000 0.81240  0.28650  0.95770  Biso   1.000  H
  C101     1.0000 0.40020  0.27150  0.45920  Biso   1.000  C
  C102     1.0000 0.09980  0.77150  0.04080  Biso   1.000  C
  C103     1.0000 0.59980  0.72850  0.54080  Biso   1.000  C
  C104     1.0000 0.90020  0.22850  0.95920  Biso   1.000  C
  H57      1.0000 0.41020  0.27300  0.50300  Biso   1.000  H
  H58      1.0000 0.08980  0.77300  0.99700  Biso   1.000  H
  H59      1.0000 0.58980  0.72700  0.49700  Biso   1.000  H
  H60      1.0000 0.91020  0.22700  0.00300  Biso   1.000  H
  C105     1.0000 0.44420  0.30430  0.42350  Biso   1.000  C
  C106     1.0000 0.05580  0.80430  0.07650  Biso   1.000  C
  C107     1.0000 0.55580  0.69570  0.57650  Biso   1.000  C
  C108     1.0000 0.94420  0.19570  0.92350  Biso   1.000  C
  H61      1.0000 0.48390  0.32900  0.44250  Biso   1.000  H
  H62      1.0000 0.01610  0.82900  0.05750  Biso   1.000  H
  H63      1.0000 0.51610  0.67100  0.55750  Biso   1.000  H
  H64      1.0000 0.98390  0.17100  0.94250  Biso   1.000  H
  C109     1.0000 0.42980  0.30100  0.35770  Biso   1.000  C
  C110     1.0000 0.07020  0.80100  0.14230  Biso   1.000  C
  C111     1.0000 0.57020  0.69900  0.64230  Biso   1.000  C
  C112     1.0000 0.92980  0.19900  0.85770  Biso   1.000  C
  H65      1.0000 0.46120  0.32270  0.33300  Biso   1.000  H
  H66      1.0000 0.03880  0.82270  0.16700  Biso   1.000  H
  H67      1.0000 0.53880  0.67730  0.66700  Biso   1.000  H
  H68      1.0000 0.96120  0.17730  0.83300  Biso   1.000  H
  C113     1.0000 0.38800  0.10300  0.30010  Biso   1.000  C
  C114     1.0000 0.11200  0.60300  0.19990  Biso   1.000  C
  C115     1.0000 0.61200  0.89700  0.69990  Biso   1.000  C
  C116     1.0000 0.88800  0.39700  0.80010  Biso   1.000  C
  C117     1.0000 0.32780  0.07950  0.33060  Biso   1.000  C
  C118     1.0000 0.17220  0.57950  0.16940  Biso   1.000  C
  C119     1.0000 0.67220  0.92050  0.66940  Biso   1.000  C
  C120     1.0000 0.82780  0.42050  0.83060  Biso   1.000  C
  H69      1.0000 0.27880  0.07450  0.30860  Biso   1.000  H
  H70      1.0000 0.22120  0.57450  0.19140  Biso   1.000  H
  H71      1.0000 0.72120  0.92550  0.69140  Biso   1.000  H
  H72      1.0000 0.77880  0.42550  0.80860  Biso   1.000  H
  C121     1.0000 0.34100  0.06330  0.39440  Biso   1.000  C
  C122     1.0000 0.15900  0.56330  0.10560  Biso   1.000  C
  C123     1.0000 0.65900  0.93670  0.60560  Biso   1.000  C
  C124     1.0000 0.84100  0.43670  0.89440  Biso   1.000  C
  H73      1.0000 0.30070  0.04770  0.41490  Biso   1.000  H
  H74      1.0000 0.19930  0.54770  0.08510  Biso   1.000  H
  H75      1.0000 0.69930  0.95230  0.58510  Biso   1.000  H
  H76      1.0000 0.80070  0.45230  0.91490  Biso   1.000  H
  C125     1.0000 0.41380  0.07040  0.42680  Biso   1.000  C
  C126     1.0000 0.08620  0.57040  0.07320  Biso   1.000  C
  C127     1.0000 0.58620  0.92960  0.57320  Biso   1.000  C
  C128     1.0000 0.91380  0.42960  0.92680  Biso   1.000  C
  H77      1.0000 0.42250  0.05970  0.46930  Biso   1.000  H
  H78      1.0000 0.07750  0.55970  0.03070  Biso   1.000  H
  H79      1.0000 0.57750  0.94030  0.53070  Biso   1.000  H
  H80      1.0000 0.92250  0.44030  0.96930  Biso   1.000  H
  C129     1.0000 0.47210  0.09280  0.39720  Biso   1.000  C
  C130     1.0000 0.02790  0.59280  0.10280  Biso   1.000  C
  C131     1.0000 0.52790  0.90720  0.60280  Biso   1.000  C
  C132     1.0000 0.97210  0.40720  0.89720  Biso   1.000  C
  H81      1.0000 0.52120  0.09710  0.41940  Biso   1.000  H
  H82      1.0000 0.97880  0.59710  0.08060  Biso   1.000  H
  H83      1.0000 0.47880  0.90290  0.58060  Biso   1.000  H
  H84      1.0000 0.02120  0.40290  0.91940  Biso   1.000  H
  C133     1.0000 0.46030  0.10980  0.33360  Biso   1.000  C
  C134     1.0000 0.03970  0.60980  0.16640  Biso   1.000  C
  C135     1.0000 0.53970  0.89020  0.66640  Biso   1.000  C
  C136     1.0000 0.96030  0.39020  0.83360  Biso   1.000  C
  H85      1.0000 0.50110  0.12560  0.31380  Biso   1.000  H
  H86      1.0000 0.99890  0.62560  0.18620  Biso   1.000  H
  H87      1.0000 0.49890  0.87440  0.68620  Biso   1.000  H
  H88      1.0000 0.00110  0.37440  0.81380  Biso   1.000  H
  C137     1.0000 0.31050  0.06920  0.17820  Biso   1.000  C
  C138     1.0000 0.18950  0.56920  0.32180  Biso   1.000  C
  C139     1.0000 0.68950  0.93080  0.82180  Biso   1.000  C
  C140     1.0000 0.81050  0.43080  0.67820  Biso   1.000  C
  C141     1.0000 0.33100  0.00870  0.18730  Biso   1.000  C
  C142     1.0000 0.16900  0.50870  0.31270  Biso   1.000  C
  C143     1.0000 0.66900  0.99130  0.81270  Biso   1.000  C
  C144     1.0000 0.83100  0.49130  0.68730  Biso   1.000  C
  H89      1.0000 0.37430  0.99870  0.21520  Biso   1.000  H
  H90      1.0000 0.12570  0.49870  0.28480  Biso   1.000  H
  H91      1.0000 0.62570  0.00130  0.78480  Biso   1.000  H
  H92      1.0000 0.87430  0.50130  0.71520  Biso   1.000  H
  C145     1.0000 0.28790  0.96220  0.15540  Biso   1.000  C
  C146     1.0000 0.21210  0.46220  0.34460  Biso   1.000  C
  C147     1.0000 0.71210  0.03780  0.84460  Biso   1.000  C
  C148     1.0000 0.78790  0.53780  0.65540  Biso   1.000  C
  H93      1.0000 0.30080  0.92150  0.16380  Biso   1.000  H
  H94      1.0000 0.19920  0.42150  0.33620  Biso   1.000  H
  H95      1.0000 0.69920  0.07850  0.83620  Biso   1.000  H
  H96      1.0000 0.80080  0.57850  0.66380  Biso   1.000  H
  C149     1.0000 0.22770  0.97610  0.11250  Biso   1.000  C
  C150     1.0000 0.27230  0.47610  0.38750  Biso   1.000  C
  C151     1.0000 0.77230  0.02390  0.88750  Biso   1.000  C
  C152     1.0000 0.72770  0.52390  0.61250  Biso   1.000  C
  H97      1.0000 0.20000  0.94500  0.09040  Biso   1.000  H
  H98      1.0000 0.30000  0.44500  0.40960  Biso   1.000  H
  H99      1.0000 0.80000  0.05500  0.90960  Biso   1.000  H
  H100     1.0000 0.70000  0.55500  0.59040  Biso   1.000  H
  C153     1.0000 0.20690  0.03600  0.10090  Biso   1.000  C
  C154     1.0000 0.29310  0.53600  0.39910  Biso   1.000  C
  C155     1.0000 0.79310  0.96400  0.89910  Biso   1.000  C
  C156     1.0000 0.70690  0.46400  0.60090  Biso   1.000  C
  H101     1.0000 0.16530  0.04550  0.07110  Biso   1.000  H
  H102     1.0000 0.33470  0.54550  0.42890  Biso   1.000  H
  H103     1.0000 0.83470  0.95450  0.92890  Biso   1.000  H
  H104     1.0000 0.66530  0.45450  0.57110  Biso   1.000  H
  C157     1.0000 0.24830  0.08240  0.13410  Biso   1.000  C
  C158     1.0000 0.25170  0.58240  0.36590  Biso   1.000  C
  C159     1.0000 0.75170  0.91760  0.86590  Biso   1.000  C
  C160     1.0000 0.74830  0.41760  0.63410  Biso   1.000  C
  H105     1.0000 0.23380  0.12300  0.12640  Biso   1.000  H
  H106     1.0000 0.26620  0.62300  0.37360  Biso   1.000  H
  H107     1.0000 0.76620  0.87700  0.87360  Biso   1.000  H
  H108     1.0000 0.73380  0.37700  0.62640  Biso   1.000  H
  C161     1.0000 0.40160  0.10130  0.01980  Biso   1.000  C
  C162     1.0000 0.09840  0.60130  0.48020  Biso   1.000  C
  C163     1.0000 0.59840  0.89870  0.98020  Biso   1.000  C
  C164     1.0000 0.90160  0.39870  0.51980  Biso   1.000  C
  C165     1.0000 0.42040  0.04110  0.03440  Biso   1.000  C
  C166     1.0000 0.07960  0.54110  0.46560  Biso   1.000  C
  C167     1.0000 0.57960  0.95890  0.96560  Biso   1.000  C
  C168     1.0000 0.92040  0.45890  0.53440  Biso   1.000  C
  H109     1.0000 0.46040  0.03250  0.06610  Biso   1.000  H
  H110     1.0000 0.03960  0.53250  0.43390  Biso   1.000  H
  H111     1.0000 0.53960  0.96750  0.93390  Biso   1.000  H
  H112     1.0000 0.96040  0.46750  0.56610  Biso   1.000  H
  C169     1.0000 0.38060  0.99300  0.00240  Biso   1.000  C
  C170     1.0000 0.11940  0.49300  0.49760  Biso   1.000  C
  C171     1.0000 0.61940  0.00700  0.99760  Biso   1.000  C
  C172     1.0000 0.88060  0.50700  0.50240  Biso   1.000  C
  H113     1.0000 0.39300  0.95280  0.01360  Biso   1.000  H
  H114     1.0000 0.10700  0.45280  0.48640  Biso   1.000  H
  H115     1.0000 0.60700  0.04720  0.98640  Biso   1.000  H
  H116     1.0000 0.89300  0.54720  0.51360  Biso   1.000  H
  C173     1.0000 0.32380  0.00480  0.95520  Biso   1.000  C
  C174     1.0000 0.17620  0.50480  0.54480  Biso   1.000  C
  C175     1.0000 0.67620  0.99520  0.04480  Biso   1.000  C
  C176     1.0000 0.82380  0.49520  0.45520  Biso   1.000  C
  H117     1.0000 0.29890  0.97280  0.93230  Biso   1.000  H
  H118     1.0000 0.20110  0.47280  0.56770  Biso   1.000  H
  H119     1.0000 0.70110  0.02720  0.06770  Biso   1.000  H
  H120     1.0000 0.79890  0.52720  0.43230  Biso   1.000  H
  C177     1.0000 0.30370  0.06300  0.94150  Biso   1.000  C
  C178     1.0000 0.19630  0.56300  0.55850  Biso   1.000  C
  C179     1.0000 0.69630  0.93700  0.05850  Biso   1.000  C
  C180     1.0000 0.80370  0.43700  0.44150  Biso   1.000  C
  H121     1.0000 0.26340  0.07110  0.90990  Biso   1.000  H
  H122     1.0000 0.23660  0.57110  0.59010  Biso   1.000  H
  H123     1.0000 0.73660  0.92890  0.09010  Biso   1.000  H
  H124     1.0000 0.76340  0.42890  0.40990  Biso   1.000  H
  C181     1.0000 0.34200  0.11120  0.97370  Biso   1.000  C
  C182     1.0000 0.15800  0.61120  0.52630  Biso   1.000  C
  C183     1.0000 0.65800  0.88880  0.02630  Biso   1.000  C
  C184     1.0000 0.84200  0.38880  0.47370  Biso   1.000  C
  H125     1.0000 0.32680  0.15120  0.96350  Biso   1.000  H
  H126     1.0000 0.17320  0.65120  0.53650  Biso   1.000  H
  H127     1.0000 0.67320  0.84880  0.03650  Biso   1.000  H
  H128     1.0000 0.82680  0.34880  0.46350  Biso   1.000  H
  C185     1.0000 0.54550  0.16540  0.02130  Biso   1.000  C
  C186     1.0000 0.95450  0.66540  0.47870  Biso   1.000  C
  C187     1.0000 0.45450  0.83460  0.97870  Biso   1.000  C
  C188     1.0000 0.04550  0.33460  0.52130  Biso   1.000  C
  C189     1.0000 0.53970  0.16730  0.95520  Biso   1.000  C
  C190     1.0000 0.96030  0.66730  0.54480  Biso   1.000  C
  C191     1.0000 0.46030  0.83270  0.04480  Biso   1.000  C
  C192     1.0000 0.03970  0.33270  0.45520  Biso   1.000  C
  H129     1.0000 0.49100  0.16660  0.93180  Biso   1.000  H
  H130     1.0000 0.00900  0.66660  0.56820  Biso   1.000  H
  H131     1.0000 0.50900  0.83340  0.06820  Biso   1.000  H
  H132     1.0000 0.99100  0.33340  0.43180  Biso   1.000  H
  C193     1.0000 0.60520  0.17000  0.92460  Biso   1.000  C
  C194     1.0000 0.89480  0.67000  0.57540  Biso   1.000  C
  C195     1.0000 0.39480  0.83000  0.07540  Biso   1.000  C
  C196     1.0000 0.10520  0.33000  0.42460  Biso   1.000  C
  H133     1.0000 0.60070  0.17040  0.88060  Biso   1.000  H
  H134     1.0000 0.89930  0.67040  0.61940  Biso   1.000  H
  H135     1.0000 0.39930  0.82960  0.11940  Biso   1.000  H
  H136     1.0000 0.10070  0.32960  0.38060  Biso   1.000  H
  C197     1.0000 0.67700  0.17220  0.95830  Biso   1.000  C
  C198     1.0000 0.82300  0.67220  0.54170  Biso   1.000  C
  C199     1.0000 0.32300  0.82780  0.04170  Biso   1.000  C
  C200     1.0000 0.17700  0.32780  0.45830  Biso   1.000  C
  H137     1.0000 0.72100  0.17500  0.93730  Biso   1.000  H
  H138     1.0000 0.77900  0.67500  0.56270  Biso   1.000  H
  H139     1.0000 0.27900  0.82500  0.06270  Biso   1.000  H
  H140     1.0000 0.22100  0.32500  0.43730  Biso   1.000  H
  C201     1.0000 0.68470  0.17030  0.02330  Biso   1.000  C
  C202     1.0000 0.81530  0.67030  0.47670  Biso   1.000  C
  C203     1.0000 0.31530  0.82970  0.97670  Biso   1.000  C
  C204     1.0000 0.18470  0.32970  0.52330  Biso   1.000  C
  H141     1.0000 0.73350  0.17130  0.04630  Biso   1.000  H
  H142     1.0000 0.76650  0.67130  0.45370  Biso   1.000  H
  H143     1.0000 0.26650  0.82870  0.95370  Biso   1.000  H
  H144     1.0000 0.23350  0.32870  0.54630  Biso   1.000  H
  C205     1.0000 0.61810  0.16670  0.05440  Biso   1.000  C
  C206     1.0000 0.88190  0.66670  0.44560  Biso   1.000  C
  C207     1.0000 0.38190  0.83330  0.94560  Biso   1.000  C
  C208     1.0000 0.11810  0.33330  0.55440  Biso   1.000  C
  H145     1.0000 0.62310  0.16520  0.09830  Biso   1.000  H
  H146     1.0000 0.87690  0.66520  0.40170  Biso   1.000  H
  H147     1.0000 0.37690  0.83480  0.90170  Biso   1.000  H
  H148     1.0000 0.12310  0.33480  0.59830  Biso   1.000  H
  C209     1.0000 0.37710  0.36060  0.04880  Biso   1.000  C
  C210     1.0000 0.12290  0.86060  0.45120  Biso   1.000  C
  C211     1.0000 0.62290  0.63940  0.95120  Biso   1.000  C
  C212     1.0000 0.87710  0.13940  0.54880  Biso   1.000  C
  C213     1.0000 0.31050  0.35200  0.00770  Biso   1.000  C
  C214     1.0000 0.18950  0.85200  0.49230  Biso   1.000  C
  C215     1.0000 0.68950  0.64800  0.99230  Biso   1.000  C
  C216     1.0000 0.81050  0.14800  0.50770  Biso   1.000  C
  H149     1.0000 0.29630  0.31250  0.99480  Biso   1.000  H
  H150     1.0000 0.20370  0.81250  0.50520  Biso   1.000  H
  H151     1.0000 0.70370  0.68750  0.00520  Biso   1.000  H
  H152     1.0000 0.79630  0.18750  0.49480  Biso   1.000  H
  C217     1.0000 0.26450  0.40050  0.98550  Biso   1.000  C
  C218     1.0000 0.23550  0.90050  0.51450  Biso   1.000  C
  C219     1.0000 0.73550  0.59950  0.01450  Biso   1.000  C
  C220     1.0000 0.76450  0.09950  0.48550  Biso   1.000  C
  H153     1.0000 0.22000  0.39340  0.95790  Biso   1.000  H
  H154     1.0000 0.28000  0.89340  0.54210  Biso   1.000  H
  H155     1.0000 0.78000  0.60660  0.04210  Biso   1.000  H
  H156     1.0000 0.72000  0.10660  0.45790  Biso   1.000  H
  C221     1.0000 0.28360  0.45850  0.00370  Biso   1.000  C
  C222     1.0000 0.21640  0.95850  0.49630  Biso   1.000  C
  C223     1.0000 0.71640  0.54150  0.99630  Biso   1.000  C
  C224     1.0000 0.78360  0.04150  0.50370  Biso   1.000  C
  H157     1.0000 0.25280  0.49120  0.98830  Biso   1.000  H
  H158     1.0000 0.24720  0.99120  0.51170  Biso   1.000  H
  H159     1.0000 0.74720  0.50880  0.01170  Biso   1.000  H
  H160     1.0000 0.75280  0.00880  0.48830  Biso   1.000  H
  C225     1.0000 0.34920  0.46850  0.04510  Biso   1.000  C
  C226     1.0000 0.15080  0.96850  0.45490  Biso   1.000  C
  C227     1.0000 0.65080  0.53150  0.95490  Biso   1.000  C
  C228     1.0000 0.84920  0.03150  0.54510  Biso   1.000  C
  H161     1.0000 0.36220  0.50820  0.05820  Biso   1.000  H
  H162     1.0000 0.13780  0.00820  0.44180  Biso   1.000  H
  H163     1.0000 0.63780  0.49180  0.94180  Biso   1.000  H
  H164     1.0000 0.86220  0.99180  0.55820  Biso   1.000  H
  C229     1.0000 0.39610  0.42000  0.06750  Biso   1.000  C
  C230     1.0000 0.10390  0.92000  0.43250  Biso   1.000  C
  C231     1.0000 0.60390  0.58000  0.93250  Biso   1.000  C
  C232     1.0000 0.89610  0.08000  0.56750  Biso   1.000  C
  H165     1.0000 0.44050  0.42740  0.09530  Biso   1.000  H
  H166     1.0000 0.05950  0.92740  0.40470  Biso   1.000  H
  H167     1.0000 0.55950  0.57260  0.90470  Biso   1.000  H
  H168     1.0000 0.94050  0.07260  0.59530  Biso   1.000  H
  C233     1.0000 0.52880  0.31970  0.04040  Biso   1.000  C
  C234     1.0000 0.97120  0.81970  0.45960  Biso   1.000  C
  C235     1.0000 0.47120  0.68030  0.95960  Biso   1.000  C
  C236     1.0000 0.02880  0.18030  0.54040  Biso   1.000  C
  C237     1.0000 0.52220  0.32990  0.97570  Biso   1.000  C
  C238     1.0000 0.97780  0.82990  0.52430  Biso   1.000  C
  C239     1.0000 0.47780  0.67010  0.02430  Biso   1.000  C
  C240     1.0000 0.02220  0.17010  0.47570  Biso   1.000  C
  H169     1.0000 0.47450  0.32520  0.95140  Biso   1.000  H
  H170     1.0000 0.02550  0.82520  0.54860  Biso   1.000  H
  H171     1.0000 0.52550  0.67480  0.04860  Biso   1.000  H
  H172     1.0000 0.97450  0.17480  0.45140  Biso   1.000  H
  C241     1.0000 0.58660  0.34700  0.94740  Biso   1.000  C
  C242     1.0000 0.91340  0.84700  0.55260  Biso   1.000  C
  C243     1.0000 0.41340  0.65300  0.05260  Biso   1.000  C
  C244     1.0000 0.08660  0.15300  0.44740  Biso   1.000  C
  H173     1.0000 0.58170  0.35360  0.90400  Biso   1.000  H
  H174     1.0000 0.91830  0.85360  0.59600  Biso   1.000  H
  H175     1.0000 0.41830  0.64640  0.09600  Biso   1.000  H
  H176     1.0000 0.08170  0.14640  0.40400  Biso   1.000  H
  C245     1.0000 0.65700  0.35460  0.98160  Biso   1.000  C
  C246     1.0000 0.84300  0.85460  0.51840  Biso   1.000  C
  C247     1.0000 0.34300  0.64540  0.01840  Biso   1.000  C
  C248     1.0000 0.15700  0.14540  0.48160  Biso   1.000  C
  H177     1.0000 0.69980  0.36640  0.96190  Biso   1.000  H
  H178     1.0000 0.80020  0.86640  0.53810  Biso   1.000  H
  H179     1.0000 0.30020  0.63360  0.03810  Biso   1.000  H
  H180     1.0000 0.19980  0.13360  0.46190  Biso   1.000  H
  C249     1.0000 0.66400  0.34470  0.04490  Biso   1.000  C
  C250     1.0000 0.83600  0.84470  0.45510  Biso   1.000  C
  C251     1.0000 0.33600  0.65530  0.95510  Biso   1.000  C
  C252     1.0000 0.16400  0.15530  0.54490  Biso   1.000  C
  H181     1.0000 0.71190  0.34960  0.06880  Biso   1.000  H
  H182     1.0000 0.78810  0.84960  0.43120  Biso   1.000  H
  H183     1.0000 0.28810  0.65040  0.93120  Biso   1.000  H
  H184     1.0000 0.21190  0.15040  0.56880  Biso   1.000  H
  C253     1.0000 0.60020  0.32740  0.07410  Biso   1.000  C
  C254     1.0000 0.89980  0.82740  0.42590  Biso   1.000  C
  C255     1.0000 0.39980  0.67260  0.92590  Biso   1.000  C
  C256     1.0000 0.10020  0.17260  0.57410  Biso   1.000  C
  H185     1.0000 0.60580  0.32080  0.11750  Biso   1.000  H
  H186     1.0000 0.89420  0.82080  0.38250  Biso   1.000  H
  H187     1.0000 0.39420  0.67920  0.88250  Biso   1.000  H
  H188     1.0000 0.10580  0.17920  0.61750  Biso   1.000  H
  O1       1.0000 0.01880  0.03930  0.85440  Biso   1.000  O
  O2       1.0000 0.48120  0.53930  0.64560  Biso   1.000  O
  O3       1.0000 0.98120  0.96070  0.14560  Biso   1.000  O
  O4       1.0000 0.51880  0.46070  0.35440  Biso   1.000  O
  C257     1.0000 0.05000  0.01860  0.91580  Biso   1.000  C
  C258     1.0000 0.45000  0.51860  0.58420  Biso   1.000  C
  C259     1.0000 0.95000  0.98140  0.08420  Biso   1.000  C
  C260     1.0000 0.55000  0.48140  0.41580  Biso   1.000  C
  H189     1.0000 0.08200  0.98290  0.91260  Biso   1.000  H
  H190     1.0000 0.41800  0.48290  0.58740  Biso   1.000  H
  H191     1.0000 0.91800  0.01710  0.08740  Biso   1.000  H
  H192     1.0000 0.58200  0.51710  0.41260  Biso   1.000  H
  H193     1.0000 0.00800  0.00810  0.94060  Biso   1.000  H
  H194     1.0000 0.49200  0.50810  0.55940  Biso   1.000  H
  H195     1.0000 0.99200  0.99190  0.05940  Biso   1.000  H
  H196     1.0000 0.50800  0.49190  0.44060  Biso   1.000  H
  C261     1.0000 0.09600  0.07080  0.94570  Biso   1.000  C
  C262     1.0000 0.40400  0.57080  0.55430  Biso   1.000  C
  C263     1.0000 0.90400  0.92920  0.05430  Biso   1.000  C
  C264     1.0000 0.59600  0.42920  0.44570  Biso   1.000  C
  H197     1.0000 0.09440  0.10460  0.91670  Biso   1.000  H
  H198     1.0000 0.40560  0.60460  0.58330  Biso   1.000  H
  H199     1.0000 0.90560  0.89540  0.08330  Biso   1.000  H
  H200     1.0000 0.59440  0.39540  0.41670  Biso   1.000  H
  H201     1.0000 0.14940  0.05800  0.95580  Biso   1.000  H
  H202     1.0000 0.35060  0.55800  0.54420  Biso   1.000  H
  H203     1.0000 0.85060  0.94200  0.04420  Biso   1.000  H
  H204     1.0000 0.64940  0.44200  0.45580  Biso   1.000  H
  H205     1.0000 0.07570  0.08320  0.98360  Biso   1.000  H
  H206     1.0000 0.42430  0.58320  0.51640  Biso   1.000  H
  H207     1.0000 0.92430  0.91680  0.01640  Biso   1.000  H
  H208     1.0000 0.57570  0.41680  0.48360  Biso   1.000  H
  C265     1.0000 0.98400  0.99070  0.81770  Biso   1.000  C
  C266     1.0000 0.51600  0.49070  0.68230  Biso   1.000  C
  C267     1.0000 0.01600  0.00930  0.18230  Biso   1.000  C
  C268     1.0000 0.48400  0.50930  0.31770  Biso   1.000  C
  H209     1.0000 0.95740  0.96340  0.84410  Biso   1.000  H
  H210     1.0000 0.54260  0.46340  0.65590  Biso   1.000  H
  H211     1.0000 0.04260  0.03660  0.15590  Biso   1.000  H
  H212     1.0000 0.45740  0.53660  0.34410  Biso   1.000  H
  H213     1.0000 0.02320  0.96740  0.79910  Biso   1.000  H
  H214     1.0000 0.47680  0.46740  0.70090  Biso   1.000  H
  H215     1.0000 0.97680  0.03260  0.20090  Biso   1.000  H
  H216     1.0000 0.52320  0.53260  0.29910  Biso   1.000  H
  C269     1.0000 0.92750  0.01750  0.76710  Biso   1.000  C
  C270     1.0000 0.57250  0.51750  0.73290  Biso   1.000  C
  C271     1.0000 0.07250  0.98250  0.23290  Biso   1.000  C
  C272     1.0000 0.42750  0.48250  0.26710  Biso   1.000  C
  H217     1.0000 0.87560  0.00760  0.77520  Biso   1.000  H
  H218     1.0000 0.62440  0.50760  0.72480  Biso   1.000  H
  H219     1.0000 0.12440  0.99240  0.22480  Biso   1.000  H
  H220     1.0000 0.37560  0.49240  0.27520  Biso   1.000  H
  H221     1.0000 0.93680  0.00090  0.72690  Biso   1.000  H
  H222     1.0000 0.56320  0.50090  0.77310  Biso   1.000  H
  H223     1.0000 0.06320  0.99910  0.27310  Biso   1.000  H
  H224     1.0000 0.43680  0.49910  0.22690  Biso   1.000  H
  H225     1.0000 0.93360  0.06110  0.76650  Biso   1.000  H
  H226     1.0000 0.56640  0.56110  0.73350  Biso   1.000  H
  H227     1.0000 0.06640  0.93890  0.23350  Biso   1.000  H
  H228     1.0000 0.43360  0.43890  0.26650  Biso   1.000  H
  O5       1.0000 0.64540  0.55260  0.21490  Biso   1.000  O
  O6       1.0000 0.85460  0.05260  0.28510  Biso   1.000  O
  O7       1.0000 0.35460  0.44740  0.78510  Biso   1.000  O
  O8       1.0000 0.14540  0.94740  0.71490  Biso   1.000  O
  C273     1.0000 0.57540  0.51600  0.12160  Biso   1.000  C
  C274     1.0000 0.92460  0.01600  0.37840  Biso   1.000  C
  C275     1.0000 0.42460  0.48400  0.87840  Biso   1.000  C
  C276     1.0000 0.07540  0.98400  0.62160  Biso   1.000  C
  H229     1.0000 0.55310  0.52760  0.07990  Biso   1.000  H
  H230     1.0000 0.94690  0.02760  0.42010  Biso   1.000  H
  H231     1.0000 0.44690  0.47240  0.92010  Biso   1.000  H
  H232     1.0000 0.05310  0.97240  0.57990  Biso   1.000  H
  H233     1.0000 0.53560  0.50050  0.14500  Biso   1.000  H
  H234     1.0000 0.96440  0.00050  0.35500  Biso   1.000  H
  H235     1.0000 0.46440  0.49950  0.85500  Biso   1.000  H
  H236     1.0000 0.03560  0.99950  0.64500  Biso   1.000  H
  H237     1.0000 0.61390  0.48490  0.11850  Biso   1.000  H
  H238     1.0000 0.88610  0.98490  0.38150  Biso   1.000  H
  H239     1.0000 0.38610  0.51510  0.88150  Biso   1.000  H
  H240     1.0000 0.11390  0.01510  0.61850  Biso   1.000  H
  C277     1.0000 0.61090  0.56850  0.15320  Biso   1.000  C
  C278     1.0000 0.88910  0.06850  0.34680  Biso   1.000  C
  C279     1.0000 0.38910  0.43150  0.84680  Biso   1.000  C
  C280     1.0000 0.11090  0.93150  0.65320  Biso   1.000  C
  H241     1.0000 0.65020  0.58480  0.12890  Biso   1.000  H
  H242     1.0000 0.84980  0.08480  0.37110  Biso   1.000  H
  H243     1.0000 0.34980  0.41520  0.87110  Biso   1.000  H
  H244     1.0000 0.15020  0.91520  0.62890  Biso   1.000  H
  H245     1.0000 0.57210  0.60000  0.15630  Biso   1.000  H
  H246     1.0000 0.92790  0.10000  0.34370  Biso   1.000  H
  H247     1.0000 0.42790  0.40000  0.84370  Biso   1.000  H
  H248     1.0000 0.07210  0.90000  0.65630  Biso   1.000  H
  C281     1.0000 0.67960  0.60100  0.25090  Biso   1.000  C
  C282     1.0000 0.82040  0.10100  0.24910  Biso   1.000  C
  C283     1.0000 0.32040  0.39900  0.74910  Biso   1.000  C
  C284     1.0000 0.17960  0.89900  0.75090  Biso   1.000  C
  H249     1.0000 0.64020  0.63120  0.25720  Biso   1.000  H
  H250     1.0000 0.85980  0.13120  0.24280  Biso   1.000  H
  H251     1.0000 0.35980  0.36880  0.74280  Biso   1.000  H
  H252     1.0000 0.14020  0.86880  0.75720  Biso   1.000  H
  H253     1.0000 0.71810  0.62050  0.22790  Biso   1.000  H
  H254     1.0000 0.78190  0.12050  0.27210  Biso   1.000  H
  H255     1.0000 0.28190  0.37950  0.77210  Biso   1.000  H
  H256     1.0000 0.21810  0.87950  0.72790  Biso   1.000  H
  C285     1.0000 0.71590  0.58080  0.31150  Biso   1.000  C
  C286     1.0000 0.78410  0.08080  0.18850  Biso   1.000  C
  C287     1.0000 0.28410  0.41920  0.68850  Biso   1.000  C
  C288     1.0000 0.21590  0.91920  0.81150  Biso   1.000  C
  H257     1.0000 0.74040  0.61500  0.33400  Biso   1.000  H
  H258     1.0000 0.75960  0.11500  0.16600  Biso   1.000  H
  H259     1.0000 0.25960  0.38500  0.66600  Biso   1.000  H
  H260     1.0000 0.24040  0.88500  0.83400  Biso   1.000  H
  H261     1.0000 0.75420  0.55030  0.30550  Biso   1.000  H
  H262     1.0000 0.74580  0.05030  0.19450  Biso   1.000  H
  H263     1.0000 0.24580  0.44970  0.69450  Biso   1.000  H
  H264     1.0000 0.25420  0.94970  0.80550  Biso   1.000  H
  H265     1.0000 0.67750  0.56360  0.33540  Biso   1.000  H
  H266     1.0000 0.82250  0.06360  0.16460  Biso   1.000  H
  H267     1.0000 0.32250  0.43640  0.66460  Biso   1.000  H
  H268     1.0000 0.17750  0.93640  0.83540  Biso   1.000  H
  N29      1.0000 0.21220  0.23950  0.07620  Biso   1.000  N
  N30      1.0000 0.28780  0.73950  0.42380  Biso   1.000  N
  N31      1.0000 0.78780  0.76050  0.92380  Biso   1.000  N
  N32      1.0000 0.71220  0.26050  0.57620  Biso   1.000  N
  C289     1.0000 0.09020  0.30770  0.04500  Biso   1.000  C
  C290     1.0000 0.40980  0.80770  0.45500  Biso   1.000  C
  C291     1.0000 0.90980  0.69230  0.95500  Biso   1.000  C
  C292     1.0000 0.59020  0.19230  0.54500  Biso   1.000  C
  H269     1.0000 0.06500  0.29450  0.00490  Biso   1.000  H
  H270     1.0000 0.43500  0.79450  0.49510  Biso   1.000  H
  H271     1.0000 0.93500  0.70550  0.99510  Biso   1.000  H
  H272     1.0000 0.56500  0.20550  0.50490  Biso   1.000  H
  H273     1.0000 0.10600  0.34970  0.04210  Biso   1.000  H
  H274     1.0000 0.39400  0.84970  0.45790  Biso   1.000  H
  H275     1.0000 0.89400  0.65030  0.95790  Biso   1.000  H
  H276     1.0000 0.60600  0.15030  0.54210  Biso   1.000  H
  H277     1.0000 0.05490  0.30410  0.07640  Biso   1.000  H
  H278     1.0000 0.44510  0.80410  0.42360  Biso   1.000  H
  H279     1.0000 0.94510  0.69590  0.92360  Biso   1.000  H
  H280     1.0000 0.55490  0.19590  0.57640  Biso   1.000  H
  C293     1.0000 0.15890  0.26920  0.06300  Biso   1.000  C
  C294     1.0000 0.34110  0.76920  0.43700  Biso   1.000  C
  C295     1.0000 0.84110  0.73080  0.93700  Biso   1.000  C
  C296     1.0000 0.65890  0.23080  0.56300  Biso   1.000  C
