data_image0
_cell_length_a       18.473
_cell_length_b       37.249
_cell_length_c       15.502
_cell_angle_alpha    90
_cell_angle_beta     90
_cell_angle_gamma    90

_symmetry_space_group_name_H-M    "P 1"
_symmetry_int_tables_number       1

loop_
  _symmetry_equiv_pos_as_xyz
  'x, y, z'

loop_
  _atom_site_label
  _atom_site_occupancy
  _atom_site_fract_x
  _atom_site_fract_y
  _atom_site_fract_z
  _atom_site_thermal_displace_type
  _atom_site_B_iso_or_equiv
  _atom_site_type_symbol
  Cu1      1.0000 0.28674  0.13092  0.50000  Biso   1.000  Cu
  Cu2      1.0000 0.78674  0.63092  0.00000  Biso   1.000  Cu
  Cu3      1.0000 0.71326  0.86908  0.50000  Biso   1.000  Cu
  Cu4      1.0000 0.21326  0.63092  0.50000  Biso   1.000  Cu
  Cu5      1.0000 0.78674  0.36908  0.50000  Biso   1.000  Cu
  Cu6      1.0000 0.21326  0.36908  0.00000  Biso   1.000  Cu
  Cu7      1.0000 0.71326  0.13092  0.00000  Biso   1.000  Cu
  Cu8      1.0000 0.28674  0.86908  0.00000  Biso   1.000  Cu
  Cu9      1.0000 0.41243  0.16261  0.50000  Biso   1.000  Cu
  Cu10     1.0000 0.91243  0.66261  0.00000  Biso   1.000  Cu
  Cu11     1.0000 0.58757  0.83739  0.50000  Biso   1.000  Cu
  Cu12     1.0000 0.08757  0.66261  0.50000  Biso   1.000  Cu
  Cu13     1.0000 0.91243  0.33739  0.50000  Biso   1.000  Cu
  Cu14     1.0000 0.08757  0.33739  0.00000  Biso   1.000  Cu
  Cu15     1.0000 0.58757  0.16261  0.00000  Biso   1.000  Cu
  Cu16     1.0000 0.41243  0.83739  0.00000  Biso   1.000  Cu
  Cu17     1.0000 0.30150  0.19477  0.41509  Biso   1.000  Cu
  Cu18     1.0000 0.80150  0.69477  0.91509  Biso   1.000  Cu
  Cu19     1.0000 0.69850  0.80523  0.41509  Biso   1.000  Cu
  Cu20     1.0000 0.19850  0.69477  0.58491  Biso   1.000  Cu
  Cu21     1.0000 0.80150  0.30523  0.58491  Biso   1.000  Cu
  Cu22     1.0000 0.19850  0.30523  0.91509  Biso   1.000  Cu
  Cu23     1.0000 0.69850  0.19477  0.08491  Biso   1.000  Cu
  Cu24     1.0000 0.30150  0.80523  0.08491  Biso   1.000  Cu
  Cu25     1.0000 0.69850  0.80523  0.58491  Biso   1.000  Cu
  Cu26     1.0000 0.19850  0.30523  0.08491  Biso   1.000  Cu
  Cu27     1.0000 0.30150  0.19477  0.58491  Biso   1.000  Cu
  Cu28     1.0000 0.80150  0.30523  0.41509  Biso   1.000  Cu
  Cu29     1.0000 0.19850  0.69477  0.41509  Biso   1.000  Cu
  Cu30     1.0000 0.80150  0.69477  0.08491  Biso   1.000  Cu
  Cu31     1.0000 0.30150  0.80523  0.91509  Biso   1.000  Cu
  Cu32     1.0000 0.69850  0.19477  0.91509  Biso   1.000  Cu
  Cu33     1.0000 0.18123  0.95594  0.50000  Biso   1.000  Cu
  Cu34     1.0000 0.68123  0.45594  0.00000  Biso   1.000  Cu
  Cu35     1.0000 0.81877  0.04406  0.50000  Biso   1.000  Cu
  Cu36     1.0000 0.31877  0.45594  0.50000  Biso   1.000  Cu
  Cu37     1.0000 0.68123  0.54406  0.50000  Biso   1.000  Cu
  Cu38     1.0000 0.31877  0.54406  0.00000  Biso   1.000  Cu
  Cu39     1.0000 0.81877  0.95594  0.00000  Biso   1.000  Cu
  Cu40     1.0000 0.18123  0.04406  0.00000  Biso   1.000  Cu
  Cu41     1.0000 0.11732  0.89939  0.58556  Biso   1.000  Cu
  Cu42     1.0000 0.61732  0.39939  0.08556  Biso   1.000  Cu
  Cu43     1.0000 0.88268  0.10061  0.58556  Biso   1.000  Cu
  Cu44     1.0000 0.38268  0.39939  0.41444  Biso   1.000  Cu
  Cu45     1.0000 0.61732  0.60061  0.41444  Biso   1.000  Cu
  Cu46     1.0000 0.38268  0.60061  0.08556  Biso   1.000  Cu
  Cu47     1.0000 0.88268  0.89939  0.91444  Biso   1.000  Cu
  Cu48     1.0000 0.11732  0.10061  0.91444  Biso   1.000  Cu
  Cu49     1.0000 0.88268  0.10061  0.41444  Biso   1.000  Cu
  Cu50     1.0000 0.38268  0.60061  0.91444  Biso   1.000  Cu
  Cu51     1.0000 0.11732  0.89939  0.41444  Biso   1.000  Cu
  Cu52     1.0000 0.61732  0.60061  0.58556  Biso   1.000  Cu
  Cu53     1.0000 0.38268  0.39939  0.58556  Biso   1.000  Cu
  Cu54     1.0000 0.61732  0.39939  0.91444  Biso   1.000  Cu
  Cu55     1.0000 0.11732  0.10061  0.08556  Biso   1.000  Cu
  Cu56     1.0000 0.88268  0.89939  0.08556  Biso   1.000  Cu
  Cu57     1.0000 0.23907  0.89208  0.50000  Biso   1.000  Cu
  Cu58     1.0000 0.73907  0.39208  0.00000  Biso   1.000  Cu
  Cu59     1.0000 0.76093  0.10792  0.50000  Biso   1.000  Cu
  Cu60     1.0000 0.26093  0.39208  0.50000  Biso   1.000  Cu
  Cu61     1.0000 0.73907  0.60792  0.50000  Biso   1.000  Cu
  Cu62     1.0000 0.26093  0.60792  0.00000  Biso   1.000  Cu
  Cu63     1.0000 0.76093  0.89208  0.00000  Biso   1.000  Cu
  Cu64     1.0000 0.23907  0.10792  0.00000  Biso   1.000  Cu
  I1       1.0000 0.36221  0.13505  0.34871  Biso   1.000  I
  I2       1.0000 0.86221  0.63505  0.84871  Biso   1.000  I
  I3       1.0000 0.63779  0.86495  0.34871  Biso   1.000  I
  I4       1.0000 0.13779  0.63505  0.65129  Biso   1.000  I
  I5       1.0000 0.86221  0.36495  0.65129  Biso   1.000  I
  I6       1.0000 0.13779  0.36495  0.84871  Biso   1.000  I
  I7       1.0000 0.63779  0.13505  0.15129  Biso   1.000  I
  I8       1.0000 0.36221  0.86495  0.15129  Biso   1.000  I
  I9       1.0000 0.63779  0.86495  0.65129  Biso   1.000  I
  I10      1.0000 0.13779  0.36495  0.15129  Biso   1.000  I
  I11      1.0000 0.36221  0.13505  0.65129  Biso   1.000  I
  I12      1.0000 0.86221  0.36495  0.34871  Biso   1.000  I
  I13      1.0000 0.13779  0.63505  0.34871  Biso   1.000  I
  I14      1.0000 0.86221  0.63505  0.15129  Biso   1.000  I
  I15      1.0000 0.36221  0.86495  0.84871  Biso   1.000  I
  I16      1.0000 0.63779  0.13505  0.84871  Biso   1.000  I
  I17      1.0000 0.17698  0.17679  0.50000  Biso   1.000  I
  I18      1.0000 0.67698  0.67679  0.00000  Biso   1.000  I
  I19      1.0000 0.82302  0.82321  0.50000  Biso   1.000  I
  I20      1.0000 0.32302  0.67679  0.50000  Biso   1.000  I
  I21      1.0000 0.67698  0.32321  0.50000  Biso   1.000  I
  I22      1.0000 0.32302  0.32321  0.00000  Biso   1.000  I
  I23      1.0000 0.82302  0.17679  0.00000  Biso   1.000  I
  I24      1.0000 0.17698  0.82321  0.00000  Biso   1.000  I
  I25      1.0000 0.40540  0.23321  0.50000  Biso   1.000  I
  I26      1.0000 0.90540  0.73321  0.00000  Biso   1.000  I
  I27      1.0000 0.59460  0.76679  0.50000  Biso   1.000  I
  I28      1.0000 0.09460  0.73321  0.50000  Biso   1.000  I
  I29      1.0000 0.90540  0.26679  0.50000  Biso   1.000  I
  I30      1.0000 0.09460  0.26679  0.00000  Biso   1.000  I
  I31      1.0000 0.59460  0.23321  0.00000  Biso   1.000  I
  I32      1.0000 0.40540  0.76679  0.00000  Biso   1.000  I
  I33      1.0000 0.03986  0.95156  0.50000  Biso   1.000  I
  I34      1.0000 0.53986  0.45156  0.00000  Biso   1.000  I
  I35      1.0000 0.96014  0.04844  0.50000  Biso   1.000  I
  I36      1.0000 0.46014  0.45156  0.50000  Biso   1.000  I
  I37      1.0000 0.53986  0.54844  0.50000  Biso   1.000  I
  I38      1.0000 0.46014  0.54844  0.00000  Biso   1.000  I
  I39      1.0000 0.96014  0.95156  0.00000  Biso   1.000  I
  I40      1.0000 0.03986  0.04844  0.00000  Biso   1.000  I
  I41      1.0000 0.23598  0.93088  0.65117  Biso   1.000  I
  I42      1.0000 0.73598  0.43088  0.15117  Biso   1.000  I
  I43      1.0000 0.76402  0.06912  0.65117  Biso   1.000  I
  I44      1.0000 0.26402  0.43088  0.34883  Biso   1.000  I
  I45      1.0000 0.73598  0.56912  0.34883  Biso   1.000  I
  I46      1.0000 0.26402  0.56912  0.15117  Biso   1.000  I
  I47      1.0000 0.76402  0.93088  0.84883  Biso   1.000  I
  I48      1.0000 0.23598  0.06912  0.84883  Biso   1.000  I
  I49      1.0000 0.76402  0.06912  0.34883  Biso   1.000  I
  I50      1.0000 0.26402  0.56912  0.84883  Biso   1.000  I
  I51      1.0000 0.23598  0.93088  0.34883  Biso   1.000  I
  I52      1.0000 0.73598  0.56912  0.65117  Biso   1.000  I
  I53      1.0000 0.26402  0.43088  0.65117  Biso   1.000  I
  I54      1.0000 0.73598  0.43088  0.84883  Biso   1.000  I
  I55      1.0000 0.23598  0.06912  0.15117  Biso   1.000  I
  I56      1.0000 0.76402  0.93088  0.15117  Biso   1.000  I
  I57      1.0000 0.14263  0.83848  0.50000  Biso   1.000  I
  I58      1.0000 0.64263  0.33848  0.00000  Biso   1.000  I
  I59      1.0000 0.85737  0.16152  0.50000  Biso   1.000  I
  I60      1.0000 0.35737  0.33848  0.50000  Biso   1.000  I
  I61      1.0000 0.64263  0.66152  0.50000  Biso   1.000  I
  I62      1.0000 0.35737  0.66152  0.00000  Biso   1.000  I
  I63      1.0000 0.85737  0.83848  0.00000  Biso   1.000  I
  I64      1.0000 0.14263  0.16152  0.00000  Biso   1.000  I
  N1       1.0000 0.25080  0.07820  0.50000  Biso   1.000  N
  N2       1.0000 0.75080  0.57820  0.00000  Biso   1.000  N
  N3       1.0000 0.74920  0.92180  0.50000  Biso   1.000  N
  N4       1.0000 0.24920  0.57820  0.50000  Biso   1.000  N
  N5       1.0000 0.75080  0.42180  0.50000  Biso   1.000  N
  N6       1.0000 0.24920  0.42180  0.00000  Biso   1.000  N
  N7       1.0000 0.74920  0.07820  0.00000  Biso   1.000  N
  N8       1.0000 0.25080  0.92180  0.00000  Biso   1.000  N
  N9       1.0000 0.21100  0.01000  0.50000  Biso   1.000  N
  N10      1.0000 0.71100  0.51000  0.00000  Biso   1.000  N
  N11      1.0000 0.78900  0.99000  0.50000  Biso   1.000  N
  N12      1.0000 0.28900  0.51000  0.50000  Biso   1.000  N
  N13      1.0000 0.71100  0.49000  0.50000  Biso   1.000  N
  N14      1.0000 0.28900  0.49000  0.00000  Biso   1.000  N
  N15      1.0000 0.78900  0.01000  0.00000  Biso   1.000  N
  N16      1.0000 0.21100  0.99000  0.00000  Biso   1.000  N
  N17      1.0000 0.52140  0.14860  0.50000  Biso   1.000  N
  N18      1.0000 0.02140  0.64860  0.00000  Biso   1.000  N
  N19      1.0000 0.47860  0.85140  0.50000  Biso   1.000  N
  N20      1.0000 0.97860  0.64860  0.50000  Biso   1.000  N
  N21      1.0000 0.02140  0.35140  0.50000  Biso   1.000  N
  N22      1.0000 0.97860  0.35140  0.00000  Biso   1.000  N
  N23      1.0000 0.47860  0.14860  0.00000  Biso   1.000  N
  N24      1.0000 0.52140  0.85140  0.00000  Biso   1.000  N
  N25      1.0000 0.34440  0.87440  0.50000  Biso   1.000  N
  N26      1.0000 0.84440  0.37440  0.00000  Biso   1.000  N
  N27      1.0000 0.65560  0.12560  0.50000  Biso   1.000  N
  N28      1.0000 0.15560  0.37440  0.50000  Biso   1.000  N
  N29      1.0000 0.84440  0.62560  0.50000  Biso   1.000  N
  N30      1.0000 0.15560  0.62560  0.00000  Biso   1.000  N
  N31      1.0000 0.65560  0.87440  0.00000  Biso   1.000  N
  N32      1.0000 0.34440  0.12560  0.00000  Biso   1.000  N
  N33      1.0000 0.26950  0.22830  0.31360  Biso   1.000  N
  N34      1.0000 0.76950  0.72830  0.81360  Biso   1.000  N
  N35      1.0000 0.73050  0.77170  0.31360  Biso   1.000  N
  N36      1.0000 0.23050  0.72830  0.68640  Biso   1.000  N
  N37      1.0000 0.76950  0.27170  0.68640  Biso   1.000  N
  N38      1.0000 0.23050  0.27170  0.81360  Biso   1.000  N
  N39      1.0000 0.73050  0.22830  0.18640  Biso   1.000  N
  N40      1.0000 0.26950  0.77170  0.18640  Biso   1.000  N
  N41      1.0000 0.73050  0.77170  0.68640  Biso   1.000  N
  N42      1.0000 0.23050  0.27170  0.18640  Biso   1.000  N
  N43      1.0000 0.26950  0.22830  0.68640  Biso   1.000  N
  N44      1.0000 0.76950  0.27170  0.31360  Biso   1.000  N
  N45      1.0000 0.23050  0.72830  0.31360  Biso   1.000  N
  N46      1.0000 0.76950  0.72830  0.18640  Biso   1.000  N
  N47      1.0000 0.26950  0.77170  0.81360  Biso   1.000  N
  N48      1.0000 0.73050  0.22830  0.81360  Biso   1.000  N
  N49      1.0000 0.04560  0.89360  0.69070  Biso   1.000  N
  N50      1.0000 0.54560  0.39360  0.19070  Biso   1.000  N
  N51      1.0000 0.95440  0.10640  0.69070  Biso   1.000  N
  N52      1.0000 0.45440  0.39360  0.30930  Biso   1.000  N
  N53      1.0000 0.54560  0.60640  0.30930  Biso   1.000  N
  N54      1.0000 0.45440  0.60640  0.19070  Biso   1.000  N
  N55      1.0000 0.95440  0.89360  0.80930  Biso   1.000  N
  N56      1.0000 0.04560  0.10640  0.80930  Biso   1.000  N
  N57      1.0000 0.95440  0.10640  0.30930  Biso   1.000  N
  N58      1.0000 0.45440  0.60640  0.80930  Biso   1.000  N
  N59      1.0000 0.04560  0.89360  0.30930  Biso   1.000  N
  N60      1.0000 0.54560  0.60640  0.69070  Biso   1.000  N
  N61      1.0000 0.45440  0.39360  0.69070  Biso   1.000  N
  N62      1.0000 0.54560  0.39360  0.80930  Biso   1.000  N
  N63      1.0000 0.04560  0.10640  0.19070  Biso   1.000  N
  N64      1.0000 0.95440  0.89360  0.19070  Biso   1.000  N
  C1       1.0000 0.20650  0.06960  0.42310  Biso   1.000  C
  C2       1.0000 0.70650  0.56960  0.92310  Biso   1.000  C
  C3       1.0000 0.79350  0.93040  0.42310  Biso   1.000  C
  C4       1.0000 0.29350  0.56960  0.57690  Biso   1.000  C
  C5       1.0000 0.70650  0.43040  0.57690  Biso   1.000  C
  C6       1.0000 0.29350  0.43040  0.92310  Biso   1.000  C
  C7       1.0000 0.79350  0.06960  0.07690  Biso   1.000  C
  C8       1.0000 0.20650  0.93040  0.07690  Biso   1.000  C
  C9       1.0000 0.79350  0.93040  0.57690  Biso   1.000  C
  C10      1.0000 0.29350  0.43040  0.07690  Biso   1.000  C
  C11      1.0000 0.20650  0.06960  0.57690  Biso   1.000  C
  C12      1.0000 0.70650  0.43040  0.42310  Biso   1.000  C
  C13      1.0000 0.29350  0.56960  0.42310  Biso   1.000  C
  C14      1.0000 0.70650  0.56960  0.07690  Biso   1.000  C
  C15      1.0000 0.20650  0.93040  0.92310  Biso   1.000  C
  C16      1.0000 0.79350  0.06960  0.92310  Biso   1.000  C
  H1       1.0000 0.23440  0.07450  0.37140  Biso   1.000  H
  H2       1.0000 0.73440  0.57450  0.87140  Biso   1.000  H
  H3       1.0000 0.76560  0.92550  0.37140  Biso   1.000  H
  H4       1.0000 0.26560  0.57450  0.62860  Biso   1.000  H
  H5       1.0000 0.73440  0.42550  0.62860  Biso   1.000  H
  H6       1.0000 0.26560  0.42550  0.87140  Biso   1.000  H
  H7       1.0000 0.76560  0.07450  0.12860  Biso   1.000  H
  H8       1.0000 0.23440  0.92550  0.12860  Biso   1.000  H
  H9       1.0000 0.76560  0.92550  0.62860  Biso   1.000  H
  H10      1.0000 0.26560  0.42550  0.12860  Biso   1.000  H
  H11      1.0000 0.23440  0.07450  0.62860  Biso   1.000  H
  H12      1.0000 0.73440  0.42550  0.37140  Biso   1.000  H
  H13      1.0000 0.26560  0.57450  0.37140  Biso   1.000  H
  H14      1.0000 0.73440  0.57450  0.12860  Biso   1.000  H
  H15      1.0000 0.23440  0.92550  0.87140  Biso   1.000  H
  H16      1.0000 0.76560  0.07450  0.87140  Biso   1.000  H
  H17      1.0000 0.16400  0.08490  0.42220  Biso   1.000  H
  H18      1.0000 0.66400  0.58490  0.92220  Biso   1.000  H
  H19      1.0000 0.83600  0.91510  0.42220  Biso   1.000  H
  H20      1.0000 0.33600  0.58490  0.57780  Biso   1.000  H
  H21      1.0000 0.66400  0.41510  0.57780  Biso   1.000  H
  H22      1.0000 0.33600  0.41510  0.92220  Biso   1.000  H
  H23      1.0000 0.83600  0.08490  0.07780  Biso   1.000  H
  H24      1.0000 0.16400  0.91510  0.07780  Biso   1.000  H
  H25      1.0000 0.83600  0.91510  0.57780  Biso   1.000  H
  H26      1.0000 0.33600  0.41510  0.07780  Biso   1.000  H
  H27      1.0000 0.16400  0.08490  0.57780  Biso   1.000  H
  H28      1.0000 0.66400  0.41510  0.42220  Biso   1.000  H
  H29      1.0000 0.33600  0.58490  0.42220  Biso   1.000  H
  H30      1.0000 0.66400  0.58490  0.07780  Biso   1.000  H
  H31      1.0000 0.16400  0.91510  0.92220  Biso   1.000  H
  H32      1.0000 0.83600  0.08490  0.92220  Biso   1.000  H
  C17      1.0000 0.18230  0.02940  0.42300  Biso   1.000  C
  C18      1.0000 0.68230  0.52940  0.92300  Biso   1.000  C
  C19      1.0000 0.81770  0.97060  0.42300  Biso   1.000  C
  C20      1.0000 0.31770  0.52940  0.57700  Biso   1.000  C
  C21      1.0000 0.68230  0.47060  0.57700  Biso   1.000  C
  C22      1.0000 0.31770  0.47060  0.92300  Biso   1.000  C
  C23      1.0000 0.81770  0.02940  0.07700  Biso   1.000  C
  C24      1.0000 0.18230  0.97060  0.07700  Biso   1.000  C
  C25      1.0000 0.81770  0.97060  0.57700  Biso   1.000  C
  C26      1.0000 0.31770  0.47060  0.07700  Biso   1.000  C
  C27      1.0000 0.18230  0.02940  0.57700  Biso   1.000  C
  C28      1.0000 0.68230  0.47060  0.42300  Biso   1.000  C
  C29      1.0000 0.31770  0.52940  0.42300  Biso   1.000  C
  C30      1.0000 0.68230  0.52940  0.07700  Biso   1.000  C
  C31      1.0000 0.18230  0.97060  0.92300  Biso   1.000  C
  C32      1.0000 0.81770  0.02940  0.92300  Biso   1.000  C
  H33      1.0000 0.12990  0.02820  0.42290  Biso   1.000  H
  H34      1.0000 0.62990  0.52820  0.92290  Biso   1.000  H
  H35      1.0000 0.87010  0.97180  0.42290  Biso   1.000  H
  H36      1.0000 0.37010  0.52820  0.57710  Biso   1.000  H
  H37      1.0000 0.62990  0.47180  0.57710  Biso   1.000  H
  H38      1.0000 0.37010  0.47180  0.92290  Biso   1.000  H
  H39      1.0000 0.87010  0.02820  0.07710  Biso   1.000  H
  H40      1.0000 0.12990  0.97180  0.07710  Biso   1.000  H
  H41      1.0000 0.87010  0.97180  0.57710  Biso   1.000  H
  H42      1.0000 0.37010  0.47180  0.07710  Biso   1.000  H
  H43      1.0000 0.12990  0.02820  0.57710  Biso   1.000  H
  H44      1.0000 0.62990  0.47180  0.42290  Biso   1.000  H
  H45      1.0000 0.37010  0.52820  0.42290  Biso   1.000  H
  H46      1.0000 0.62990  0.52820  0.07710  Biso   1.000  H
  H47      1.0000 0.12990  0.97180  0.92290  Biso   1.000  H
  H48      1.0000 0.87010  0.02820  0.92290  Biso   1.000  H
  H49      1.0000 0.19980  0.01780  0.37100  Biso   1.000  H
  H50      1.0000 0.69980  0.51780  0.87100  Biso   1.000  H
  H51      1.0000 0.80020  0.98220  0.37100  Biso   1.000  H
  H52      1.0000 0.30020  0.51780  0.62900  Biso   1.000  H
  H53      1.0000 0.69980  0.48220  0.62900  Biso   1.000  H
  H54      1.0000 0.30020  0.48220  0.87100  Biso   1.000  H
  H55      1.0000 0.80020  0.01780  0.12900  Biso   1.000  H
  H56      1.0000 0.19980  0.98220  0.12900  Biso   1.000  H
  H57      1.0000 0.80020  0.98220  0.62900  Biso   1.000  H
  H58      1.0000 0.30020  0.48220  0.12900  Biso   1.000  H
  H59      1.0000 0.19980  0.01780  0.62900  Biso   1.000  H
  H60      1.0000 0.69980  0.48220  0.37100  Biso   1.000  H
  H61      1.0000 0.30020  0.51780  0.37100  Biso   1.000  H
  H62      1.0000 0.69980  0.51780  0.12900  Biso   1.000  H
  H63      1.0000 0.19980  0.98220  0.87100  Biso   1.000  H
  H64      1.0000 0.80020  0.01780  0.87100  Biso   1.000  H
  C33      1.0000 0.31380  0.05330  0.50000  Biso   1.000  C
  C34      1.0000 0.81380  0.55330  0.00000  Biso   1.000  C
  C35      1.0000 0.68620  0.94670  0.50000  Biso   1.000  C
  C36      1.0000 0.18620  0.55330  0.50000  Biso   1.000  C
  C37      1.0000 0.81380  0.44670  0.50000  Biso   1.000  C
  C38      1.0000 0.18620  0.44670  0.00000  Biso   1.000  C
  C39      1.0000 0.68620  0.05330  0.00000  Biso   1.000  C
  C40      1.0000 0.31380  0.94670  0.00000  Biso   1.000  C
  H65      1.0000 0.34330  0.05780  0.55060  Biso   1.000  H
  H66      1.0000 0.84330  0.55780  0.05060  Biso   1.000  H
  H67      1.0000 0.65670  0.94220  0.55060  Biso   1.000  H
  H68      1.0000 0.15670  0.55780  0.44940  Biso   1.000  H
  H69      1.0000 0.84330  0.44220  0.44940  Biso   1.000  H
  H70      1.0000 0.15670  0.44220  0.05060  Biso   1.000  H
  H71      1.0000 0.65670  0.05780  0.94940  Biso   1.000  H
  H72      1.0000 0.34330  0.94220  0.94940  Biso   1.000  H
  H73      1.0000 0.65670  0.94220  0.44940  Biso   1.000  H
  H74      1.0000 0.15670  0.44220  0.94940  Biso   1.000  H
  H75      1.0000 0.34330  0.05780  0.44940  Biso   1.000  H
  H76      1.0000 0.84330  0.44220  0.55060  Biso   1.000  H
  H77      1.0000 0.15670  0.55780  0.55060  Biso   1.000  H
  H78      1.0000 0.84330  0.55780  0.94940  Biso   1.000  H
  H79      1.0000 0.34330  0.94220  0.05060  Biso   1.000  H
  H80      1.0000 0.65670  0.05780  0.05060  Biso   1.000  H
  C41      1.0000 0.28940  0.01290  0.50000  Biso   1.000  C
  C42      1.0000 0.78940  0.51290  0.00000  Biso   1.000  C
  C43      1.0000 0.71060  0.98710  0.50000  Biso   1.000  C
  C44      1.0000 0.21060  0.51290  0.50000  Biso   1.000  C
  C45      1.0000 0.78940  0.48710  0.50000  Biso   1.000  C
  C46      1.0000 0.21060  0.48710  0.00000  Biso   1.000  C
  C47      1.0000 0.71060  0.01290  0.00000  Biso   1.000  C
  C48      1.0000 0.28940  0.98710  0.00000  Biso   1.000  C
  H81      1.0000 0.30870  0.00100  0.44940  Biso   1.000  H
  H82      1.0000 0.80870  0.50100  0.94940  Biso   1.000  H
  H83      1.0000 0.69130  0.99900  0.44940  Biso   1.000  H
  H84      1.0000 0.19130  0.50100  0.55060  Biso   1.000  H
  H85      1.0000 0.80870  0.49900  0.55060  Biso   1.000  H
  H86      1.0000 0.19130  0.49900  0.94940  Biso   1.000  H
  H87      1.0000 0.69130  0.00100  0.05060  Biso   1.000  H
  H88      1.0000 0.30870  0.99900  0.05060  Biso   1.000  H
  H89      1.0000 0.69130  0.99900  0.55060  Biso   1.000  H
  H90      1.0000 0.19130  0.49900  0.05060  Biso   1.000  H
  H91      1.0000 0.30870  0.00100  0.55060  Biso   1.000  H
  H92      1.0000 0.80870  0.49900  0.44940  Biso   1.000  H
  H93      1.0000 0.19130  0.50100  0.44940  Biso   1.000  H
  H94      1.0000 0.80870  0.50100  0.05060  Biso   1.000  H
  H95      1.0000 0.30870  0.99900  0.94940  Biso   1.000  H
  H96      1.0000 0.69130  0.00100  0.94940  Biso   1.000  H
  C49      1.0000 0.52760  0.10660  0.50000  Biso   1.000  C
  C50      1.0000 0.02760  0.60660  0.00000  Biso   1.000  C
  C51      1.0000 0.47240  0.89340  0.50000  Biso   1.000  C
  C52      1.0000 0.97240  0.60660  0.50000  Biso   1.000  C
  C53      1.0000 0.02760  0.39340  0.50000  Biso   1.000  C
  C54      1.0000 0.97240  0.39340  0.00000  Biso   1.000  C
  C55      1.0000 0.47240  0.10660  0.00000  Biso   1.000  C
  C56      1.0000 0.52760  0.89340  0.00000  Biso   1.000  C
  H97      1.0000 0.50400  0.09680  0.55070  Biso   1.000  H
  H98      1.0000 0.00400  0.59680  0.05070  Biso   1.000  H
  H99      1.0000 0.49600  0.90320  0.55070  Biso   1.000  H
  H100     1.0000 0.99600  0.59680  0.44930  Biso   1.000  H
  H101     1.0000 0.00400  0.40320  0.44930  Biso   1.000  H
  H102     1.0000 0.99600  0.40320  0.05070  Biso   1.000  H
  H103     1.0000 0.49600  0.09680  0.94930  Biso   1.000  H
  H104     1.0000 0.50400  0.90320  0.94930  Biso   1.000  H
  H105     1.0000 0.49600  0.90320  0.44930  Biso   1.000  H
  H106     1.0000 0.99600  0.40320  0.94930  Biso   1.000  H
  H107     1.0000 0.50400  0.09680  0.44930  Biso   1.000  H
  H108     1.0000 0.00400  0.40320  0.55070  Biso   1.000  H
  H109     1.0000 0.99600  0.59680  0.55070  Biso   1.000  H
  H110     1.0000 0.00400  0.59680  0.94930  Biso   1.000  H
  H111     1.0000 0.50400  0.90320  0.05070  Biso   1.000  H
  H112     1.0000 0.49600  0.09680  0.05070  Biso   1.000  H
  C57      1.0000 0.39310  0.90390  0.50000  Biso   1.000  C
  C58      1.0000 0.89310  0.40390  0.00000  Biso   1.000  C
  C59      1.0000 0.60690  0.09610  0.50000  Biso   1.000  C
  C60      1.0000 0.10690  0.40390  0.50000  Biso   1.000  C
  C61      1.0000 0.89310  0.59610  0.50000  Biso   1.000  C
  C62      1.0000 0.10690  0.59610  0.00000  Biso   1.000  C
  C63      1.0000 0.60690  0.90390  0.00000  Biso   1.000  C
  C64      1.0000 0.39310  0.09610  0.00000  Biso   1.000  C
  H113     1.0000 0.38350  0.91850  0.44950  Biso   1.000  H
  H114     1.0000 0.88350  0.41850  0.94950  Biso   1.000  H
  H115     1.0000 0.61650  0.08150  0.44950  Biso   1.000  H
  H116     1.0000 0.11650  0.41850  0.55050  Biso   1.000  H
  H117     1.0000 0.88350  0.58150  0.55050  Biso   1.000  H
  H118     1.0000 0.11650  0.58150  0.94950  Biso   1.000  H
  H119     1.0000 0.61650  0.91850  0.05050  Biso   1.000  H
  H120     1.0000 0.38350  0.08150  0.05050  Biso   1.000  H
  H121     1.0000 0.61650  0.08150  0.55050  Biso   1.000  H
  H122     1.0000 0.11650  0.58150  0.05050  Biso   1.000  H
  H123     1.0000 0.38350  0.91850  0.55050  Biso   1.000  H
  H124     1.0000 0.88350  0.58150  0.44950  Biso   1.000  H
  H125     1.0000 0.11650  0.41850  0.44950  Biso   1.000  H
  H126     1.0000 0.88350  0.41850  0.05050  Biso   1.000  H
  H127     1.0000 0.38350  0.08150  0.94950  Biso   1.000  H
  H128     1.0000 0.61650  0.91850  0.94950  Biso   1.000  H
  C65      1.0000 0.56000  0.16200  0.42620  Biso   1.000  C
  C66      1.0000 0.06000  0.66200  0.92620  Biso   1.000  C
  C67      1.0000 0.44000  0.83800  0.42620  Biso   1.000  C
  C68      1.0000 0.94000  0.66200  0.57380  Biso   1.000  C
  C69      1.0000 0.06000  0.33800  0.57380  Biso   1.000  C
  C70      1.0000 0.94000  0.33800  0.92620  Biso   1.000  C
  C71      1.0000 0.44000  0.16200  0.07380  Biso   1.000  C
  C72      1.0000 0.56000  0.83800  0.07380  Biso   1.000  C
  C73      1.0000 0.44000  0.83800  0.57380  Biso   1.000  C
  C74      1.0000 0.94000  0.33800  0.07380  Biso   1.000  C
  C75      1.0000 0.56000  0.16200  0.57380  Biso   1.000  C
  C76      1.0000 0.06000  0.33800  0.42620  Biso   1.000  C
  C77      1.0000 0.94000  0.66200  0.42620  Biso   1.000  C
  C78      1.0000 0.06000  0.66200  0.07380  Biso   1.000  C
  C79      1.0000 0.56000  0.83800  0.92620  Biso   1.000  C
  C80      1.0000 0.44000  0.16200  0.92620  Biso   1.000  C
  H129     1.0000 0.55970  0.18800  0.42770  Biso   1.000  H
  H130     1.0000 0.05970  0.68800  0.92770  Biso   1.000  H
  H131     1.0000 0.44030  0.81200  0.42770  Biso   1.000  H
  H132     1.0000 0.94030  0.68800  0.57230  Biso   1.000  H
  H133     1.0000 0.05970  0.31200  0.57230  Biso   1.000  H
  H134     1.0000 0.94030  0.31200  0.92770  Biso   1.000  H
  H135     1.0000 0.44030  0.18800  0.07230  Biso   1.000  H
  H136     1.0000 0.55970  0.81200  0.07230  Biso   1.000  H
  H137     1.0000 0.44030  0.81200  0.57230  Biso   1.000  H
  H138     1.0000 0.94030  0.31200  0.07230  Biso   1.000  H
  H139     1.0000 0.55970  0.18800  0.57230  Biso   1.000  H
  H140     1.0000 0.05970  0.31200  0.42770  Biso   1.000  H
  H141     1.0000 0.94030  0.68800  0.42770  Biso   1.000  H
  H142     1.0000 0.05970  0.68800  0.07230  Biso   1.000  H
  H143     1.0000 0.55970  0.81200  0.92770  Biso   1.000  H
  H144     1.0000 0.44030  0.18800  0.92770  Biso   1.000  H
  H145     1.0000 0.53490  0.15440  0.37420  Biso   1.000  H
  H146     1.0000 0.03490  0.65440  0.87420  Biso   1.000  H
  H147     1.0000 0.46510  0.84560  0.37420  Biso   1.000  H
  H148     1.0000 0.96510  0.65440  0.62580  Biso   1.000  H
  H149     1.0000 0.03490  0.34560  0.62580  Biso   1.000  H
  H150     1.0000 0.96510  0.34560  0.87420  Biso   1.000  H
  H151     1.0000 0.46510  0.15440  0.12580  Biso   1.000  H
  H152     1.0000 0.53490  0.84560  0.12580  Biso   1.000  H
  H153     1.0000 0.46510  0.84560  0.62580  Biso   1.000  H
  H154     1.0000 0.96510  0.34560  0.12580  Biso   1.000  H
  H155     1.0000 0.53490  0.15440  0.62580  Biso   1.000  H
  H156     1.0000 0.03490  0.34560  0.37420  Biso   1.000  H
  H157     1.0000 0.96510  0.65440  0.37420  Biso   1.000  H
  H158     1.0000 0.03490  0.65440  0.12580  Biso   1.000  H
  H159     1.0000 0.53490  0.84560  0.87420  Biso   1.000  H
  H160     1.0000 0.46510  0.15440  0.87420  Biso   1.000  H
  C81      1.0000 0.36030  0.85130  0.57820  Biso   1.000  C
  C82      1.0000 0.86030  0.35130  0.07820  Biso   1.000  C
  C83      1.0000 0.63970  0.14870  0.57820  Biso   1.000  C
  C84      1.0000 0.13970  0.35130  0.42180  Biso   1.000  C
  C85      1.0000 0.86030  0.64870  0.42180  Biso   1.000  C
  C86      1.0000 0.13970  0.64870  0.07820  Biso   1.000  C
  C87      1.0000 0.63970  0.85130  0.92180  Biso   1.000  C
  C88      1.0000 0.36030  0.14870  0.92180  Biso   1.000  C
  C89      1.0000 0.63970  0.14870  0.42180  Biso   1.000  C
  C90      1.0000 0.13970  0.64870  0.92180  Biso   1.000  C
  C91      1.0000 0.36030  0.85130  0.42180  Biso   1.000  C
  C92      1.0000 0.86030  0.64870  0.57820  Biso   1.000  C
  C93      1.0000 0.13970  0.35130  0.57820  Biso   1.000  C
  C94      1.0000 0.86030  0.35130  0.92180  Biso   1.000  C
  C95      1.0000 0.36030  0.14870  0.07820  Biso   1.000  C
  C96      1.0000 0.63970  0.85130  0.07820  Biso   1.000  C
  H161     1.0000 0.35290  0.86510  0.63050  Biso   1.000  H
  H162     1.0000 0.85290  0.36510  0.13050  Biso   1.000  H
  H163     1.0000 0.64710  0.13490  0.63050  Biso   1.000  H
  H164     1.0000 0.14710  0.36510  0.36950  Biso   1.000  H
  H165     1.0000 0.85290  0.63490  0.36950  Biso   1.000  H
  H166     1.0000 0.14710  0.63490  0.13050  Biso   1.000  H
  H167     1.0000 0.64710  0.86510  0.86950  Biso   1.000  H
  H168     1.0000 0.35290  0.13490  0.86950  Biso   1.000  H
  H169     1.0000 0.64710  0.13490  0.36950  Biso   1.000  H
  H170     1.0000 0.14710  0.63490  0.86950  Biso   1.000  H
  H171     1.0000 0.35290  0.86510  0.36950  Biso   1.000  H
  H172     1.0000 0.85290  0.63490  0.63050  Biso   1.000  H
  H173     1.0000 0.14710  0.36510  0.63050  Biso   1.000  H
  H174     1.0000 0.85290  0.36510  0.86950  Biso   1.000  H
  H175     1.0000 0.35290  0.13490  0.13050  Biso   1.000  H
  H176     1.0000 0.64710  0.86510  0.13050  Biso   1.000  H
  H177     1.0000 0.32780  0.83080  0.57930  Biso   1.000  H
  H178     1.0000 0.82780  0.33080  0.07930  Biso   1.000  H
  H179     1.0000 0.67220  0.16920  0.57930  Biso   1.000  H
  H180     1.0000 0.17220  0.33080  0.42070  Biso   1.000  H
  H181     1.0000 0.82780  0.66920  0.42070  Biso   1.000  H
  H182     1.0000 0.17220  0.66920  0.07930  Biso   1.000  H
  H183     1.0000 0.67220  0.83080  0.92070  Biso   1.000  H
  H184     1.0000 0.32780  0.16920  0.92070  Biso   1.000  H
  H185     1.0000 0.67220  0.16920  0.42070  Biso   1.000  H
  H186     1.0000 0.17220  0.66920  0.92070  Biso   1.000  H
  H187     1.0000 0.32780  0.83080  0.42070  Biso   1.000  H
  H188     1.0000 0.82780  0.66920  0.57930  Biso   1.000  H
  H189     1.0000 0.17220  0.33080  0.57930  Biso   1.000  H
  H190     1.0000 0.82780  0.33080  0.92070  Biso   1.000  H
  H191     1.0000 0.32780  0.16920  0.07930  Biso   1.000  H
  H192     1.0000 0.67220  0.83080  0.07930  Biso   1.000  H
  C97      1.0000 0.30100  0.26360  0.31800  Biso   1.000  C
  C98      1.0000 0.80100  0.76360  0.81800  Biso   1.000  C
  C99      1.0000 0.69900  0.73640  0.31800  Biso   1.000  C
  C100     1.0000 0.19900  0.76360  0.68200  Biso   1.000  C
  C101     1.0000 0.80100  0.23640  0.68200  Biso   1.000  C
  C102     1.0000 0.19900  0.23640  0.81800  Biso   1.000  C
  C103     1.0000 0.69900  0.26360  0.18200  Biso   1.000  C
  C104     1.0000 0.30100  0.73640  0.18200  Biso   1.000  C
  C105     1.0000 0.69900  0.73640  0.68200  Biso   1.000  C
  C106     1.0000 0.19900  0.23640  0.18200  Biso   1.000  C
  C107     1.0000 0.30100  0.26360  0.68200  Biso   1.000  C
  C108     1.0000 0.80100  0.23640  0.31800  Biso   1.000  C
  C109     1.0000 0.19900  0.76360  0.31800  Biso   1.000  C
  C110     1.0000 0.80100  0.76360  0.18200  Biso   1.000  C
  C111     1.0000 0.30100  0.73640  0.81800  Biso   1.000  C
  C112     1.0000 0.69900  0.26360  0.81800  Biso   1.000  C
  C113     1.0000 0.24000  0.26250  0.34400  Biso   1.000  C
  C114     1.0000 0.74000  0.76250  0.84400  Biso   1.000  C
  C115     1.0000 0.76000  0.73750  0.34400  Biso   1.000  C
  C116     1.0000 0.26000  0.76250  0.65600  Biso   1.000  C
  C117     1.0000 0.74000  0.23750  0.65600  Biso   1.000  C
  C118     1.0000 0.26000  0.23750  0.84400  Biso   1.000  C
  C119     1.0000 0.76000  0.26250  0.15600  Biso   1.000  C
  C120     1.0000 0.24000  0.73750  0.15600  Biso   1.000  C
  C121     1.0000 0.76000  0.73750  0.65600  Biso   1.000  C
  C122     1.0000 0.26000  0.23750  0.15600  Biso   1.000  C
  C123     1.0000 0.24000  0.26250  0.65600  Biso   1.000  C
  C124     1.0000 0.74000  0.23750  0.34400  Biso   1.000  C
  C125     1.0000 0.26000  0.76250  0.34400  Biso   1.000  C
  C126     1.0000 0.74000  0.76250  0.15600  Biso   1.000  C
  C127     1.0000 0.24000  0.73750  0.84400  Biso   1.000  C
  C128     1.0000 0.76000  0.26250  0.84400  Biso   1.000  C
  C129     1.0000 0.18600  0.23940  0.31200  Biso   1.000  C
  C130     1.0000 0.68600  0.73940  0.81200  Biso   1.000  C
  C131     1.0000 0.81400  0.76060  0.31200  Biso   1.000  C
  C132     1.0000 0.31400  0.73940  0.68800  Biso   1.000  C
  C133     1.0000 0.68600  0.26060  0.68800  Biso   1.000  C
  C134     1.0000 0.31400  0.26060  0.81200  Biso   1.000  C
  C135     1.0000 0.81400  0.23940  0.18800  Biso   1.000  C
  C136     1.0000 0.18600  0.76060  0.18800  Biso   1.000  C
  C137     1.0000 0.81400  0.76060  0.68800  Biso   1.000  C
  C138     1.0000 0.31400  0.26060  0.18800  Biso   1.000  C
  C139     1.0000 0.18600  0.23940  0.68800  Biso   1.000  C
  C140     1.0000 0.68600  0.26060  0.31200  Biso   1.000  C
  C141     1.0000 0.31400  0.73940  0.31200  Biso   1.000  C
  C142     1.0000 0.68600  0.73940  0.18800  Biso   1.000  C
  C143     1.0000 0.18600  0.76060  0.81200  Biso   1.000  C
  C144     1.0000 0.81400  0.23940  0.81200  Biso   1.000  C
  C145     1.0000 0.22200  0.20840  0.25400  Biso   1.000  C
  C146     1.0000 0.72200  0.70840  0.75400  Biso   1.000  C
  C147     1.0000 0.77800  0.79160  0.25400  Biso   1.000  C
  C148     1.0000 0.27800  0.70840  0.74600  Biso   1.000  C
  C149     1.0000 0.72200  0.29160  0.74600  Biso   1.000  C
  C150     1.0000 0.27800  0.29160  0.75400  Biso   1.000  C
  C151     1.0000 0.77800  0.20840  0.24600  Biso   1.000  C
  C152     1.0000 0.22200  0.79160  0.24600  Biso   1.000  C
  C153     1.0000 0.77800  0.79160  0.74600  Biso   1.000  C
  C154     1.0000 0.27800  0.29160  0.24600  Biso   1.000  C
  C155     1.0000 0.22200  0.20840  0.74600  Biso   1.000  C
  C156     1.0000 0.72200  0.29160  0.25400  Biso   1.000  C
  C157     1.0000 0.27800  0.70840  0.25400  Biso   1.000  C
  C158     1.0000 0.72200  0.70840  0.24600  Biso   1.000  C
  C159     1.0000 0.22200  0.79160  0.75400  Biso   1.000  C
  C160     1.0000 0.77800  0.20840  0.75400  Biso   1.000  C
  C161     1.0000 0.27900  0.21400  0.23050  Biso   1.000  C
  C162     1.0000 0.77900  0.71400  0.73050  Biso   1.000  C
  C163     1.0000 0.72100  0.78600  0.23050  Biso   1.000  C
  C164     1.0000 0.22100  0.71400  0.76950  Biso   1.000  C
  C165     1.0000 0.77900  0.28600  0.76950  Biso   1.000  C
  C166     1.0000 0.22100  0.28600  0.73050  Biso   1.000  C
  C167     1.0000 0.72100  0.21400  0.26950  Biso   1.000  C
  C168     1.0000 0.27900  0.78600  0.26950  Biso   1.000  C
  C169     1.0000 0.72100  0.78600  0.76950  Biso   1.000  C
  C170     1.0000 0.22100  0.28600  0.26950  Biso   1.000  C
  C171     1.0000 0.27900  0.21400  0.76950  Biso   1.000  C
  C172     1.0000 0.77900  0.28600  0.23050  Biso   1.000  C
  C173     1.0000 0.22100  0.71400  0.23050  Biso   1.000  C
  C174     1.0000 0.77900  0.71400  0.26950  Biso   1.000  C
  C175     1.0000 0.27900  0.78600  0.73050  Biso   1.000  C
  C176     1.0000 0.72100  0.21400  0.73050  Biso   1.000  C
  C177     1.0000 0.34300  0.23690  0.25580  Biso   1.000  C
  C178     1.0000 0.84300  0.73690  0.75580  Biso   1.000  C
  C179     1.0000 0.65700  0.76310  0.25580  Biso   1.000  C
  C180     1.0000 0.15700  0.73690  0.74420  Biso   1.000  C
  C181     1.0000 0.84300  0.26310  0.74420  Biso   1.000  C
  C182     1.0000 0.15700  0.26310  0.75580  Biso   1.000  C
  C183     1.0000 0.65700  0.23690  0.24420  Biso   1.000  C
  C184     1.0000 0.34300  0.76310  0.24420  Biso   1.000  C
  C185     1.0000 0.65700  0.76310  0.74420  Biso   1.000  C
  C186     1.0000 0.15700  0.26310  0.24420  Biso   1.000  C
  C187     1.0000 0.34300  0.23690  0.74420  Biso   1.000  C
  C188     1.0000 0.84300  0.26310  0.25580  Biso   1.000  C
  C189     1.0000 0.15700  0.73690  0.25580  Biso   1.000  C
  C190     1.0000 0.84300  0.73690  0.24420  Biso   1.000  C
  C191     1.0000 0.34300  0.76310  0.75580  Biso   1.000  C
  C192     1.0000 0.65700  0.23690  0.75580  Biso   1.000  C
  C193     1.0000 0.02990  0.93030  0.72260  Biso   1.000  C
  C194     1.0000 0.52990  0.43030  0.22260  Biso   1.000  C
  C195     1.0000 0.97010  0.06970  0.72260  Biso   1.000  C
  C196     1.0000 0.47010  0.43030  0.27740  Biso   1.000  C
  C197     1.0000 0.52990  0.56970  0.27740  Biso   1.000  C
  C198     1.0000 0.47010  0.56970  0.22260  Biso   1.000  C
  C199     1.0000 0.97010  0.93030  0.77740  Biso   1.000  C
  C200     1.0000 0.02990  0.06970  0.77740  Biso   1.000  C
  C201     1.0000 0.97010  0.06970  0.27740  Biso   1.000  C
  C202     1.0000 0.47010  0.56970  0.77740  Biso   1.000  C
  C203     1.0000 0.02990  0.93030  0.27740  Biso   1.000  C
  C204     1.0000 0.52990  0.56970  0.72260  Biso   1.000  C
  C205     1.0000 0.47010  0.43030  0.72260  Biso   1.000  C
  C206     1.0000 0.52990  0.43030  0.77740  Biso   1.000  C
  C207     1.0000 0.02990  0.06970  0.22260  Biso   1.000  C
  C208     1.0000 0.97010  0.93030  0.22260  Biso   1.000  C
  H193     1.0000 0.07170  0.93950  0.75330  Biso   1.000  H
  H194     1.0000 0.57170  0.43950  0.25330  Biso   1.000  H
  H195     1.0000 0.92830  0.06050  0.75330  Biso   1.000  H
  H196     1.0000 0.42830  0.43950  0.24670  Biso   1.000  H
  H197     1.0000 0.57170  0.56050  0.24670  Biso   1.000  H
  H198     1.0000 0.42830  0.56050  0.25330  Biso   1.000  H
  H199     1.0000 0.92830  0.93950  0.74670  Biso   1.000  H
  H200     1.0000 0.07170  0.06050  0.74670  Biso   1.000  H
  H201     1.0000 0.92830  0.06050  0.24670  Biso   1.000  H
  H202     1.0000 0.42830  0.56050  0.74670  Biso   1.000  H
  H203     1.0000 0.07170  0.93950  0.24670  Biso   1.000  H
  H204     1.0000 0.57170  0.56050  0.75330  Biso   1.000  H
  H205     1.0000 0.42830  0.43950  0.75330  Biso   1.000  H
  H206     1.0000 0.57170  0.43950  0.74670  Biso   1.000  H
  H207     1.0000 0.07170  0.06050  0.25330  Biso   1.000  H
  H208     1.0000 0.92830  0.93950  0.25330  Biso   1.000  H
  H209     1.0000 0.02050  0.94610  0.67400  Biso   1.000  H
  H210     1.0000 0.52050  0.44610  0.17400  Biso   1.000  H
  H211     1.0000 0.97950  0.05390  0.67400  Biso   1.000  H
  H212     1.0000 0.47950  0.44610  0.32600  Biso   1.000  H
  H213     1.0000 0.52050  0.55390  0.32600  Biso   1.000  H
  H214     1.0000 0.47950  0.55390  0.17400  Biso   1.000  H
  H215     1.0000 0.97950  0.94610  0.82600  Biso   1.000  H
  H216     1.0000 0.02050  0.05390  0.82600  Biso   1.000  H
  H217     1.0000 0.97950  0.05390  0.32600  Biso   1.000  H
  H218     1.0000 0.47950  0.55390  0.82600  Biso   1.000  H
  H219     1.0000 0.02050  0.94610  0.32600  Biso   1.000  H
  H220     1.0000 0.52050  0.55390  0.67400  Biso   1.000  H
  H221     1.0000 0.47950  0.44610  0.67400  Biso   1.000  H
  H222     1.0000 0.52050  0.44610  0.82600  Biso   1.000  H
  H223     1.0000 0.02050  0.05390  0.17400  Biso   1.000  H
  H224     1.0000 0.97950  0.94610  0.17400  Biso   1.000  H
  C209     1.0000 0.07450  0.87320  0.76400  Biso   1.000  C
  C210     1.0000 0.57450  0.37320  0.26400  Biso   1.000  C
  C211     1.0000 0.92550  0.12680  0.76400  Biso   1.000  C
  C212     1.0000 0.42550  0.37320  0.23600  Biso   1.000  C
  C213     1.0000 0.57450  0.62680  0.23600  Biso   1.000  C
  C214     1.0000 0.42550  0.62680  0.26400  Biso   1.000  C
  C215     1.0000 0.92550  0.87320  0.73600  Biso   1.000  C
  C216     1.0000 0.07450  0.12680  0.73600  Biso   1.000  C
  C217     1.0000 0.92550  0.12680  0.23600  Biso   1.000  C
  C218     1.0000 0.42550  0.62680  0.73600  Biso   1.000  C
  C219     1.0000 0.07450  0.87320  0.23600  Biso   1.000  C
  C220     1.0000 0.57450  0.62680  0.76400  Biso   1.000  C
  C221     1.0000 0.42550  0.37320  0.76400  Biso   1.000  C
  C222     1.0000 0.57450  0.37320  0.73600  Biso   1.000  C
  C223     1.0000 0.07450  0.12680  0.26400  Biso   1.000  C
  C224     1.0000 0.92550  0.87320  0.26400  Biso   1.000  C
  H225     1.0000 0.08010  0.84810  0.74850  Biso   1.000  H
  H226     1.0000 0.58010  0.34810  0.24850  Biso   1.000  H
  H227     1.0000 0.91990  0.15190  0.74850  Biso   1.000  H
  H228     1.0000 0.41990  0.34810  0.25150  Biso   1.000  H
  H229     1.0000 0.58010  0.65190  0.25150  Biso   1.000  H
  H230     1.0000 0.41990  0.65190  0.24850  Biso   1.000  H
  H231     1.0000 0.91990  0.84810  0.75150  Biso   1.000  H
  H232     1.0000 0.08010  0.15190  0.75150  Biso   1.000  H
  H233     1.0000 0.91990  0.15190  0.25150  Biso   1.000  H
  H234     1.0000 0.41990  0.65190  0.75150  Biso   1.000  H
  H235     1.0000 0.08010  0.84810  0.25150  Biso   1.000  H
  H236     1.0000 0.58010  0.65190  0.74850  Biso   1.000  H
  H237     1.0000 0.41990  0.34810  0.74850  Biso   1.000  H
  H238     1.0000 0.58010  0.34810  0.75150  Biso   1.000  H
  H239     1.0000 0.08010  0.15190  0.24850  Biso   1.000  H
  H240     1.0000 0.91990  0.84810  0.24850  Biso   1.000  H
  H241     1.0000 0.12140  0.88250  0.78080  Biso   1.000  H
  H242     1.0000 0.62140  0.38250  0.28080  Biso   1.000  H
  H243     1.0000 0.87860  0.11750  0.78080  Biso   1.000  H
  H244     1.0000 0.37860  0.38250  0.21920  Biso   1.000  H
  H245     1.0000 0.62140  0.61750  0.21920  Biso   1.000  H
  H246     1.0000 0.37860  0.61750  0.28080  Biso   1.000  H
  H247     1.0000 0.87860  0.88250  0.71920  Biso   1.000  H
  H248     1.0000 0.12140  0.11750  0.71920  Biso   1.000  H
  H249     1.0000 0.87860  0.11750  0.21920  Biso   1.000  H
  H250     1.0000 0.37860  0.61750  0.71920  Biso   1.000  H
  H251     1.0000 0.12140  0.88250  0.21920  Biso   1.000  H
  H252     1.0000 0.62140  0.61750  0.78080  Biso   1.000  H
  H253     1.0000 0.37860  0.38250  0.78080  Biso   1.000  H
  H254     1.0000 0.62140  0.38250  0.71920  Biso   1.000  H
  H255     1.0000 0.12140  0.11750  0.28080  Biso   1.000  H
  H256     1.0000 0.87860  0.88250  0.28080  Biso   1.000  H
  C225     1.0000 0.97710  0.87680  0.66460  Biso   1.000  C
  C226     1.0000 0.47710  0.37680  0.16460  Biso   1.000  C
  C227     1.0000 0.02290  0.12320  0.66460  Biso   1.000  C
  C228     1.0000 0.52290  0.37680  0.33540  Biso   1.000  C
  C229     1.0000 0.47710  0.62320  0.33540  Biso   1.000  C
  C230     1.0000 0.52290  0.62320  0.16460  Biso   1.000  C
  C231     1.0000 0.02290  0.87680  0.83540  Biso   1.000  C
  C232     1.0000 0.97710  0.12320  0.83540  Biso   1.000  C
  C233     1.0000 0.02290  0.12320  0.33540  Biso   1.000  C
  C234     1.0000 0.52290  0.62320  0.83540  Biso   1.000  C
  C235     1.0000 0.97710  0.87680  0.33540  Biso   1.000  C
  C236     1.0000 0.47710  0.62320  0.66460  Biso   1.000  C
  C237     1.0000 0.52290  0.37680  0.66460  Biso   1.000  C
  C238     1.0000 0.47710  0.37680  0.83540  Biso   1.000  C
  C239     1.0000 0.97710  0.12320  0.16460  Biso   1.000  C
  C240     1.0000 0.02290  0.87680  0.16460  Biso   1.000  C
  H257     1.0000 0.95520  0.89110  0.61930  Biso   1.000  H
  H258     1.0000 0.45520  0.39110  0.11930  Biso   1.000  H
  H259     1.0000 0.04480  0.10890  0.61930  Biso   1.000  H
  H260     1.0000 0.54480  0.39110  0.38070  Biso   1.000  H
  H261     1.0000 0.45520  0.60890  0.38070  Biso   1.000  H
  H262     1.0000 0.54480  0.60890  0.11930  Biso   1.000  H
  H263     1.0000 0.04480  0.89110  0.88070  Biso   1.000  H
  H264     1.0000 0.95520  0.10890  0.88070  Biso   1.000  H
  H265     1.0000 0.04480  0.10890  0.38070  Biso   1.000  H
  H266     1.0000 0.54480  0.60890  0.88070  Biso   1.000  H
  H267     1.0000 0.95520  0.89110  0.38070  Biso   1.000  H
  H268     1.0000 0.45520  0.60890  0.61930  Biso   1.000  H
  H269     1.0000 0.54480  0.39110  0.61930  Biso   1.000  H
  H270     1.0000 0.45520  0.39110  0.88070  Biso   1.000  H
  H271     1.0000 0.95520  0.10890  0.11930  Biso   1.000  H
  H272     1.0000 0.04480  0.89110  0.11930  Biso   1.000  H
  H273     1.0000 0.98730  0.85320  0.64110  Biso   1.000  H
  H274     1.0000 0.48730  0.35320  0.14110  Biso   1.000  H
  H275     1.0000 0.01270  0.14680  0.64110  Biso   1.000  H
  H276     1.0000 0.51270  0.35320  0.35890  Biso   1.000  H
  H277     1.0000 0.48730  0.64680  0.35890  Biso   1.000  H
  H278     1.0000 0.51270  0.64680  0.14110  Biso   1.000  H
  H279     1.0000 0.01270  0.85320  0.85890  Biso   1.000  H
  H280     1.0000 0.98730  0.14680  0.85890  Biso   1.000  H
  H281     1.0000 0.01270  0.14680  0.35890  Biso   1.000  H
  H282     1.0000 0.51270  0.64680  0.85890  Biso   1.000  H
  H283     1.0000 0.98730  0.85320  0.35890  Biso   1.000  H
  H284     1.0000 0.48730  0.64680  0.64110  Biso   1.000  H
  H285     1.0000 0.51270  0.35320  0.64110  Biso   1.000  H
  H286     1.0000 0.48730  0.35320  0.85890  Biso   1.000  H
  H287     1.0000 0.98730  0.14680  0.14110  Biso   1.000  H
  H288     1.0000 0.01270  0.85320  0.14110  Biso   1.000  H
