data_image0
_cell_length_a       28.4132
_cell_length_b       28.4132
_cell_length_c       14.0586
_cell_angle_alpha    90
_cell_angle_beta     90
_cell_angle_gamma    90

_symmetry_space_group_name_H-M    "P 1"
_symmetry_int_tables_number       1

loop_
  _symmetry_equiv_pos_as_xyz
  'x, y, z'

loop_
  _atom_site_label
  _atom_site_occupancy
  _atom_site_fract_x
  _atom_site_fract_y
  _atom_site_fract_z
  _atom_site_thermal_displace_type
  _atom_site_B_iso_or_equiv
  _atom_site_type_symbol
  I1       1.0000 0.55010  0.55010  0.31442  Biso   1.000  I
  I2       1.0000 0.94990  0.55010  0.81442  Biso   1.000  I
  I3       1.0000 0.55010  0.94990  0.81442  Biso   1.000  I
  I4       1.0000 0.05010  0.05010  0.68558  Biso   1.000  I
  I5       1.0000 0.94990  0.94990  0.31442  Biso   1.000  I
  I6       1.0000 0.44990  0.05010  0.18558  Biso   1.000  I
  I7       1.0000 0.05010  0.44990  0.18558  Biso   1.000  I
  I8       1.0000 0.44990  0.44990  0.68558  Biso   1.000  I
  I9       1.0000 0.55299  0.55299  0.01757  Biso   1.000  I
  I10      1.0000 0.94701  0.55299  0.51757  Biso   1.000  I
  I11      1.0000 0.55299  0.94701  0.51757  Biso   1.000  I
  I12      1.0000 0.05299  0.05299  0.98243  Biso   1.000  I
  I13      1.0000 0.94701  0.94701  0.01757  Biso   1.000  I
  I14      1.0000 0.44701  0.05299  0.48243  Biso   1.000  I
  I15      1.0000 0.05299  0.44701  0.48243  Biso   1.000  I
  I16      1.0000 0.44701  0.44701  0.98243  Biso   1.000  I
  I17      1.0000 0.69487  0.69487  0.31298  Biso   1.000  I
  I18      1.0000 0.80513  0.69487  0.81298  Biso   1.000  I
  I19      1.0000 0.69487  0.80513  0.81298  Biso   1.000  I
  I20      1.0000 0.19487  0.19487  0.68702  Biso   1.000  I
  I21      1.0000 0.80513  0.80513  0.31298  Biso   1.000  I
  I22      1.0000 0.30513  0.19487  0.18702  Biso   1.000  I
  I23      1.0000 0.19487  0.30513  0.18702  Biso   1.000  I
  I24      1.0000 0.30513  0.30513  0.68702  Biso   1.000  I
  I25      1.0000 0.83020  0.66980  0.16159  Biso   1.000  I
  I26      1.0000 0.83020  0.83020  0.66159  Biso   1.000  I
  I27      1.0000 0.66980  0.66980  0.66159  Biso   1.000  I
  I28      1.0000 0.16980  0.33020  0.83841  Biso   1.000  I
  I29      1.0000 0.66980  0.83020  0.16159  Biso   1.000  I
  I30      1.0000 0.16980  0.16980  0.33841  Biso   1.000  I
  I31      1.0000 0.33020  0.33020  0.33841  Biso   1.000  I
  I32      1.0000 0.33020  0.16980  0.83841  Biso   1.000  I
  I33      1.0000 0.69547  0.69547  0.01407  Biso   1.000  I
  I34      1.0000 0.80453  0.69547  0.51407  Biso   1.000  I
  I35      1.0000 0.69547  0.80453  0.51407  Biso   1.000  I
  I36      1.0000 0.19547  0.19547  0.98593  Biso   1.000  I
  I37      1.0000 0.80453  0.80453  0.01407  Biso   1.000  I
  I38      1.0000 0.30453  0.19547  0.48593  Biso   1.000  I
  I39      1.0000 0.19547  0.30453  0.48593  Biso   1.000  I
  I40      1.0000 0.30453  0.30453  0.98593  Biso   1.000  I
  I41      1.0000 0.57672  0.41944  0.14991  Biso   1.000  I
  I42      1.0000 0.08056  0.57672  0.64991  Biso   1.000  I
  I43      1.0000 0.41944  0.92328  0.64991  Biso   1.000  I
  I44      1.0000 0.91944  0.07672  0.85009  Biso   1.000  I
  I45      1.0000 0.92328  0.08056  0.14991  Biso   1.000  I
  I46      1.0000 0.42328  0.91944  0.35009  Biso   1.000  I
  I47      1.0000 0.07672  0.58056  0.35009  Biso   1.000  I
  I48      1.0000 0.58056  0.42328  0.85009  Biso   1.000  I
  I49      1.0000 0.42328  0.58056  0.85009  Biso   1.000  I
  I50      1.0000 0.91944  0.42328  0.35009  Biso   1.000  I
  I51      1.0000 0.58056  0.07672  0.35009  Biso   1.000  I
  I52      1.0000 0.08056  0.92328  0.14991  Biso   1.000  I
  I53      1.0000 0.07672  0.91944  0.85009  Biso   1.000  I
  I54      1.0000 0.57672  0.08056  0.64991  Biso   1.000  I
  I55      1.0000 0.92328  0.41944  0.64991  Biso   1.000  I
  I56      1.0000 0.41944  0.57672  0.14991  Biso   1.000  I
  I57      1.0000 0.44096  0.44096  0.30638  Biso   1.000  I
  I58      1.0000 0.05904  0.44096  0.80638  Biso   1.000  I
  I59      1.0000 0.44096  0.05904  0.80638  Biso   1.000  I
  I60      1.0000 0.94096  0.94096  0.69362  Biso   1.000  I
  I61      1.0000 0.05904  0.05904  0.30638  Biso   1.000  I
  I62      1.0000 0.55904  0.94096  0.19362  Biso   1.000  I
  I63      1.0000 0.94096  0.55904  0.19362  Biso   1.000  I
  I64      1.0000 0.55904  0.55904  0.69362  Biso   1.000  I
  Cu1      1.0000 0.73931  0.65315  0.16236  Biso   1.000  Cu
  Cu2      1.0000 0.84685  0.73931  0.66236  Biso   1.000  Cu
  Cu3      1.0000 0.65315  0.76069  0.66236  Biso   1.000  Cu
  Cu4      1.0000 0.15315  0.23931  0.83764  Biso   1.000  Cu
  Cu5      1.0000 0.76069  0.84685  0.16236  Biso   1.000  Cu
  Cu6      1.0000 0.26069  0.15315  0.33764  Biso   1.000  Cu
  Cu7      1.0000 0.23931  0.34685  0.33764  Biso   1.000  Cu
  Cu8      1.0000 0.34685  0.26069  0.83764  Biso   1.000  Cu
  Cu9      1.0000 0.26069  0.34685  0.83764  Biso   1.000  Cu
  Cu10     1.0000 0.15315  0.26069  0.33764  Biso   1.000  Cu
  Cu11     1.0000 0.34685  0.23931  0.33764  Biso   1.000  Cu
  Cu12     1.0000 0.84685  0.76069  0.16236  Biso   1.000  Cu
  Cu13     1.0000 0.23931  0.15315  0.83764  Biso   1.000  Cu
  Cu14     1.0000 0.73931  0.84685  0.66236  Biso   1.000  Cu
  Cu15     1.0000 0.76069  0.65315  0.66236  Biso   1.000  Cu
  Cu16     1.0000 0.65315  0.73931  0.16236  Biso   1.000  Cu
  Cu17     1.0000 0.59552  0.50749  0.17242  Biso   1.000  Cu
  Cu18     1.0000 0.99251  0.59552  0.67242  Biso   1.000  Cu
  Cu19     1.0000 0.50749  0.90448  0.67242  Biso   1.000  Cu
  Cu20     1.0000 0.00749  0.09552  0.82758  Biso   1.000  Cu
  Cu21     1.0000 0.90448  0.99251  0.17242  Biso   1.000  Cu
  Cu22     1.0000 0.40448  0.00749  0.32758  Biso   1.000  Cu
  Cu23     1.0000 0.09552  0.49251  0.32758  Biso   1.000  Cu
  Cu24     1.0000 0.49251  0.40448  0.82758  Biso   1.000  Cu
  Cu25     1.0000 0.40448  0.49251  0.82758  Biso   1.000  Cu
  Cu26     1.0000 0.00749  0.40448  0.32758  Biso   1.000  Cu
  Cu27     1.0000 0.49251  0.09552  0.32758  Biso   1.000  Cu
  Cu28     1.0000 0.99251  0.90448  0.17242  Biso   1.000  Cu
  Cu29     1.0000 0.09552  0.00749  0.82758  Biso   1.000  Cu
  Cu30     1.0000 0.59552  0.99251  0.67242  Biso   1.000  Cu
  Cu31     1.0000 0.90448  0.50749  0.67242  Biso   1.000  Cu
  Cu32     1.0000 0.50749  0.59552  0.17242  Biso   1.000  Cu
  Cu33     1.0000 0.62446  0.62446  0.16378  Biso   1.000  Cu
  Cu34     1.0000 0.87554  0.62446  0.66378  Biso   1.000  Cu
  Cu35     1.0000 0.62446  0.87554  0.66378  Biso   1.000  Cu
  Cu36     1.0000 0.12446  0.12446  0.83622  Biso   1.000  Cu
  Cu37     1.0000 0.87554  0.87554  0.16378  Biso   1.000  Cu
  Cu38     1.0000 0.37554  0.12446  0.33622  Biso   1.000  Cu
  Cu39     1.0000 0.12446  0.37554  0.33622  Biso   1.000  Cu
  Cu40     1.0000 0.37554  0.37554  0.83622  Biso   1.000  Cu
  Cu41     1.0000 0.53908  0.46092  0.00000  Biso   1.000  Cu
  Cu42     1.0000 0.03908  0.53908  0.50000  Biso   1.000  Cu
  Cu43     1.0000 0.46092  0.96092  0.50000  Biso   1.000  Cu
  Cu44     1.0000 0.96092  0.03908  0.00000  Biso   1.000  Cu
  Cu45     1.0000 0.46092  0.53908  0.00000  Biso   1.000  Cu
  Cu46     1.0000 0.96092  0.46092  0.50000  Biso   1.000  Cu
  Cu47     1.0000 0.53908  0.03908  0.50000  Biso   1.000  Cu
  Cu48     1.0000 0.03908  0.96092  0.00000  Biso   1.000  Cu
  Cu49     1.0000 0.45193  0.53191  0.29757  Biso   1.000  Cu
  Cu50     1.0000 0.96809  0.45193  0.79757  Biso   1.000  Cu
  Cu51     1.0000 0.53191  0.04807  0.79757  Biso   1.000  Cu
  Cu52     1.0000 0.03191  0.95193  0.70243  Biso   1.000  Cu
  Cu53     1.0000 0.04807  0.96809  0.29757  Biso   1.000  Cu
  Cu54     1.0000 0.54807  0.03191  0.20243  Biso   1.000  Cu
  Cu55     1.0000 0.95193  0.46809  0.20243  Biso   1.000  Cu
  Cu56     1.0000 0.46809  0.54807  0.70243  Biso   1.000  Cu
  Cu57     1.0000 0.54807  0.46809  0.70243  Biso   1.000  Cu
  Cu58     1.0000 0.03191  0.54807  0.20243  Biso   1.000  Cu
  Cu59     1.0000 0.46809  0.95193  0.20243  Biso   1.000  Cu
  Cu60     1.0000 0.96809  0.04807  0.29757  Biso   1.000  Cu
  Cu61     1.0000 0.95193  0.03191  0.70243  Biso   1.000  Cu
  Cu62     1.0000 0.45193  0.96809  0.79757  Biso   1.000  Cu
  Cu63     1.0000 0.04807  0.53191  0.79757  Biso   1.000  Cu
  Cu64     1.0000 0.53191  0.45193  0.29757  Biso   1.000  Cu
  Cu65     1.0000 0.50000  0.50000  0.50000  Biso   1.000  Cu
  Cu66     1.0000 0.00000  0.50000  0.00000  Biso   1.000  Cu
  Cu67     1.0000 0.50000  0.00000  0.00000  Biso   1.000  Cu
  Cu68     1.0000 0.00000  0.00000  0.50000  Biso   1.000  Cu
  N1       1.0000 0.71710  0.58670  0.16740  Biso   1.000  N
  N2       1.0000 0.91330  0.71710  0.66740  Biso   1.000  N
  N3       1.0000 0.58670  0.78290  0.66740  Biso   1.000  N
  N4       1.0000 0.08670  0.21710  0.83260  Biso   1.000  N
  N5       1.0000 0.78290  0.91330  0.16740  Biso   1.000  N
  N6       1.0000 0.28290  0.08670  0.33260  Biso   1.000  N
  N7       1.0000 0.21710  0.41330  0.33260  Biso   1.000  N
  N8       1.0000 0.41330  0.28290  0.83260  Biso   1.000  N
  N9       1.0000 0.28290  0.41330  0.83260  Biso   1.000  N
  N10      1.0000 0.08670  0.28290  0.33260  Biso   1.000  N
  N11      1.0000 0.41330  0.21710  0.33260  Biso   1.000  N
  N12      1.0000 0.91330  0.78290  0.16740  Biso   1.000  N
  N13      1.0000 0.21710  0.08670  0.83260  Biso   1.000  N
  N14      1.0000 0.71710  0.91330  0.66740  Biso   1.000  N
  N15      1.0000 0.78290  0.58670  0.66740  Biso   1.000  N
  N16      1.0000 0.58670  0.71710  0.16740  Biso   1.000  N
  N17      1.0000 0.46630  0.78120  0.44980  Biso   1.000  N
  N18      1.0000 0.71880  0.46630  0.94980  Biso   1.000  N
  N19      1.0000 0.78120  0.03370  0.94980  Biso   1.000  N
  N20      1.0000 0.28120  0.96630  0.55020  Biso   1.000  N
  N21      1.0000 0.03370  0.71880  0.44980  Biso   1.000  N
  N22      1.0000 0.53370  0.28120  0.05020  Biso   1.000  N
  N23      1.0000 0.96630  0.21880  0.05020  Biso   1.000  N
  N24      1.0000 0.21880  0.53370  0.55020  Biso   1.000  N
  N25      1.0000 0.53370  0.21880  0.55020  Biso   1.000  N
  N26      1.0000 0.28120  0.53370  0.05020  Biso   1.000  N
  N27      1.0000 0.21880  0.96630  0.05020  Biso   1.000  N
  N28      1.0000 0.71880  0.03370  0.44980  Biso   1.000  N
  N29      1.0000 0.96630  0.28120  0.55020  Biso   1.000  N
  N30      1.0000 0.46630  0.71880  0.94980  Biso   1.000  N
  N31      1.0000 0.03370  0.78120  0.94980  Biso   1.000  N
  N32      1.0000 0.78120  0.46630  0.44980  Biso   1.000  N
  N33      1.0000 0.53570  0.79980  0.42240  Biso   1.000  N
  N34      1.0000 0.70020  0.53570  0.92240  Biso   1.000  N
  N35      1.0000 0.79980  0.96430  0.92240  Biso   1.000  N
  N36      1.0000 0.29980  0.03570  0.57760  Biso   1.000  N
  N37      1.0000 0.96430  0.70020  0.42240  Biso   1.000  N
  N38      1.0000 0.46430  0.29980  0.07760  Biso   1.000  N
  N39      1.0000 0.03570  0.20020  0.07760  Biso   1.000  N
  N40      1.0000 0.20020  0.46430  0.57760  Biso   1.000  N
  N41      1.0000 0.46430  0.20020  0.57760  Biso   1.000  N
  N42      1.0000 0.29980  0.46430  0.07760  Biso   1.000  N
  N43      1.0000 0.20020  0.03570  0.07760  Biso   1.000  N
  N44      1.0000 0.70020  0.96430  0.42240  Biso   1.000  N
  N45      1.0000 0.03570  0.29980  0.57760  Biso   1.000  N
  N46      1.0000 0.53570  0.70020  0.92240  Biso   1.000  N
  N47      1.0000 0.96430  0.79980  0.92240  Biso   1.000  N
  N48      1.0000 0.79980  0.53570  0.42240  Biso   1.000  N
  N49      1.0000 0.49330  0.81730  0.43420  Biso   1.000  N
  N50      1.0000 0.68270  0.49330  0.93420  Biso   1.000  N
  N51      1.0000 0.81730  0.00670  0.93420  Biso   1.000  N
  N52      1.0000 0.31730  0.99330  0.56580  Biso   1.000  N
  N53      1.0000 0.00670  0.68270  0.43420  Biso   1.000  N
  N54      1.0000 0.50670  0.31730  0.06580  Biso   1.000  N
  N55      1.0000 0.99330  0.18270  0.06580  Biso   1.000  N
  N56      1.0000 0.18270  0.50670  0.56580  Biso   1.000  N
  N57      1.0000 0.50670  0.18270  0.56580  Biso   1.000  N
  N58      1.0000 0.31730  0.50670  0.06580  Biso   1.000  N
  N59      1.0000 0.18270  0.99330  0.06580  Biso   1.000  N
  N60      1.0000 0.68270  0.00670  0.43420  Biso   1.000  N
  N61      1.0000 0.99330  0.31730  0.56580  Biso   1.000  N
  N62      1.0000 0.49330  0.68270  0.93420  Biso   1.000  N
  N63      1.0000 0.00670  0.81730  0.93420  Biso   1.000  N
  N64      1.0000 0.81730  0.49330  0.43420  Biso   1.000  N
  N65      1.0000 0.67070  0.57730  0.16650  Biso   1.000  N
  N66      1.0000 0.92270  0.67070  0.66650  Biso   1.000  N
  N67      1.0000 0.57730  0.82930  0.66650  Biso   1.000  N
  N68      1.0000 0.07730  0.17070  0.83350  Biso   1.000  N
  N69      1.0000 0.82930  0.92270  0.16650  Biso   1.000  N
  N70      1.0000 0.32930  0.07730  0.33350  Biso   1.000  N
  N71      1.0000 0.17070  0.42270  0.33350  Biso   1.000  N
  N72      1.0000 0.42270  0.32930  0.83350  Biso   1.000  N
  N73      1.0000 0.32930  0.42270  0.83350  Biso   1.000  N
  N74      1.0000 0.07730  0.32930  0.33350  Biso   1.000  N
  N75      1.0000 0.42270  0.17070  0.33350  Biso   1.000  N
  N76      1.0000 0.92270  0.82930  0.16650  Biso   1.000  N
  N77      1.0000 0.17070  0.07730  0.83350  Biso   1.000  N
  N78      1.0000 0.67070  0.92270  0.66650  Biso   1.000  N
  N79      1.0000 0.82930  0.57730  0.66650  Biso   1.000  N
  N80      1.0000 0.57730  0.67070  0.16650  Biso   1.000  N
  N81      1.0000 0.66180  0.53160  0.17600  Biso   1.000  N
  N82      1.0000 0.96840  0.66180  0.67600  Biso   1.000  N
  N83      1.0000 0.53160  0.83820  0.67600  Biso   1.000  N
  N84      1.0000 0.03160  0.16180  0.82400  Biso   1.000  N
  N85      1.0000 0.83820  0.96840  0.17600  Biso   1.000  N
  N86      1.0000 0.33820  0.03160  0.32400  Biso   1.000  N
  N87      1.0000 0.16180  0.46840  0.32400  Biso   1.000  N
  N88      1.0000 0.46840  0.33820  0.82400  Biso   1.000  N
  N89      1.0000 0.33820  0.46840  0.82400  Biso   1.000  N
  N90      1.0000 0.03160  0.33820  0.32400  Biso   1.000  N
  N91      1.0000 0.46840  0.16180  0.32400  Biso   1.000  N
  N92      1.0000 0.96840  0.83820  0.17600  Biso   1.000  N
  N93      1.0000 0.16180  0.03160  0.82400  Biso   1.000  N
  N94      1.0000 0.66180  0.96840  0.67600  Biso   1.000  N
  N95      1.0000 0.83820  0.53160  0.67600  Biso   1.000  N
  N96      1.0000 0.53160  0.66180  0.17600  Biso   1.000  N
  N97      1.0000 0.45310  0.54690  0.50000  Biso   1.000  N
  N98      1.0000 0.95310  0.45310  0.00000  Biso   1.000  N
  N99      1.0000 0.54690  0.04690  0.00000  Biso   1.000  N
  N100     1.0000 0.04690  0.95310  0.50000  Biso   1.000  N
  N101     1.0000 0.54690  0.45310  0.50000  Biso   1.000  N
  N102     1.0000 0.04690  0.54690  0.00000  Biso   1.000  N
  N103     1.0000 0.45310  0.95310  0.00000  Biso   1.000  N
  N104     1.0000 0.95310  0.04690  0.50000  Biso   1.000  N
  N105     1.0000 0.43150  0.56180  0.42130  Biso   1.000  N
  N106     1.0000 0.93820  0.43150  0.92130  Biso   1.000  N
  N107     1.0000 0.56180  0.06850  0.92130  Biso   1.000  N
  N108     1.0000 0.06180  0.93150  0.57870  Biso   1.000  N
  N109     1.0000 0.06850  0.93820  0.42130  Biso   1.000  N
  N110     1.0000 0.56850  0.06180  0.07870  Biso   1.000  N
  N111     1.0000 0.93150  0.43820  0.07870  Biso   1.000  N
  N112     1.0000 0.43820  0.56850  0.57870  Biso   1.000  N
  N113     1.0000 0.56850  0.43820  0.57870  Biso   1.000  N
  N114     1.0000 0.06180  0.56850  0.07870  Biso   1.000  N
  N115     1.0000 0.43820  0.93150  0.07870  Biso   1.000  N
  N116     1.0000 0.93820  0.06850  0.42130  Biso   1.000  N
  N117     1.0000 0.93150  0.06180  0.57870  Biso   1.000  N
  N118     1.0000 0.43150  0.93820  0.92130  Biso   1.000  N
  N119     1.0000 0.06850  0.56180  0.92130  Biso   1.000  N
  N120     1.0000 0.56180  0.43150  0.42130  Biso   1.000  N
  C1       1.0000 0.70440  0.50960  0.18520  Biso   1.000  C
  C2       1.0000 0.99040  0.70440  0.68520  Biso   1.000  C
  C3       1.0000 0.50960  0.79560  0.68520  Biso   1.000  C
  C4       1.0000 0.00960  0.20440  0.81480  Biso   1.000  C
  C5       1.0000 0.79560  0.99040  0.18520  Biso   1.000  C
  C6       1.0000 0.29560  0.00960  0.31480  Biso   1.000  C
  C7       1.0000 0.20440  0.49040  0.31480  Biso   1.000  C
  C8       1.0000 0.49040  0.29560  0.81480  Biso   1.000  C
  C9       1.0000 0.29560  0.49040  0.81480  Biso   1.000  C
  C10      1.0000 0.00960  0.29560  0.31480  Biso   1.000  C
  C11      1.0000 0.49040  0.20440  0.31480  Biso   1.000  C
  C12      1.0000 0.99040  0.79560  0.18520  Biso   1.000  C
  C13      1.0000 0.20440  0.00960  0.81480  Biso   1.000  C
  C14      1.0000 0.70440  0.99040  0.68520  Biso   1.000  C
  C15      1.0000 0.79560  0.50960  0.68520  Biso   1.000  C
  C16      1.0000 0.50960  0.70440  0.18520  Biso   1.000  C
  C17      1.0000 0.73900  0.54420  0.17850  Biso   1.000  C
  C18      1.0000 0.95580  0.73900  0.67850  Biso   1.000  C
  C19      1.0000 0.54420  0.76100  0.67850  Biso   1.000  C
  C20      1.0000 0.04420  0.23900  0.82150  Biso   1.000  C
  C21      1.0000 0.76100  0.95580  0.17850  Biso   1.000  C
  C22      1.0000 0.26100  0.04420  0.32150  Biso   1.000  C
  C23      1.0000 0.23900  0.45580  0.32150  Biso   1.000  C
  C24      1.0000 0.45580  0.26100  0.82150  Biso   1.000  C
  C25      1.0000 0.26100  0.45580  0.82150  Biso   1.000  C
  C26      1.0000 0.04420  0.26100  0.32150  Biso   1.000  C
  C27      1.0000 0.45580  0.23900  0.32150  Biso   1.000  C
  C28      1.0000 0.95580  0.76100  0.17850  Biso   1.000  C
  C29      1.0000 0.23900  0.04420  0.82150  Biso   1.000  C
  C30      1.0000 0.73900  0.95580  0.67850  Biso   1.000  C
  C31      1.0000 0.76100  0.54420  0.67850  Biso   1.000  C
  C32      1.0000 0.54420  0.73900  0.17850  Biso   1.000  C
  C33      1.0000 0.78700  0.53250  0.18420  Biso   1.000  C
  C34      1.0000 0.96750  0.78700  0.68420  Biso   1.000  C
  C35      1.0000 0.53250  0.71300  0.68420  Biso   1.000  C
  C36      1.0000 0.03250  0.28700  0.81580  Biso   1.000  C
  C37      1.0000 0.71300  0.96750  0.18420  Biso   1.000  C
  C38      1.0000 0.21300  0.03250  0.31580  Biso   1.000  C
  C39      1.0000 0.28700  0.46750  0.31580  Biso   1.000  C
  C40      1.0000 0.46750  0.21300  0.81580  Biso   1.000  C
  C41      1.0000 0.21300  0.46750  0.81580  Biso   1.000  C
  C42      1.0000 0.03250  0.21300  0.31580  Biso   1.000  C
  C43      1.0000 0.46750  0.28700  0.31580  Biso   1.000  C
  C44      1.0000 0.96750  0.71300  0.18420  Biso   1.000  C
  C45      1.0000 0.28700  0.03250  0.81580  Biso   1.000  C
  C46      1.0000 0.78700  0.96750  0.68420  Biso   1.000  C
  C47      1.0000 0.71300  0.53250  0.68420  Biso   1.000  C
  C48      1.0000 0.53250  0.78700  0.18420  Biso   1.000  C
  H1       1.0000 0.81030  0.55540  0.17880  Biso   1.000  H
  H2       1.0000 0.94460  0.81030  0.67880  Biso   1.000  H
  H3       1.0000 0.55540  0.68970  0.67880  Biso   1.000  H
  H4       1.0000 0.05540  0.31030  0.82120  Biso   1.000  H
  H5       1.0000 0.68970  0.94460  0.17880  Biso   1.000  H
  H6       1.0000 0.18970  0.05540  0.32120  Biso   1.000  H
  H7       1.0000 0.31030  0.44460  0.32120  Biso   1.000  H
  H8       1.0000 0.44460  0.18970  0.82120  Biso   1.000  H
  H9       1.0000 0.18970  0.44460  0.82120  Biso   1.000  H
  H10      1.0000 0.05540  0.18970  0.32120  Biso   1.000  H
  H11      1.0000 0.44460  0.31030  0.32120  Biso   1.000  H
  H12      1.0000 0.94460  0.68970  0.17880  Biso   1.000  H
  H13      1.0000 0.31030  0.05540  0.82120  Biso   1.000  H
  H14      1.0000 0.81030  0.94460  0.67880  Biso   1.000  H
  H15      1.0000 0.68970  0.55540  0.67880  Biso   1.000  H
  H16      1.0000 0.55540  0.81030  0.17880  Biso   1.000  H
  C49      1.0000 0.76310  0.45180  0.20450  Biso   1.000  C
  C50      1.0000 0.04820  0.76310  0.70450  Biso   1.000  C
  C51      1.0000 0.45180  0.73690  0.70450  Biso   1.000  C
  C52      1.0000 0.95180  0.26310  0.79550  Biso   1.000  C
  C53      1.0000 0.73690  0.04820  0.20450  Biso   1.000  C
  C54      1.0000 0.23690  0.95180  0.29550  Biso   1.000  C
  C55      1.0000 0.26310  0.54820  0.29550  Biso   1.000  C
  C56      1.0000 0.54820  0.23690  0.79550  Biso   1.000  C
  C57      1.0000 0.23690  0.54820  0.79550  Biso   1.000  C
  C58      1.0000 0.95180  0.23690  0.29550  Biso   1.000  C
  C59      1.0000 0.54820  0.26310  0.29550  Biso   1.000  C
  C60      1.0000 0.04820  0.73690  0.20450  Biso   1.000  C
  C61      1.0000 0.26310  0.95180  0.79550  Biso   1.000  C
  C62      1.0000 0.76310  0.04820  0.70450  Biso   1.000  C
  C63      1.0000 0.73690  0.45180  0.70450  Biso   1.000  C
  C64      1.0000 0.45180  0.76310  0.20450  Biso   1.000  C
  H17      1.0000 0.77200  0.42060  0.21310  Biso   1.000  H
  H18      1.0000 0.07940  0.77200  0.71310  Biso   1.000  H
  H19      1.0000 0.42060  0.72800  0.71310  Biso   1.000  H
  H20      1.0000 0.92060  0.27200  0.78690  Biso   1.000  H
  H21      1.0000 0.72800  0.07940  0.21310  Biso   1.000  H
  H22      1.0000 0.22800  0.92060  0.28690  Biso   1.000  H
  H23      1.0000 0.27200  0.57940  0.28690  Biso   1.000  H
  H24      1.0000 0.57940  0.22800  0.78690  Biso   1.000  H
  H25      1.0000 0.22800  0.57940  0.78690  Biso   1.000  H
  H26      1.0000 0.92060  0.22800  0.28690  Biso   1.000  H
  H27      1.0000 0.57940  0.27200  0.28690  Biso   1.000  H
  H28      1.0000 0.07940  0.72800  0.21310  Biso   1.000  H
  H29      1.0000 0.27200  0.92060  0.78690  Biso   1.000  H
  H30      1.0000 0.77200  0.07940  0.71310  Biso   1.000  H
  H31      1.0000 0.72800  0.42060  0.71310  Biso   1.000  H
  H32      1.0000 0.42060  0.77200  0.21310  Biso   1.000  H
  C65      1.0000 0.71560  0.46250  0.19880  Biso   1.000  C
  C66      1.0000 0.03750  0.71560  0.69880  Biso   1.000  C
  C67      1.0000 0.46250  0.78440  0.69880  Biso   1.000  C
  C68      1.0000 0.96250  0.21560  0.80120  Biso   1.000  C
  C69      1.0000 0.78440  0.03750  0.19880  Biso   1.000  C
  C70      1.0000 0.28440  0.96250  0.30120  Biso   1.000  C
  C71      1.0000 0.21560  0.53750  0.30120  Biso   1.000  C
  C72      1.0000 0.53750  0.28440  0.80120  Biso   1.000  C
  C73      1.0000 0.28440  0.53750  0.80120  Biso   1.000  C
  C74      1.0000 0.96250  0.28440  0.30120  Biso   1.000  C
  C75      1.0000 0.53750  0.21560  0.30120  Biso   1.000  C
  C76      1.0000 0.03750  0.78440  0.19880  Biso   1.000  C
  C77      1.0000 0.21560  0.96250  0.80120  Biso   1.000  C
  C78      1.0000 0.71560  0.03750  0.69880  Biso   1.000  C
  C79      1.0000 0.78440  0.46250  0.69880  Biso   1.000  C
  C80      1.0000 0.46250  0.71560  0.19880  Biso   1.000  C
  H33      1.0000 0.69250  0.43950  0.20390  Biso   1.000  H
  H34      1.0000 0.06050  0.69250  0.70390  Biso   1.000  H
  H35      1.0000 0.43950  0.80750  0.70390  Biso   1.000  H
  H36      1.0000 0.93950  0.19250  0.79610  Biso   1.000  H
  H37      1.0000 0.80750  0.06050  0.20390  Biso   1.000  H
  H38      1.0000 0.30750  0.93950  0.29610  Biso   1.000  H
  H39      1.0000 0.19250  0.56050  0.29610  Biso   1.000  H
  H40      1.0000 0.56050  0.30750  0.79610  Biso   1.000  H
  H41      1.0000 0.30750  0.56050  0.79610  Biso   1.000  H
  H42      1.0000 0.93950  0.30750  0.29610  Biso   1.000  H
  H43      1.0000 0.56050  0.19250  0.29610  Biso   1.000  H
  H44      1.0000 0.06050  0.80750  0.20390  Biso   1.000  H
  H45      1.0000 0.19250  0.93950  0.79610  Biso   1.000  H
  H46      1.0000 0.69250  0.06050  0.70390  Biso   1.000  H
  H47      1.0000 0.80750  0.43950  0.70390  Biso   1.000  H
  H48      1.0000 0.43950  0.69250  0.20390  Biso   1.000  H
  C81      1.0000 0.49060  0.73900  0.44830  Biso   1.000  C
  C82      1.0000 0.76100  0.49060  0.94830  Biso   1.000  C
  C83      1.0000 0.73900  0.00940  0.94830  Biso   1.000  C
  C84      1.0000 0.23900  0.99060  0.55170  Biso   1.000  C
  C85      1.0000 0.00940  0.76100  0.44830  Biso   1.000  C
  C86      1.0000 0.50940  0.23900  0.05170  Biso   1.000  C
  C87      1.0000 0.99060  0.26100  0.05170  Biso   1.000  C
  C88      1.0000 0.26100  0.50940  0.55170  Biso   1.000  C
  C89      1.0000 0.50940  0.26100  0.55170  Biso   1.000  C
  C90      1.0000 0.23900  0.50940  0.05170  Biso   1.000  C
  C91      1.0000 0.26100  0.99060  0.05170  Biso   1.000  C
  C92      1.0000 0.76100  0.00940  0.44830  Biso   1.000  C
  C93      1.0000 0.99060  0.23900  0.55170  Biso   1.000  C
  C94      1.0000 0.49060  0.76100  0.94830  Biso   1.000  C
  C95      1.0000 0.00940  0.73900  0.94830  Biso   1.000  C
  C96      1.0000 0.73900  0.49060  0.44830  Biso   1.000  C
  C97      1.0000 0.57300  0.72040  0.42490  Biso   1.000  C
  C98      1.0000 0.77960  0.57300  0.92490  Biso   1.000  C
  C99      1.0000 0.72040  0.92700  0.92490  Biso   1.000  C
  C100     1.0000 0.22040  0.07300  0.57510  Biso   1.000  C
  C101     1.0000 0.92700  0.77960  0.42490  Biso   1.000  C
  C102     1.0000 0.42700  0.22040  0.07510  Biso   1.000  C
  C103     1.0000 0.07300  0.27960  0.07510  Biso   1.000  C
  C104     1.0000 0.27960  0.42700  0.57510  Biso   1.000  C
  C105     1.0000 0.42700  0.27960  0.57510  Biso   1.000  C
  C106     1.0000 0.22040  0.42700  0.07510  Biso   1.000  C
  C107     1.0000 0.27960  0.07300  0.07510  Biso   1.000  C
  C108     1.0000 0.77960  0.92700  0.42490  Biso   1.000  C
  C109     1.0000 0.07300  0.22040  0.57510  Biso   1.000  C
  C110     1.0000 0.57300  0.77960  0.92490  Biso   1.000  C
  C111     1.0000 0.92700  0.72040  0.92490  Biso   1.000  C
  C112     1.0000 0.72040  0.57300  0.42490  Biso   1.000  C
  H49      1.0000 0.60420  0.72910  0.41470  Biso   1.000  H
  H50      1.0000 0.77090  0.60420  0.91470  Biso   1.000  H
  H51      1.0000 0.72910  0.89580  0.91470  Biso   1.000  H
  H52      1.0000 0.22910  0.10420  0.58530  Biso   1.000  H
  H53      1.0000 0.89580  0.77090  0.41470  Biso   1.000  H
  H54      1.0000 0.39580  0.22910  0.08530  Biso   1.000  H
  H55      1.0000 0.10420  0.27090  0.08530  Biso   1.000  H
  H56      1.0000 0.27090  0.39580  0.58530  Biso   1.000  H
  H57      1.0000 0.39580  0.27090  0.58530  Biso   1.000  H
  H58      1.0000 0.22910  0.39580  0.08530  Biso   1.000  H
  H59      1.0000 0.27090  0.10420  0.08530  Biso   1.000  H
  H60      1.0000 0.77090  0.89580  0.41470  Biso   1.000  H
  H61      1.0000 0.10420  0.22910  0.58530  Biso   1.000  H
  H62      1.0000 0.60420  0.77090  0.91470  Biso   1.000  H
  H63      1.0000 0.89580  0.72910  0.91470  Biso   1.000  H
  H64      1.0000 0.72910  0.60420  0.41470  Biso   1.000  H
  C113     1.0000 0.55860  0.67330  0.43600  Biso   1.000  C
  C114     1.0000 0.82670  0.55860  0.93600  Biso   1.000  C
  C115     1.0000 0.67330  0.94140  0.93600  Biso   1.000  C
  C116     1.0000 0.17330  0.05860  0.56400  Biso   1.000  C
  C117     1.0000 0.94140  0.82670  0.43600  Biso   1.000  C
  C118     1.0000 0.44140  0.17330  0.06400  Biso   1.000  C
  C119     1.0000 0.05860  0.32670  0.06400  Biso   1.000  C
  C120     1.0000 0.32670  0.44140  0.56400  Biso   1.000  C
  C121     1.0000 0.44140  0.32670  0.56400  Biso   1.000  C
  C122     1.0000 0.17330  0.44140  0.06400  Biso   1.000  C
  C123     1.0000 0.32670  0.05860  0.06400  Biso   1.000  C
  C124     1.0000 0.82670  0.94140  0.43600  Biso   1.000  C
  C125     1.0000 0.05860  0.17330  0.56400  Biso   1.000  C
  C126     1.0000 0.55860  0.82670  0.93600  Biso   1.000  C
  C127     1.0000 0.94140  0.67330  0.93600  Biso   1.000  C
  C128     1.0000 0.67330  0.55860  0.43600  Biso   1.000  C
  H65      1.0000 0.58130  0.64980  0.43170  Biso   1.000  H
  H66      1.0000 0.85020  0.58130  0.93170  Biso   1.000  H
  H67      1.0000 0.64980  0.91870  0.93170  Biso   1.000  H
  H68      1.0000 0.14980  0.08130  0.56830  Biso   1.000  H
  H69      1.0000 0.91870  0.85020  0.43170  Biso   1.000  H
  H70      1.0000 0.41870  0.14980  0.06830  Biso   1.000  H
  H71      1.0000 0.08130  0.35020  0.06830  Biso   1.000  H
  H72      1.0000 0.35020  0.41870  0.56830  Biso   1.000  H
  H73      1.0000 0.41870  0.35020  0.56830  Biso   1.000  H
  H74      1.0000 0.14980  0.41870  0.06830  Biso   1.000  H
  H75      1.0000 0.35020  0.08130  0.06830  Biso   1.000  H
  H76      1.0000 0.85020  0.91870  0.43170  Biso   1.000  H
  H77      1.0000 0.08130  0.14980  0.56830  Biso   1.000  H
  H78      1.0000 0.58130  0.85020  0.93170  Biso   1.000  H
  H79      1.0000 0.91870  0.64980  0.93170  Biso   1.000  H
  H80      1.0000 0.64980  0.58130  0.43170  Biso   1.000  H
  C129     1.0000 0.53670  0.75210  0.43070  Biso   1.000  C
  C130     1.0000 0.74790  0.53670  0.93070  Biso   1.000  C
  C131     1.0000 0.75210  0.96330  0.93070  Biso   1.000  C
  C132     1.0000 0.25210  0.03670  0.56930  Biso   1.000  C
  C133     1.0000 0.96330  0.74790  0.43070  Biso   1.000  C
  C134     1.0000 0.46330  0.25210  0.06930  Biso   1.000  C
  C135     1.0000 0.03670  0.24790  0.06930  Biso   1.000  C
  C136     1.0000 0.24790  0.46330  0.56930  Biso   1.000  C
  C137     1.0000 0.46330  0.24790  0.56930  Biso   1.000  C
  C138     1.0000 0.25210  0.46330  0.06930  Biso   1.000  C
  C139     1.0000 0.24790  0.03670  0.06930  Biso   1.000  C
  C140     1.0000 0.74790  0.96330  0.43070  Biso   1.000  C
  C141     1.0000 0.03670  0.25210  0.56930  Biso   1.000  C
  C142     1.0000 0.53670  0.74790  0.93070  Biso   1.000  C
  C143     1.0000 0.96330  0.75210  0.93070  Biso   1.000  C
  C144     1.0000 0.75210  0.53670  0.43070  Biso   1.000  C
  C145     1.0000 0.47680  0.69270  0.45960  Biso   1.000  C
  C146     1.0000 0.80730  0.47680  0.95960  Biso   1.000  C
  C147     1.0000 0.69270  0.02320  0.95960  Biso   1.000  C
  C148     1.0000 0.19270  0.97680  0.54040  Biso   1.000  C
  C149     1.0000 0.02320  0.80730  0.45960  Biso   1.000  C
  C150     1.0000 0.52320  0.19270  0.04040  Biso   1.000  C
  C151     1.0000 0.97680  0.30730  0.04040  Biso   1.000  C
  C152     1.0000 0.30730  0.52320  0.54040  Biso   1.000  C
  C153     1.0000 0.52320  0.30730  0.54040  Biso   1.000  C
  C154     1.0000 0.19270  0.52320  0.04040  Biso   1.000  C
  C155     1.0000 0.30730  0.97680  0.04040  Biso   1.000  C
  C156     1.0000 0.80730  0.02320  0.45960  Biso   1.000  C
  C157     1.0000 0.97680  0.19270  0.54040  Biso   1.000  C
  C158     1.0000 0.47680  0.80730  0.95960  Biso   1.000  C
  C159     1.0000 0.02320  0.69270  0.95960  Biso   1.000  C
  C160     1.0000 0.69270  0.47680  0.45960  Biso   1.000  C
  H81      1.0000 0.44580  0.68390  0.47090  Biso   1.000  H
  H82      1.0000 0.81610  0.44580  0.97090  Biso   1.000  H
  H83      1.0000 0.68390  0.05420  0.97090  Biso   1.000  H
  H84      1.0000 0.18390  0.94580  0.52910  Biso   1.000  H
  H85      1.0000 0.05420  0.81610  0.47090  Biso   1.000  H
  H86      1.0000 0.55420  0.18390  0.02910  Biso   1.000  H
  H87      1.0000 0.94580  0.31610  0.02910  Biso   1.000  H
  H88      1.0000 0.31610  0.55420  0.52910  Biso   1.000  H
  H89      1.0000 0.55420  0.31610  0.52910  Biso   1.000  H
  H90      1.0000 0.18390  0.55420  0.02910  Biso   1.000  H
  H91      1.0000 0.31610  0.94580  0.02910  Biso   1.000  H
  H92      1.0000 0.81610  0.05420  0.47090  Biso   1.000  H
  H93      1.0000 0.94580  0.18390  0.52910  Biso   1.000  H
  H94      1.0000 0.44580  0.81610  0.97090  Biso   1.000  H
  H95      1.0000 0.05420  0.68390  0.97090  Biso   1.000  H
  H96      1.0000 0.68390  0.44580  0.47090  Biso   1.000  H
  C161     1.0000 0.79830  0.48620  0.19780  Biso   1.000  C
  C162     1.0000 0.01380  0.79830  0.69780  Biso   1.000  C
  C163     1.0000 0.48620  0.70170  0.69780  Biso   1.000  C
  C164     1.0000 0.98620  0.29830  0.80220  Biso   1.000  C
  C165     1.0000 0.70170  0.01380  0.19780  Biso   1.000  C
  C166     1.0000 0.20170  0.98620  0.30220  Biso   1.000  C
  C167     1.0000 0.29830  0.51380  0.30220  Biso   1.000  C
  C168     1.0000 0.51380  0.20170  0.80220  Biso   1.000  C
  C169     1.0000 0.20170  0.51380  0.80220  Biso   1.000  C
  C170     1.0000 0.98620  0.20170  0.30220  Biso   1.000  C
  C171     1.0000 0.51380  0.29830  0.30220  Biso   1.000  C
  C172     1.0000 0.01380  0.70170  0.19780  Biso   1.000  C
  C173     1.0000 0.29830  0.98620  0.80220  Biso   1.000  C
  C174     1.0000 0.79830  0.01380  0.69780  Biso   1.000  C
  C175     1.0000 0.70170  0.48620  0.69780  Biso   1.000  C
  C176     1.0000 0.48620  0.79830  0.19780  Biso   1.000  C
  H97      1.0000 0.82970  0.47750  0.20270  Biso   1.000  H
  H98      1.0000 0.02250  0.82970  0.70270  Biso   1.000  H
  H99      1.0000 0.47750  0.67030  0.70270  Biso   1.000  H
  H100     1.0000 0.97750  0.32970  0.79730  Biso   1.000  H
  H101     1.0000 0.67030  0.02250  0.20270  Biso   1.000  H
  H102     1.0000 0.17030  0.97750  0.29730  Biso   1.000  H
  H103     1.0000 0.32970  0.52250  0.29730  Biso   1.000  H
  H104     1.0000 0.52250  0.17030  0.79730  Biso   1.000  H
  H105     1.0000 0.17030  0.52250  0.79730  Biso   1.000  H
  H106     1.0000 0.97750  0.17030  0.29730  Biso   1.000  H
  H107     1.0000 0.52250  0.32970  0.29730  Biso   1.000  H
  H108     1.0000 0.02250  0.67030  0.20270  Biso   1.000  H
  H109     1.0000 0.32970  0.97750  0.79730  Biso   1.000  H
  H110     1.0000 0.82970  0.02250  0.70270  Biso   1.000  H
  H111     1.0000 0.67030  0.47750  0.70270  Biso   1.000  H
  H112     1.0000 0.47750  0.82970  0.20270  Biso   1.000  H
  C177     1.0000 0.40030  0.59530  0.45010  Biso   1.000  C
  C178     1.0000 0.90470  0.40030  0.95010  Biso   1.000  C
  C179     1.0000 0.59530  0.09970  0.95010  Biso   1.000  C
  C180     1.0000 0.09530  0.90030  0.54990  Biso   1.000  C
  C181     1.0000 0.09970  0.90470  0.45010  Biso   1.000  C
  C182     1.0000 0.59970  0.09530  0.04990  Biso   1.000  C
  C183     1.0000 0.90030  0.40470  0.04990  Biso   1.000  C
  C184     1.0000 0.40470  0.59970  0.54990  Biso   1.000  C
  C185     1.0000 0.59970  0.40470  0.54990  Biso   1.000  C
  C186     1.0000 0.09530  0.59970  0.04990  Biso   1.000  C
  C187     1.0000 0.40470  0.90030  0.04990  Biso   1.000  C
  C188     1.0000 0.90470  0.09970  0.45010  Biso   1.000  C
  C189     1.0000 0.90030  0.09530  0.54990  Biso   1.000  C
  C190     1.0000 0.40030  0.90470  0.95010  Biso   1.000  C
  C191     1.0000 0.09970  0.59530  0.95010  Biso   1.000  C
  C192     1.0000 0.59530  0.40030  0.45010  Biso   1.000  C
  C193     1.0000 0.51360  0.66050  0.45260  Biso   1.000  C
  C194     1.0000 0.83950  0.51360  0.95260  Biso   1.000  C
  C195     1.0000 0.66050  0.98640  0.95260  Biso   1.000  C
  C196     1.0000 0.16050  0.01360  0.54740  Biso   1.000  C
  C197     1.0000 0.98640  0.83950  0.45260  Biso   1.000  C
  C198     1.0000 0.48640  0.16050  0.04740  Biso   1.000  C
  C199     1.0000 0.01360  0.33950  0.04740  Biso   1.000  C
  C200     1.0000 0.33950  0.48640  0.54740  Biso   1.000  C
  C201     1.0000 0.48640  0.33950  0.54740  Biso   1.000  C
  C202     1.0000 0.16050  0.48640  0.04740  Biso   1.000  C
  C203     1.0000 0.33950  0.01360  0.04740  Biso   1.000  C
  C204     1.0000 0.83950  0.98640  0.45260  Biso   1.000  C
  C205     1.0000 0.01360  0.16050  0.54740  Biso   1.000  C
  C206     1.0000 0.51360  0.83950  0.95260  Biso   1.000  C
  C207     1.0000 0.98640  0.66050  0.95260  Biso   1.000  C
  C208     1.0000 0.66050  0.51360  0.45260  Biso   1.000  C
  H113     1.0000 0.50680  0.62860  0.45960  Biso   1.000  H
  H114     1.0000 0.87140  0.50680  0.95960  Biso   1.000  H
  H115     1.0000 0.62860  0.99320  0.95960  Biso   1.000  H
  H116     1.0000 0.12860  0.00680  0.54040  Biso   1.000  H
  H117     1.0000 0.99320  0.87140  0.45960  Biso   1.000  H
  H118     1.0000 0.49320  0.12860  0.04040  Biso   1.000  H
  H119     1.0000 0.00680  0.37140  0.04040  Biso   1.000  H
  H120     1.0000 0.37140  0.49320  0.54040  Biso   1.000  H
  H121     1.0000 0.49320  0.37140  0.54040  Biso   1.000  H
  H122     1.0000 0.12860  0.49320  0.04040  Biso   1.000  H
  H123     1.0000 0.37140  0.00680  0.04040  Biso   1.000  H
  H124     1.0000 0.87140  0.99320  0.45960  Biso   1.000  H
  H125     1.0000 0.00680  0.12860  0.54040  Biso   1.000  H
  H126     1.0000 0.50680  0.87140  0.95960  Biso   1.000  H
  H127     1.0000 0.99320  0.62860  0.95960  Biso   1.000  H
  H128     1.0000 0.62860  0.50680  0.45960  Biso   1.000  H
  C209     1.0000 0.36870  0.62290  0.39860  Biso   1.000  C
  C210     1.0000 0.87710  0.36870  0.89860  Biso   1.000  C
  C211     1.0000 0.62290  0.13130  0.89860  Biso   1.000  C
  C212     1.0000 0.12290  0.86870  0.60140  Biso   1.000  C
  C213     1.0000 0.13130  0.87710  0.39860  Biso   1.000  C
  C214     1.0000 0.63130  0.12290  0.10140  Biso   1.000  C
  C215     1.0000 0.86870  0.37710  0.10140  Biso   1.000  C
  C216     1.0000 0.37710  0.63130  0.60140  Biso   1.000  C
  C217     1.0000 0.63130  0.37710  0.60140  Biso   1.000  C
  C218     1.0000 0.12290  0.63130  0.10140  Biso   1.000  C
  C219     1.0000 0.37710  0.86870  0.10140  Biso   1.000  C
  C220     1.0000 0.87710  0.13130  0.39860  Biso   1.000  C
  C221     1.0000 0.86870  0.12290  0.60140  Biso   1.000  C
  C222     1.0000 0.36870  0.87710  0.89860  Biso   1.000  C
  C223     1.0000 0.13130  0.62290  0.89860  Biso   1.000  C
  C224     1.0000 0.62290  0.36870  0.39860  Biso   1.000  C
  H129     1.0000 0.36600  0.62050  0.33280  Biso   1.000  H
  H130     1.0000 0.87950  0.36600  0.83280  Biso   1.000  H
  H131     1.0000 0.62050  0.13400  0.83280  Biso   1.000  H
  H132     1.0000 0.12050  0.86600  0.66720  Biso   1.000  H
  H133     1.0000 0.13400  0.87950  0.33280  Biso   1.000  H
  H134     1.0000 0.63400  0.12050  0.16720  Biso   1.000  H
  H135     1.0000 0.86600  0.37950  0.16720  Biso   1.000  H
  H136     1.0000 0.37950  0.63400  0.66720  Biso   1.000  H
  H137     1.0000 0.63400  0.37950  0.66720  Biso   1.000  H
  H138     1.0000 0.12050  0.63400  0.16720  Biso   1.000  H
  H139     1.0000 0.37950  0.86600  0.16720  Biso   1.000  H
  H140     1.0000 0.87950  0.13400  0.33280  Biso   1.000  H
  H141     1.0000 0.86600  0.12050  0.66720  Biso   1.000  H
  H142     1.0000 0.36600  0.87950  0.83280  Biso   1.000  H
  H143     1.0000 0.13400  0.62050  0.83280  Biso   1.000  H
  H144     1.0000 0.62050  0.36600  0.33280  Biso   1.000  H
  C225     1.0000 0.34220  0.65360  0.44960  Biso   1.000  C
  C226     1.0000 0.84640  0.34220  0.94960  Biso   1.000  C
  C227     1.0000 0.65360  0.15780  0.94960  Biso   1.000  C
  C228     1.0000 0.15360  0.84220  0.55040  Biso   1.000  C
  C229     1.0000 0.15780  0.84640  0.44960  Biso   1.000  C
  C230     1.0000 0.65780  0.15360  0.05040  Biso   1.000  C
  C231     1.0000 0.84220  0.34640  0.05040  Biso   1.000  C
  C232     1.0000 0.34640  0.65780  0.55040  Biso   1.000  C
  C233     1.0000 0.65780  0.34640  0.55040  Biso   1.000  C
  C234     1.0000 0.15360  0.65780  0.05040  Biso   1.000  C
  C235     1.0000 0.34640  0.84220  0.05040  Biso   1.000  C
  C236     1.0000 0.84640  0.15780  0.44960  Biso   1.000  C
  C237     1.0000 0.84220  0.15360  0.55040  Biso   1.000  C
  C238     1.0000 0.34220  0.84640  0.94960  Biso   1.000  C
  C239     1.0000 0.15780  0.65360  0.94960  Biso   1.000  C
  C240     1.0000 0.65360  0.34220  0.44960  Biso   1.000  C
  H145     1.0000 0.32070  0.67260  0.41780  Biso   1.000  H
  H146     1.0000 0.82740  0.32070  0.91780  Biso   1.000  H
  H147     1.0000 0.67260  0.17930  0.91780  Biso   1.000  H
  H148     1.0000 0.17260  0.82070  0.58220  Biso   1.000  H
  H149     1.0000 0.17930  0.82740  0.41780  Biso   1.000  H
  H150     1.0000 0.67930  0.17260  0.08220  Biso   1.000  H
  H151     1.0000 0.82070  0.32740  0.08220  Biso   1.000  H
  H152     1.0000 0.32740  0.67930  0.58220  Biso   1.000  H
  H153     1.0000 0.67930  0.32740  0.58220  Biso   1.000  H
  H154     1.0000 0.17260  0.67930  0.08220  Biso   1.000  H
  H155     1.0000 0.32740  0.82070  0.08220  Biso   1.000  H
  H156     1.0000 0.82740  0.17930  0.41780  Biso   1.000  H
  H157     1.0000 0.82070  0.17260  0.58220  Biso   1.000  H
  H158     1.0000 0.32070  0.82740  0.91780  Biso   1.000  H
  H159     1.0000 0.17930  0.67260  0.91780  Biso   1.000  H
  H160     1.0000 0.67260  0.32070  0.41780  Biso   1.000  H
  C241     1.0000 0.57430  0.83150  0.40110  Biso   1.000  C
  C242     1.0000 0.66850  0.57430  0.90110  Biso   1.000  C
  C243     1.0000 0.83150  0.92570  0.90110  Biso   1.000  C
  C244     1.0000 0.33150  0.07430  0.59890  Biso   1.000  C
  C245     1.0000 0.92570  0.66850  0.40110  Biso   1.000  C
  C246     1.0000 0.42570  0.33150  0.09890  Biso   1.000  C
  C247     1.0000 0.07430  0.16850  0.09890  Biso   1.000  C
  C248     1.0000 0.16850  0.42570  0.59890  Biso   1.000  C
  C249     1.0000 0.42570  0.16850  0.59890  Biso   1.000  C
  C250     1.0000 0.33150  0.42570  0.09890  Biso   1.000  C
  C251     1.0000 0.16850  0.07430  0.09890  Biso   1.000  C
  C252     1.0000 0.66850  0.92570  0.40110  Biso   1.000  C
  C253     1.0000 0.07430  0.33150  0.59890  Biso   1.000  C
  C254     1.0000 0.57430  0.66850  0.90110  Biso   1.000  C
  C255     1.0000 0.92570  0.83150  0.90110  Biso   1.000  C
  C256     1.0000 0.83150  0.57430  0.40110  Biso   1.000  C
  H161     1.0000 0.56260  0.85850  0.36760  Biso   1.000  H
  H162     1.0000 0.64150  0.56260  0.86760  Biso   1.000  H
  H163     1.0000 0.85850  0.93740  0.86760  Biso   1.000  H
  H164     1.0000 0.35850  0.06260  0.63240  Biso   1.000  H
  H165     1.0000 0.93740  0.64150  0.36760  Biso   1.000  H
  H166     1.0000 0.43740  0.35850  0.13240  Biso   1.000  H
  H167     1.0000 0.06260  0.14150  0.13240  Biso   1.000  H
  H168     1.0000 0.14150  0.43740  0.63240  Biso   1.000  H
  H169     1.0000 0.43740  0.14150  0.63240  Biso   1.000  H
  H170     1.0000 0.35850  0.43740  0.13240  Biso   1.000  H
  H171     1.0000 0.14150  0.06260  0.13240  Biso   1.000  H
  H172     1.0000 0.64150  0.93740  0.36760  Biso   1.000  H
  H173     1.0000 0.06260  0.35850  0.63240  Biso   1.000  H
  H174     1.0000 0.56260  0.64150  0.86760  Biso   1.000  H
  H175     1.0000 0.93740  0.85850  0.86760  Biso   1.000  H
  H176     1.0000 0.85850  0.56260  0.36760  Biso   1.000  H
  H177     1.0000 0.59710  0.81550  0.36220  Biso   1.000  H
  H178     1.0000 0.68450  0.59710  0.86220  Biso   1.000  H
  H179     1.0000 0.81550  0.90290  0.86220  Biso   1.000  H
  H180     1.0000 0.31550  0.09710  0.63780  Biso   1.000  H
  H181     1.0000 0.90290  0.68450  0.36220  Biso   1.000  H
  H182     1.0000 0.40290  0.31550  0.13780  Biso   1.000  H
  H183     1.0000 0.09710  0.18450  0.13780  Biso   1.000  H
  H184     1.0000 0.18450  0.40290  0.63780  Biso   1.000  H
  H185     1.0000 0.40290  0.18450  0.63780  Biso   1.000  H
  H186     1.0000 0.31550  0.40290  0.13780  Biso   1.000  H
  H187     1.0000 0.18450  0.09710  0.13780  Biso   1.000  H
  H188     1.0000 0.68450  0.90290  0.36220  Biso   1.000  H
  H189     1.0000 0.09710  0.31550  0.63780  Biso   1.000  H
  H190     1.0000 0.59710  0.68450  0.86220  Biso   1.000  H
  H191     1.0000 0.90290  0.81550  0.86220  Biso   1.000  H
  H192     1.0000 0.81550  0.59710  0.36220  Biso   1.000  H
  H193     1.0000 0.58900  0.84140  0.45930  Biso   1.000  H
  H194     1.0000 0.65860  0.58900  0.95930  Biso   1.000  H
  H195     1.0000 0.84140  0.91100  0.95930  Biso   1.000  H
  H196     1.0000 0.34140  0.08900  0.54070  Biso   1.000  H
  H197     1.0000 0.91100  0.65860  0.45930  Biso   1.000  H
  H198     1.0000 0.41100  0.34140  0.04070  Biso   1.000  H
  H199     1.0000 0.08900  0.15860  0.04070  Biso   1.000  H
  H200     1.0000 0.15860  0.41100  0.54070  Biso   1.000  H
  H201     1.0000 0.41100  0.15860  0.54070  Biso   1.000  H
  H202     1.0000 0.34140  0.41100  0.04070  Biso   1.000  H
  H203     1.0000 0.15860  0.08900  0.04070  Biso   1.000  H
  H204     1.0000 0.65860  0.91100  0.45930  Biso   1.000  H
  H205     1.0000 0.08900  0.34140  0.54070  Biso   1.000  H
  H206     1.0000 0.58900  0.65860  0.95930  Biso   1.000  H
  H207     1.0000 0.91100  0.84140  0.95930  Biso   1.000  H
  H208     1.0000 0.84140  0.58900  0.45930  Biso   1.000  H
  C257     1.0000 0.41540  0.78630  0.46290  Biso   1.000  C
  C258     1.0000 0.71370  0.41540  0.96290  Biso   1.000  C
  C259     1.0000 0.78630  0.08460  0.96290  Biso   1.000  C
  C260     1.0000 0.28630  0.91540  0.53710  Biso   1.000  C
  C261     1.0000 0.08460  0.71370  0.46290  Biso   1.000  C
  C262     1.0000 0.58460  0.28630  0.03710  Biso   1.000  C
  C263     1.0000 0.91540  0.21370  0.03710  Biso   1.000  C
  C264     1.0000 0.21370  0.58460  0.53710  Biso   1.000  C
  C265     1.0000 0.58460  0.21370  0.53710  Biso   1.000  C
  C266     1.0000 0.28630  0.58460  0.03710  Biso   1.000  C
  C267     1.0000 0.21370  0.91540  0.03710  Biso   1.000  C
  C268     1.0000 0.71370  0.08460  0.46290  Biso   1.000  C
  C269     1.0000 0.91540  0.28630  0.53710  Biso   1.000  C
  C270     1.0000 0.41540  0.71370  0.96290  Biso   1.000  C
  C271     1.0000 0.08460  0.78630  0.96290  Biso   1.000  C
  C272     1.0000 0.78630  0.41540  0.46290  Biso   1.000  C
  H209     1.0000 0.40670  0.77510  0.52490  Biso   1.000  H
  H210     1.0000 0.72490  0.40670  0.02490  Biso   1.000  H
  H211     1.0000 0.77510  0.09330  0.02490  Biso   1.000  H
  H212     1.0000 0.27510  0.90670  0.47510  Biso   1.000  H
  H213     1.0000 0.09330  0.72490  0.52490  Biso   1.000  H
  H214     1.0000 0.59330  0.27510  0.97510  Biso   1.000  H
  H215     1.0000 0.90670  0.22490  0.97510  Biso   1.000  H
  H216     1.0000 0.22490  0.59330  0.47510  Biso   1.000  H
  H217     1.0000 0.59330  0.22490  0.47510  Biso   1.000  H
  H218     1.0000 0.27510  0.59330  0.97510  Biso   1.000  H
  H219     1.0000 0.22490  0.90670  0.97510  Biso   1.000  H
  H220     1.0000 0.72490  0.09330  0.52490  Biso   1.000  H
  H221     1.0000 0.90670  0.27510  0.47510  Biso   1.000  H
  H222     1.0000 0.40670  0.72490  0.02490  Biso   1.000  H
  H223     1.0000 0.09330  0.77510  0.02490  Biso   1.000  H
  H224     1.0000 0.77510  0.40670  0.52490  Biso   1.000  H
  H225     1.0000 0.39920  0.76830  0.41530  Biso   1.000  H
  H226     1.0000 0.73170  0.39920  0.91530  Biso   1.000  H
  H227     1.0000 0.76830  0.10080  0.91530  Biso   1.000  H
  H228     1.0000 0.26830  0.89920  0.58470  Biso   1.000  H
  H229     1.0000 0.10080  0.73170  0.41530  Biso   1.000  H
  H230     1.0000 0.60080  0.26830  0.08470  Biso   1.000  H
  H231     1.0000 0.89920  0.23170  0.08470  Biso   1.000  H
  H232     1.0000 0.23170  0.60080  0.58470  Biso   1.000  H
  H233     1.0000 0.60080  0.23170  0.58470  Biso   1.000  H
  H234     1.0000 0.26830  0.60080  0.08470  Biso   1.000  H
  H235     1.0000 0.23170  0.89920  0.08470  Biso   1.000  H
  H236     1.0000 0.73170  0.10080  0.41530  Biso   1.000  H
  H237     1.0000 0.89920  0.26830  0.58470  Biso   1.000  H
  H238     1.0000 0.39920  0.73170  0.91530  Biso   1.000  H
  H239     1.0000 0.10080  0.76830  0.91530  Biso   1.000  H
  H240     1.0000 0.76830  0.39920  0.41530  Biso   1.000  H
  H241     1.0000 0.40680  0.81890  0.45710  Biso   1.000  H
  H242     1.0000 0.68110  0.40680  0.95710  Biso   1.000  H
  H243     1.0000 0.81890  0.09320  0.95710  Biso   1.000  H
  H244     1.0000 0.31890  0.90680  0.54290  Biso   1.000  H
  H245     1.0000 0.09320  0.68110  0.45710  Biso   1.000  H
  H246     1.0000 0.59320  0.31890  0.04290  Biso   1.000  H
  H247     1.0000 0.90680  0.18110  0.04290  Biso   1.000  H
  H248     1.0000 0.18110  0.59320  0.54290  Biso   1.000  H
  H249     1.0000 0.59320  0.18110  0.54290  Biso   1.000  H
  H250     1.0000 0.31890  0.59320  0.04290  Biso   1.000  H
  H251     1.0000 0.18110  0.90680  0.04290  Biso   1.000  H
  H252     1.0000 0.68110  0.09320  0.45710  Biso   1.000  H
  H253     1.0000 0.90680  0.31890  0.54290  Biso   1.000  H
  H254     1.0000 0.40680  0.68110  0.95710  Biso   1.000  H
  H255     1.0000 0.09320  0.81890  0.95710  Biso   1.000  H
  H256     1.0000 0.81890  0.40680  0.45710  Biso   1.000  H
  Cu69     1.0000 0.72551  0.77449  0.26160  Biso   1.000  Cu
  Cu70     1.0000 0.72551  0.72551  0.76160  Biso   1.000  Cu
  Cu71     1.0000 0.77449  0.77449  0.76160  Biso   1.000  Cu
  Cu72     1.0000 0.27449  0.22551  0.73840  Biso   1.000  Cu
  Cu73     1.0000 0.77449  0.72551  0.26160  Biso   1.000  Cu
  Cu74     1.0000 0.27449  0.27449  0.23840  Biso   1.000  Cu
  Cu75     1.0000 0.22551  0.22551  0.23840  Biso   1.000  Cu
  Cu76     1.0000 0.22551  0.27449  0.73840  Biso   1.000  Cu
  Cu77     1.0000 0.77522  0.72478  0.06230  Biso   1.000  Cu
  Cu78     1.0000 0.77522  0.77522  0.56230  Biso   1.000  Cu
  Cu79     1.0000 0.72478  0.72478  0.56230  Biso   1.000  Cu
  Cu80     1.0000 0.22478  0.27522  0.93770  Biso   1.000  Cu
  Cu81     1.0000 0.72478  0.77522  0.06230  Biso   1.000  Cu
  Cu82     1.0000 0.22478  0.22478  0.43770  Biso   1.000  Cu
  Cu83     1.0000 0.27522  0.27522  0.43770  Biso   1.000  Cu
  Cu84     1.0000 0.27522  0.22478  0.93770  Biso   1.000  Cu
  I65      1.0000 0.25000  0.75000  0.25000  Biso   1.000  I
  I66      1.0000 0.75000  0.25000  0.75000  Biso   1.000  I
  I67      1.0000 0.25000  0.75000  0.75000  Biso   1.000  I
  I68      1.0000 0.75000  0.25000  0.25000  Biso   1.000  I
  I69      1.0000 0.30677  0.82666  0.31631  Biso   1.000  I
  I70      1.0000 0.67334  0.30677  0.81631  Biso   1.000  I
  I71      1.0000 0.82666  0.19323  0.81631  Biso   1.000  I
  I72      1.0000 0.32666  0.80677  0.68369  Biso   1.000  I
  I73      1.0000 0.19323  0.67334  0.31631  Biso   1.000  I
  I74      1.0000 0.69323  0.32666  0.18369  Biso   1.000  I
  I75      1.0000 0.80677  0.17334  0.18369  Biso   1.000  I
  I76      1.0000 0.17334  0.69323  0.68369  Biso   1.000  I
  I77      1.0000 0.69323  0.17334  0.68369  Biso   1.000  I
  I78      1.0000 0.32666  0.69323  0.18369  Biso   1.000  I
  I79      1.0000 0.17334  0.80677  0.18369  Biso   1.000  I
  I80      1.0000 0.67334  0.19323  0.31631  Biso   1.000  I
  I81      1.0000 0.80677  0.32666  0.68369  Biso   1.000  I
  I82      1.0000 0.30677  0.67334  0.81631  Biso   1.000  I
  I83      1.0000 0.19323  0.82666  0.81631  Biso   1.000  I
  I84      1.0000 0.82666  0.30677  0.31631  Biso   1.000  I
  I85      1.0000 0.28645  0.79446  0.38567  Biso   1.000  I
  I86      1.0000 0.70554  0.28645  0.88567  Biso   1.000  I
  I87      1.0000 0.79446  0.21355  0.88567  Biso   1.000  I
  I88      1.0000 0.29446  0.78645  0.61433  Biso   1.000  I
  I89      1.0000 0.21355  0.70554  0.38567  Biso   1.000  I
  I90      1.0000 0.71355  0.29446  0.11433  Biso   1.000  I
  I91      1.0000 0.78645  0.20554  0.11433  Biso   1.000  I
  I92      1.0000 0.20554  0.71355  0.61433  Biso   1.000  I
  I93      1.0000 0.71355  0.20554  0.61433  Biso   1.000  I
  I94      1.0000 0.29446  0.71355  0.11433  Biso   1.000  I
  I95      1.0000 0.20554  0.78645  0.11433  Biso   1.000  I
  I96      1.0000 0.70554  0.21355  0.38567  Biso   1.000  I
  I97      1.0000 0.78645  0.29446  0.61433  Biso   1.000  I
  I98      1.0000 0.28645  0.70554  0.88567  Biso   1.000  I
  I99      1.0000 0.21355  0.79446  0.88567  Biso   1.000  I
  I100     1.0000 0.79446  0.28645  0.38567  Biso   1.000  I
  I101     1.0000 0.27203  0.77343  0.43570  Biso   1.000  I
  I102     1.0000 0.72657  0.27203  0.93570  Biso   1.000  I
  I103     1.0000 0.77343  0.22797  0.93570  Biso   1.000  I
  I104     1.0000 0.27343  0.77203  0.56430  Biso   1.000  I
  I105     1.0000 0.22797  0.72657  0.43570  Biso   1.000  I
  I106     1.0000 0.72797  0.27343  0.06430  Biso   1.000  I
  I107     1.0000 0.77203  0.22657  0.06430  Biso   1.000  I
  I108     1.0000 0.22657  0.72797  0.56430  Biso   1.000  I
  I109     1.0000 0.72797  0.22657  0.56430  Biso   1.000  I
  I110     1.0000 0.27343  0.72797  0.06430  Biso   1.000  I
  I111     1.0000 0.22657  0.77203  0.06430  Biso   1.000  I
  I112     1.0000 0.72657  0.22797  0.43570  Biso   1.000  I
  I113     1.0000 0.77203  0.27343  0.56430  Biso   1.000  I
  I114     1.0000 0.27203  0.72657  0.93570  Biso   1.000  I
  I115     1.0000 0.22797  0.77343  0.93570  Biso   1.000  I
  I116     1.0000 0.77343  0.27203  0.43570  Biso   1.000  I
