data_image0
_cell_length_a       14.95
_cell_length_b       35.3082
_cell_length_c       11.6471
_cell_angle_alpha    90
_cell_angle_beta     90
_cell_angle_gamma    90

_symmetry_space_group_name_H-M    "P 1"
_symmetry_int_tables_number       1

loop_
  _symmetry_equiv_pos_as_xyz
  'x, y, z'

loop_
  _atom_site_label
  _atom_site_occupancy
  _atom_site_fract_x
  _atom_site_fract_y
  _atom_site_fract_z
  _atom_site_thermal_displace_type
  _atom_site_B_iso_or_equiv
  _atom_site_type_symbol
  Cu1      1.0000 0.02147  0.14356  0.68337  Biso   1.000  Cu
  Cu2      1.0000 0.97853  0.85644  0.68337  Biso   1.000  Cu
  Cu3      1.0000 0.27147  0.10644  0.93337  Biso   1.000  Cu
  Cu4      1.0000 0.22853  0.39356  0.93337  Biso   1.000  Cu
  Cu5      1.0000 0.02147  0.64356  0.18337  Biso   1.000  Cu
  Cu6      1.0000 0.97853  0.35644  0.18337  Biso   1.000  Cu
  Cu7      1.0000 0.27147  0.60644  0.43337  Biso   1.000  Cu
  Cu8      1.0000 0.22853  0.89356  0.43337  Biso   1.000  Cu
  Cu9      1.0000 0.52147  0.14356  0.18337  Biso   1.000  Cu
  Cu10     1.0000 0.47853  0.85644  0.18337  Biso   1.000  Cu
  Cu11     1.0000 0.77147  0.10644  0.43337  Biso   1.000  Cu
  Cu12     1.0000 0.72853  0.39356  0.43337  Biso   1.000  Cu
  Cu13     1.0000 0.52147  0.64356  0.68337  Biso   1.000  Cu
  Cu14     1.0000 0.47853  0.35644  0.68337  Biso   1.000  Cu
  Cu15     1.0000 0.77147  0.60644  0.93337  Biso   1.000  Cu
  Cu16     1.0000 0.72853  0.89356  0.93337  Biso   1.000  Cu
  C1       1.0000 0.11260  0.12838  0.78630  Biso   1.000  C
  C2       1.0000 0.88740  0.87162  0.78630  Biso   1.000  C
  C3       1.0000 0.36260  0.12162  0.03630  Biso   1.000  C
  C4       1.0000 0.13740  0.37838  0.03630  Biso   1.000  C
  C5       1.0000 0.11260  0.62838  0.28630  Biso   1.000  C
  C6       1.0000 0.88740  0.37162  0.28630  Biso   1.000  C
  C7       1.0000 0.36260  0.62162  0.53630  Biso   1.000  C
  C8       1.0000 0.13740  0.87838  0.53630  Biso   1.000  C
  C9       1.0000 0.61260  0.12838  0.28630  Biso   1.000  C
  C10      1.0000 0.38740  0.87162  0.28630  Biso   1.000  C
  C11      1.0000 0.86260  0.12162  0.53630  Biso   1.000  C
  C12      1.0000 0.63740  0.37838  0.53630  Biso   1.000  C
  C13      1.0000 0.61260  0.62838  0.78630  Biso   1.000  C
  C14      1.0000 0.38740  0.37162  0.78630  Biso   1.000  C
  C15      1.0000 0.86260  0.62162  0.03630  Biso   1.000  C
  C16      1.0000 0.63740  0.87838  0.03630  Biso   1.000  C
  N1       1.0000 0.17170  0.12108  0.84530  Biso   1.000  N
  N2       1.0000 0.82830  0.87892  0.84530  Biso   1.000  N
  N3       1.0000 0.42170  0.12892  0.09530  Biso   1.000  N
  N4       1.0000 0.07830  0.37108  0.09530  Biso   1.000  N
  N5       1.0000 0.17170  0.62108  0.34530  Biso   1.000  N
  N6       1.0000 0.82830  0.37892  0.34530  Biso   1.000  N
  N7       1.0000 0.42170  0.62892  0.59530  Biso   1.000  N
  N8       1.0000 0.07830  0.87108  0.59530  Biso   1.000  N
  N9       1.0000 0.67170  0.12108  0.34530  Biso   1.000  N
  N10      1.0000 0.32830  0.87892  0.34530  Biso   1.000  N
  N11      1.0000 0.92170  0.12892  0.59530  Biso   1.000  N
  N12      1.0000 0.57830  0.37108  0.59530  Biso   1.000  N
  N13      1.0000 0.67170  0.62108  0.84530  Biso   1.000  N
  N14      1.0000 0.32830  0.37892  0.84530  Biso   1.000  N
  N15      1.0000 0.92170  0.62892  0.09530  Biso   1.000  N
  N16      1.0000 0.57830  0.87108  0.09530  Biso   1.000  N
  N17      1.0000 0.04255  0.20156  0.65580  Biso   1.000  N
  N18      1.0000 0.95745  0.79844  0.65580  Biso   1.000  N
  N19      1.0000 0.29255  0.04844  0.90580  Biso   1.000  N
  N20      1.0000 0.20745  0.45156  0.90580  Biso   1.000  N
  N21      1.0000 0.04255  0.70156  0.15580  Biso   1.000  N
  N22      1.0000 0.95745  0.29844  0.15580  Biso   1.000  N
  N23      1.0000 0.29255  0.54844  0.40580  Biso   1.000  N
  N24      1.0000 0.20745  0.95156  0.40580  Biso   1.000  N
  N25      1.0000 0.54255  0.20156  0.15580  Biso   1.000  N
  N26      1.0000 0.45745  0.79844  0.15580  Biso   1.000  N
  N27      1.0000 0.79255  0.04844  0.40580  Biso   1.000  N
  N28      1.0000 0.70745  0.45156  0.40580  Biso   1.000  N
  N29      1.0000 0.54255  0.70156  0.65580  Biso   1.000  N
  N30      1.0000 0.45745  0.29844  0.65580  Biso   1.000  N
  N31      1.0000 0.79255  0.54844  0.90580  Biso   1.000  N
  N32      1.0000 0.70745  0.95156  0.90580  Biso   1.000  N
  C17      1.0000 0.09900  0.22158  0.71970  Biso   1.000  C
  C18      1.0000 0.90100  0.77842  0.71970  Biso   1.000  C
  C19      1.0000 0.34900  0.02842  0.96970  Biso   1.000  C
  C20      1.0000 0.15100  0.47158  0.96970  Biso   1.000  C
  C21      1.0000 0.09900  0.72158  0.21970  Biso   1.000  C
  C22      1.0000 0.90100  0.27842  0.21970  Biso   1.000  C
  C23      1.0000 0.34900  0.52842  0.46970  Biso   1.000  C
  C24      1.0000 0.15100  0.97158  0.46970  Biso   1.000  C
  C25      1.0000 0.59900  0.22158  0.21970  Biso   1.000  C
  C26      1.0000 0.40100  0.77842  0.21970  Biso   1.000  C
  C27      1.0000 0.84900  0.02842  0.46970  Biso   1.000  C
  C28      1.0000 0.65100  0.47158  0.46970  Biso   1.000  C
  C29      1.0000 0.59900  0.72158  0.71970  Biso   1.000  C
  C30      1.0000 0.40100  0.27842  0.71970  Biso   1.000  C
  C31      1.0000 0.84900  0.52842  0.96970  Biso   1.000  C
  C32      1.0000 0.65100  0.97158  0.96970  Biso   1.000  C
  H1       1.0000 0.13630  0.20860  0.77000  Biso   1.000  H
  H2       1.0000 0.86370  0.79140  0.77000  Biso   1.000  H
  H3       1.0000 0.38630  0.04140  0.02000  Biso   1.000  H
  H4       1.0000 0.11370  0.45860  0.02000  Biso   1.000  H
  H5       1.0000 0.13630  0.70860  0.27000  Biso   1.000  H
  H6       1.0000 0.86370  0.29140  0.27000  Biso   1.000  H
  H7       1.0000 0.38630  0.54140  0.52000  Biso   1.000  H
  H8       1.0000 0.11370  0.95860  0.52000  Biso   1.000  H
  H9       1.0000 0.63630  0.20860  0.27000  Biso   1.000  H
  H10      1.0000 0.36370  0.79140  0.27000  Biso   1.000  H
  H11      1.0000 0.88630  0.04140  0.52000  Biso   1.000  H
  H12      1.0000 0.61370  0.45860  0.52000  Biso   1.000  H
  H13      1.0000 0.63630  0.70860  0.77000  Biso   1.000  H
  H14      1.0000 0.36370  0.29140  0.77000  Biso   1.000  H
  H15      1.0000 0.88630  0.54140  0.02000  Biso   1.000  H
  H16      1.0000 0.61370  0.95860  0.02000  Biso   1.000  H
  C33      1.0000 0.10540  0.26052  0.71560  Biso   1.000  C
  C34      1.0000 0.89460  0.73948  0.71560  Biso   1.000  C
  C35      1.0000 0.35540  0.98948  0.96560  Biso   1.000  C
  C36      1.0000 0.14460  0.51052  0.96560  Biso   1.000  C
  C37      1.0000 0.10540  0.76052  0.21560  Biso   1.000  C
  C38      1.0000 0.89460  0.23948  0.21560  Biso   1.000  C
  C39      1.0000 0.35540  0.48948  0.46560  Biso   1.000  C
  C40      1.0000 0.14460  0.01052  0.46560  Biso   1.000  C
  C41      1.0000 0.60540  0.26052  0.21560  Biso   1.000  C
  C42      1.0000 0.39460  0.73948  0.21560  Biso   1.000  C
  C43      1.0000 0.85540  0.98948  0.46560  Biso   1.000  C
  C44      1.0000 0.64460  0.51052  0.46560  Biso   1.000  C
  C45      1.0000 0.60540  0.76052  0.71560  Biso   1.000  C
  C46      1.0000 0.39460  0.23948  0.71560  Biso   1.000  C
  C47      1.0000 0.85540  0.48948  0.96560  Biso   1.000  C
  C48      1.0000 0.64460  0.01052  0.96560  Biso   1.000  C
  H17      1.0000 0.14680  0.27280  0.76210  Biso   1.000  H
  H18      1.0000 0.85320  0.72720  0.76210  Biso   1.000  H
  H19      1.0000 0.39680  0.97720  0.01210  Biso   1.000  H
  H20      1.0000 0.10320  0.52280  0.01210  Biso   1.000  H
  H21      1.0000 0.14680  0.77280  0.26210  Biso   1.000  H
  H22      1.0000 0.85320  0.22720  0.26210  Biso   1.000  H
  H23      1.0000 0.39680  0.47720  0.51210  Biso   1.000  H
  H24      1.0000 0.10320  0.02280  0.51210  Biso   1.000  H
  H25      1.0000 0.64680  0.27280  0.26210  Biso   1.000  H
  H26      1.0000 0.35320  0.72720  0.26210  Biso   1.000  H
  H27      1.0000 0.89680  0.97720  0.51210  Biso   1.000  H
  H28      1.0000 0.60320  0.52280  0.51210  Biso   1.000  H
  H29      1.0000 0.64680  0.77280  0.76210  Biso   1.000  H
  H30      1.0000 0.35320  0.22720  0.76210  Biso   1.000  H
  H31      1.0000 0.89680  0.47720  0.01210  Biso   1.000  H
  H32      1.0000 0.60320  0.02280  0.01210  Biso   1.000  H
  C49      1.0000 0.05240  0.28109  0.64480  Biso   1.000  C
  C50      1.0000 0.94760  0.71891  0.64480  Biso   1.000  C
  C51      1.0000 0.30240  0.96891  0.89480  Biso   1.000  C
  C52      1.0000 0.19760  0.53109  0.89480  Biso   1.000  C
  C53      1.0000 0.05240  0.78109  0.14480  Biso   1.000  C
  C54      1.0000 0.94760  0.21891  0.14480  Biso   1.000  C
  C55      1.0000 0.30240  0.46891  0.39480  Biso   1.000  C
  C56      1.0000 0.19760  0.03109  0.39480  Biso   1.000  C
  C57      1.0000 0.55240  0.28109  0.14480  Biso   1.000  C
  C58      1.0000 0.44760  0.71891  0.14480  Biso   1.000  C
  C59      1.0000 0.80240  0.96891  0.39480  Biso   1.000  C
  C60      1.0000 0.69760  0.53109  0.39480  Biso   1.000  C
  C61      1.0000 0.55240  0.78109  0.64480  Biso   1.000  C
  C62      1.0000 0.44760  0.21891  0.64480  Biso   1.000  C
  C63      1.0000 0.80240  0.46891  0.89480  Biso   1.000  C
  C64      1.0000 0.69760  0.03109  0.89480  Biso   1.000  C
  C65      1.0000 0.99460  0.26062  0.57600  Biso   1.000  C
  C66      1.0000 0.00540  0.73938  0.57600  Biso   1.000  C
  C67      1.0000 0.24460  0.98938  0.82600  Biso   1.000  C
  C68      1.0000 0.25540  0.51062  0.82600  Biso   1.000  C
  C69      1.0000 0.99460  0.76062  0.07600  Biso   1.000  C
  C70      1.0000 0.00540  0.23938  0.07600  Biso   1.000  C
  C71      1.0000 0.24460  0.48938  0.32600  Biso   1.000  C
  C72      1.0000 0.25540  0.01062  0.32600  Biso   1.000  C
  C73      1.0000 0.49460  0.26062  0.07600  Biso   1.000  C
  C74      1.0000 0.50540  0.73938  0.07600  Biso   1.000  C
  C75      1.0000 0.74460  0.98938  0.32600  Biso   1.000  C
  C76      1.0000 0.75540  0.51062  0.32600  Biso   1.000  C
  C77      1.0000 0.49460  0.76062  0.57600  Biso   1.000  C
  C78      1.0000 0.50540  0.23938  0.57600  Biso   1.000  C
  C79      1.0000 0.74460  0.48938  0.82600  Biso   1.000  C
  C80      1.0000 0.75540  0.01062  0.82600  Biso   1.000  C
  H33      1.0000 0.95760  0.27310  0.52420  Biso   1.000  H
  H34      1.0000 0.04240  0.72690  0.52420  Biso   1.000  H
  H35      1.0000 0.20760  0.97690  0.77420  Biso   1.000  H
  H36      1.0000 0.29240  0.52310  0.77420  Biso   1.000  H
  H37      1.0000 0.95760  0.77310  0.02420  Biso   1.000  H
  H38      1.0000 0.04240  0.22690  0.02420  Biso   1.000  H
  H39      1.0000 0.20760  0.47690  0.27420  Biso   1.000  H
  H40      1.0000 0.29240  0.02310  0.27420  Biso   1.000  H
  H41      1.0000 0.45760  0.27310  0.02420  Biso   1.000  H
  H42      1.0000 0.54240  0.72690  0.02420  Biso   1.000  H
  H43      1.0000 0.70760  0.97690  0.27420  Biso   1.000  H
  H44      1.0000 0.79240  0.52310  0.27420  Biso   1.000  H
  H45      1.0000 0.45760  0.77310  0.52420  Biso   1.000  H
  H46      1.0000 0.54240  0.22690  0.52420  Biso   1.000  H
  H47      1.0000 0.70760  0.47690  0.77420  Biso   1.000  H
  H48      1.0000 0.79240  0.02310  0.77420  Biso   1.000  H
  C81      1.0000 0.99180  0.22162  0.58380  Biso   1.000  C
  C82      1.0000 0.00820  0.77838  0.58380  Biso   1.000  C
  C83      1.0000 0.24180  0.02838  0.83380  Biso   1.000  C
  C84      1.0000 0.25820  0.47162  0.83380  Biso   1.000  C
  C85      1.0000 0.99180  0.72162  0.08380  Biso   1.000  C
  C86      1.0000 0.00820  0.27838  0.08380  Biso   1.000  C
  C87      1.0000 0.24180  0.52838  0.33380  Biso   1.000  C
  C88      1.0000 0.25820  0.97162  0.33380  Biso   1.000  C
  C89      1.0000 0.49180  0.22162  0.08380  Biso   1.000  C
  C90      1.0000 0.50820  0.77838  0.08380  Biso   1.000  C
  C91      1.0000 0.74180  0.02838  0.33380  Biso   1.000  C
  C92      1.0000 0.75820  0.47162  0.33380  Biso   1.000  C
  C93      1.0000 0.49180  0.72162  0.58380  Biso   1.000  C
  C94      1.0000 0.50820  0.27838  0.58380  Biso   1.000  C
  C95      1.0000 0.74180  0.52838  0.83380  Biso   1.000  C
  C96      1.0000 0.75820  0.97162  0.83380  Biso   1.000  C
  H49      1.0000 0.95230  0.20860  0.53620  Biso   1.000  H
  H50      1.0000 0.04770  0.79140  0.53620  Biso   1.000  H
  H51      1.0000 0.20230  0.04140  0.78620  Biso   1.000  H
  H52      1.0000 0.29770  0.45860  0.78620  Biso   1.000  H
  H53      1.0000 0.95230  0.70860  0.03620  Biso   1.000  H
  H54      1.0000 0.04770  0.29140  0.03620  Biso   1.000  H
  H55      1.0000 0.20230  0.54140  0.28620  Biso   1.000  H
  H56      1.0000 0.29770  0.95860  0.28620  Biso   1.000  H
  H57      1.0000 0.45230  0.20860  0.03620  Biso   1.000  H
  H58      1.0000 0.54770  0.79140  0.03620  Biso   1.000  H
  H59      1.0000 0.70230  0.04140  0.28620  Biso   1.000  H
  H60      1.0000 0.79770  0.45860  0.28620  Biso   1.000  H
  H61      1.0000 0.45230  0.70860  0.53620  Biso   1.000  H
  H62      1.0000 0.54770  0.29140  0.53620  Biso   1.000  H
  H63      1.0000 0.70230  0.54140  0.78620  Biso   1.000  H
  H64      1.0000 0.79770  0.95860  0.78620  Biso   1.000  H
  C97      1.0000 0.05580  0.32450  0.64260  Biso   1.000  C
  C98      1.0000 0.94420  0.67550  0.64260  Biso   1.000  C
  C99      1.0000 0.30580  0.92550  0.89260  Biso   1.000  C
  C100     1.0000 0.19420  0.57450  0.89260  Biso   1.000  C
  C101     1.0000 0.05580  0.82450  0.14260  Biso   1.000  C
  C102     1.0000 0.94420  0.17550  0.14260  Biso   1.000  C
  C103     1.0000 0.30580  0.42550  0.39260  Biso   1.000  C
  C104     1.0000 0.19420  0.07450  0.39260  Biso   1.000  C
  C105     1.0000 0.55580  0.32450  0.14260  Biso   1.000  C
  C106     1.0000 0.44420  0.67550  0.14260  Biso   1.000  C
  C107     1.0000 0.80580  0.92550  0.39260  Biso   1.000  C
  C108     1.0000 0.69420  0.57450  0.39260  Biso   1.000  C
  C109     1.0000 0.55580  0.82450  0.64260  Biso   1.000  C
  C110     1.0000 0.44420  0.17550  0.64260  Biso   1.000  C
  C111     1.0000 0.80580  0.42550  0.89260  Biso   1.000  C
  C112     1.0000 0.69420  0.07450  0.89260  Biso   1.000  C
  C113     1.0000 0.01060  0.34060  0.54400  Biso   1.000  C
  C114     1.0000 0.98940  0.65940  0.54400  Biso   1.000  C
  C115     1.0000 0.26060  0.90940  0.79400  Biso   1.000  C
  C116     1.0000 0.23940  0.59060  0.79400  Biso   1.000  C
  C117     1.0000 0.01060  0.84060  0.04400  Biso   1.000  C
  C118     1.0000 0.98940  0.15940  0.04400  Biso   1.000  C
  C119     1.0000 0.26060  0.40940  0.29400  Biso   1.000  C
  C120     1.0000 0.23940  0.09060  0.29400  Biso   1.000  C
  C121     1.0000 0.51060  0.34060  0.04400  Biso   1.000  C
  C122     1.0000 0.48940  0.65940  0.04400  Biso   1.000  C
  C123     1.0000 0.76060  0.90940  0.29400  Biso   1.000  C
  C124     1.0000 0.73940  0.59060  0.29400  Biso   1.000  C
  C125     1.0000 0.51060  0.84060  0.54400  Biso   1.000  C
  C126     1.0000 0.48940  0.15940  0.54400  Biso   1.000  C
  C127     1.0000 0.76060  0.40940  0.79400  Biso   1.000  C
  C128     1.0000 0.73940  0.09060  0.79400  Biso   1.000  C
  H65      1.0000 0.94720  0.33730  0.55220  Biso   1.000  H
  H66      1.0000 0.05280  0.66270  0.55220  Biso   1.000  H
  H67      1.0000 0.19720  0.91270  0.80220  Biso   1.000  H
  H68      1.0000 0.30280  0.58730  0.80220  Biso   1.000  H
  H69      1.0000 0.94720  0.83730  0.05220  Biso   1.000  H
  H70      1.0000 0.05280  0.16270  0.05220  Biso   1.000  H
  H71      1.0000 0.19720  0.41270  0.30220  Biso   1.000  H
  H72      1.0000 0.30280  0.08730  0.30220  Biso   1.000  H
  H73      1.0000 0.44720  0.33730  0.05220  Biso   1.000  H
  H74      1.0000 0.55280  0.66270  0.05220  Biso   1.000  H
  H75      1.0000 0.69720  0.91270  0.30220  Biso   1.000  H
  H76      1.0000 0.80280  0.58730  0.30220  Biso   1.000  H
  H77      1.0000 0.44720  0.83730  0.55220  Biso   1.000  H
  H78      1.0000 0.55280  0.16270  0.55220  Biso   1.000  H
  H79      1.0000 0.69720  0.41270  0.80220  Biso   1.000  H
  H80      1.0000 0.80280  0.08730  0.80220  Biso   1.000  H
  H81      1.0000 0.03050  0.32810  0.47540  Biso   1.000  H
  H82      1.0000 0.96950  0.67190  0.47540  Biso   1.000  H
  H83      1.0000 0.28050  0.92190  0.72540  Biso   1.000  H
  H84      1.0000 0.21950  0.57810  0.72540  Biso   1.000  H
  H85      1.0000 0.03050  0.82810  0.97540  Biso   1.000  H
  H86      1.0000 0.96950  0.17190  0.97540  Biso   1.000  H
  H87      1.0000 0.28050  0.42190  0.22540  Biso   1.000  H
  H88      1.0000 0.21950  0.07810  0.22540  Biso   1.000  H
  H89      1.0000 0.53050  0.32810  0.97540  Biso   1.000  H
  H90      1.0000 0.46950  0.67190  0.97540  Biso   1.000  H
  H91      1.0000 0.78050  0.92190  0.22540  Biso   1.000  H
  H92      1.0000 0.71950  0.57810  0.22540  Biso   1.000  H
  H93      1.0000 0.53050  0.82810  0.47540  Biso   1.000  H
  H94      1.0000 0.46950  0.17190  0.47540  Biso   1.000  H
  H95      1.0000 0.78050  0.42190  0.72540  Biso   1.000  H
  H96      1.0000 0.71950  0.07810  0.72540  Biso   1.000  H
  H97      1.0000 0.02410  0.36710  0.53890  Biso   1.000  H
  H98      1.0000 0.97590  0.63290  0.53890  Biso   1.000  H
  H99      1.0000 0.27410  0.88290  0.78890  Biso   1.000  H
  H100     1.0000 0.22590  0.61710  0.78890  Biso   1.000  H
  H101     1.0000 0.02410  0.86710  0.03890  Biso   1.000  H
  H102     1.0000 0.97590  0.13290  0.03890  Biso   1.000  H
  H103     1.0000 0.27410  0.38290  0.28890  Biso   1.000  H
  H104     1.0000 0.22590  0.11710  0.28890  Biso   1.000  H
  H105     1.0000 0.52410  0.36710  0.03890  Biso   1.000  H
  H106     1.0000 0.47590  0.63290  0.03890  Biso   1.000  H
  H107     1.0000 0.77410  0.88290  0.28890  Biso   1.000  H
  H108     1.0000 0.72590  0.61710  0.28890  Biso   1.000  H
  H109     1.0000 0.52410  0.86710  0.53890  Biso   1.000  H
  H110     1.0000 0.47590  0.13290  0.53890  Biso   1.000  H
  H111     1.0000 0.77410  0.38290  0.78890  Biso   1.000  H
  H112     1.0000 0.72590  0.11710  0.78890  Biso   1.000  H
  C129     1.0000 0.02030  0.33850  0.75820  Biso   1.000  C
  C130     1.0000 0.97970  0.66150  0.75820  Biso   1.000  C
  C131     1.0000 0.27030  0.91150  0.00820  Biso   1.000  C
  C132     1.0000 0.22970  0.58850  0.00820  Biso   1.000  C
  C133     1.0000 0.02030  0.83850  0.25820  Biso   1.000  C
  C134     1.0000 0.97970  0.16150  0.25820  Biso   1.000  C
  C135     1.0000 0.27030  0.41150  0.50820  Biso   1.000  C
  C136     1.0000 0.22970  0.08850  0.50820  Biso   1.000  C
  C137     1.0000 0.52030  0.33850  0.25820  Biso   1.000  C
  C138     1.0000 0.47970  0.66150  0.25820  Biso   1.000  C
  C139     1.0000 0.77030  0.91150  0.50820  Biso   1.000  C
  C140     1.0000 0.72970  0.58850  0.50820  Biso   1.000  C
  C141     1.0000 0.52030  0.83850  0.75820  Biso   1.000  C
  C142     1.0000 0.47970  0.16150  0.75820  Biso   1.000  C
  C143     1.0000 0.77030  0.41150  0.00820  Biso   1.000  C
  C144     1.0000 0.72970  0.08850  0.00820  Biso   1.000  C
  H113     1.0000 0.04940  0.36180  0.77830  Biso   1.000  H
  H114     1.0000 0.95060  0.63820  0.77830  Biso   1.000  H
  H115     1.0000 0.29940  0.88820  0.02830  Biso   1.000  H
  H116     1.0000 0.20060  0.61180  0.02830  Biso   1.000  H
  H117     1.0000 0.04940  0.86180  0.27830  Biso   1.000  H
  H118     1.0000 0.95060  0.13820  0.27830  Biso   1.000  H
  H119     1.0000 0.29940  0.38820  0.52830  Biso   1.000  H
  H120     1.0000 0.20060  0.11180  0.52830  Biso   1.000  H
  H121     1.0000 0.54940  0.36180  0.27830  Biso   1.000  H
  H122     1.0000 0.45060  0.63820  0.27830  Biso   1.000  H
  H123     1.0000 0.79940  0.88820  0.52830  Biso   1.000  H
  H124     1.0000 0.70060  0.61180  0.52830  Biso   1.000  H
  H125     1.0000 0.54940  0.86180  0.77830  Biso   1.000  H
  H126     1.0000 0.45060  0.13820  0.77830  Biso   1.000  H
  H127     1.0000 0.79940  0.38820  0.02830  Biso   1.000  H
  H128     1.0000 0.70060  0.11180  0.02830  Biso   1.000  H
  H129     1.0000 0.03210  0.31980  0.81610  Biso   1.000  H
  H130     1.0000 0.96790  0.68020  0.81610  Biso   1.000  H
  H131     1.0000 0.28210  0.93020  0.06610  Biso   1.000  H
  H132     1.0000 0.21790  0.56980  0.06610  Biso   1.000  H
  H133     1.0000 0.03210  0.81980  0.31610  Biso   1.000  H
  H134     1.0000 0.96790  0.18020  0.31610  Biso   1.000  H
  H135     1.0000 0.28210  0.43020  0.56610  Biso   1.000  H
  H136     1.0000 0.21790  0.06980  0.56610  Biso   1.000  H
  H137     1.0000 0.53210  0.31980  0.31610  Biso   1.000  H
  H138     1.0000 0.46790  0.68020  0.31610  Biso   1.000  H
  H139     1.0000 0.78210  0.93020  0.56610  Biso   1.000  H
  H140     1.0000 0.71790  0.56980  0.56610  Biso   1.000  H
  H141     1.0000 0.53210  0.81980  0.81610  Biso   1.000  H
  H142     1.0000 0.46790  0.18020  0.81610  Biso   1.000  H
  H143     1.0000 0.78210  0.43020  0.06610  Biso   1.000  H
  H144     1.0000 0.71790  0.06980  0.06610  Biso   1.000  H
  H145     1.0000 0.95690  0.34260  0.75270  Biso   1.000  H
  H146     1.0000 0.04310  0.65740  0.75270  Biso   1.000  H
  H147     1.0000 0.20690  0.90740  0.00270  Biso   1.000  H
  H148     1.0000 0.29310  0.59260  0.00270  Biso   1.000  H
  H149     1.0000 0.95690  0.84260  0.25270  Biso   1.000  H
  H150     1.0000 0.04310  0.15740  0.25270  Biso   1.000  H
  H151     1.0000 0.20690  0.40740  0.50270  Biso   1.000  H
  H152     1.0000 0.29310  0.09260  0.50270  Biso   1.000  H
  H153     1.0000 0.45690  0.34260  0.25270  Biso   1.000  H
  H154     1.0000 0.54310  0.65740  0.25270  Biso   1.000  H
  H155     1.0000 0.70690  0.90740  0.50270  Biso   1.000  H
  H156     1.0000 0.79310  0.59260  0.50270  Biso   1.000  H
  H157     1.0000 0.45690  0.84260  0.75270  Biso   1.000  H
  H158     1.0000 0.54310  0.15740  0.75270  Biso   1.000  H
  H159     1.0000 0.70690  0.40740  0.00270  Biso   1.000  H
  H160     1.0000 0.79310  0.09260  0.00270  Biso   1.000  H
  C145     1.0000 0.15550  0.33580  0.64490  Biso   1.000  C
  C146     1.0000 0.84450  0.66420  0.64490  Biso   1.000  C
  C147     1.0000 0.40550  0.91420  0.89490  Biso   1.000  C
  C148     1.0000 0.09450  0.58580  0.89490  Biso   1.000  C
  C149     1.0000 0.15550  0.83580  0.14490  Biso   1.000  C
  C150     1.0000 0.84450  0.16420  0.14490  Biso   1.000  C
  C151     1.0000 0.40550  0.41420  0.39490  Biso   1.000  C
  C152     1.0000 0.09450  0.08580  0.39490  Biso   1.000  C
  C153     1.0000 0.65550  0.33580  0.14490  Biso   1.000  C
  C154     1.0000 0.34450  0.66420  0.14490  Biso   1.000  C
  C155     1.0000 0.90550  0.91420  0.39490  Biso   1.000  C
  C156     1.0000 0.59450  0.58580  0.39490  Biso   1.000  C
  C157     1.0000 0.65550  0.83580  0.64490  Biso   1.000  C
  C158     1.0000 0.34450  0.16420  0.64490  Biso   1.000  C
  C159     1.0000 0.90550  0.41420  0.89490  Biso   1.000  C
  C160     1.0000 0.59450  0.08580  0.89490  Biso   1.000  C
  H161     1.0000 0.18390  0.32460  0.71060  Biso   1.000  H
  H162     1.0000 0.81610  0.67540  0.71060  Biso   1.000  H
  H163     1.0000 0.43390  0.92540  0.96060  Biso   1.000  H
  H164     1.0000 0.06610  0.57460  0.96060  Biso   1.000  H
  H165     1.0000 0.18390  0.82460  0.21060  Biso   1.000  H
  H166     1.0000 0.81610  0.17540  0.21060  Biso   1.000  H
  H167     1.0000 0.43390  0.42540  0.46060  Biso   1.000  H
  H168     1.0000 0.06610  0.07460  0.46060  Biso   1.000  H
  H169     1.0000 0.68390  0.32460  0.21060  Biso   1.000  H
  H170     1.0000 0.31610  0.67540  0.21060  Biso   1.000  H
  H171     1.0000 0.93390  0.92540  0.46060  Biso   1.000  H
  H172     1.0000 0.56610  0.57460  0.46060  Biso   1.000  H
  H173     1.0000 0.68390  0.82460  0.71060  Biso   1.000  H
  H174     1.0000 0.31610  0.17540  0.71060  Biso   1.000  H
  H175     1.0000 0.93390  0.42540  0.96060  Biso   1.000  H
  H176     1.0000 0.56610  0.07460  0.96060  Biso   1.000  H
  H177     1.0000 0.16050  0.36290  0.64920  Biso   1.000  H
  H178     1.0000 0.83950  0.63710  0.64920  Biso   1.000  H
  H179     1.0000 0.41050  0.88710  0.89920  Biso   1.000  H
  H180     1.0000 0.08950  0.61290  0.89920  Biso   1.000  H
  H181     1.0000 0.16050  0.86290  0.14920  Biso   1.000  H
  H182     1.0000 0.83950  0.13710  0.14920  Biso   1.000  H
  H183     1.0000 0.41050  0.38710  0.39920  Biso   1.000  H
  H184     1.0000 0.08950  0.11290  0.39920  Biso   1.000  H
  H185     1.0000 0.66050  0.36290  0.14920  Biso   1.000  H
  H186     1.0000 0.33950  0.63710  0.14920  Biso   1.000  H
  H187     1.0000 0.91050  0.88710  0.39920  Biso   1.000  H
  H188     1.0000 0.58950  0.61290  0.39920  Biso   1.000  H
  H189     1.0000 0.66050  0.86290  0.64920  Biso   1.000  H
  H190     1.0000 0.33950  0.13710  0.64920  Biso   1.000  H
  H191     1.0000 0.91050  0.38710  0.89920  Biso   1.000  H
  H192     1.0000 0.58950  0.11290  0.89920  Biso   1.000  H
  H193     1.0000 0.18430  0.32700  0.57620  Biso   1.000  H
  H194     1.0000 0.81570  0.67300  0.57620  Biso   1.000  H
  H195     1.0000 0.43430  0.92300  0.82620  Biso   1.000  H
  H196     1.0000 0.06570  0.57700  0.82620  Biso   1.000  H
  H197     1.0000 0.18430  0.82700  0.07620  Biso   1.000  H
  H198     1.0000 0.81570  0.17300  0.07620  Biso   1.000  H
  H199     1.0000 0.43430  0.42300  0.32620  Biso   1.000  H
  H200     1.0000 0.06570  0.07700  0.32620  Biso   1.000  H
  H201     1.0000 0.68430  0.32700  0.07620  Biso   1.000  H
  H202     1.0000 0.31570  0.67300  0.07620  Biso   1.000  H
  H203     1.0000 0.93430  0.92300  0.32620  Biso   1.000  H
  H204     1.0000 0.56570  0.57700  0.32620  Biso   1.000  H
  H205     1.0000 0.68430  0.82700  0.57620  Biso   1.000  H
  H206     1.0000 0.31570  0.17300  0.57620  Biso   1.000  H
  H207     1.0000 0.93430  0.42300  0.82620  Biso   1.000  H
  H208     1.0000 0.56570  0.07700  0.82620  Biso   1.000  H
  N33      1.0000 0.00000  0.50000  0.19150  Biso   1.000  N
  N34      1.0000 0.25000  0.75000  0.44150  Biso   1.000  N
  N35      1.0000 0.00000  0.00000  0.69150  Biso   1.000  N
  N36      1.0000 0.25000  0.25000  0.94150  Biso   1.000  N
  N37      1.0000 0.50000  0.50000  0.69150  Biso   1.000  N
  N38      1.0000 0.75000  0.75000  0.94150  Biso   1.000  N
  N39      1.0000 0.50000  0.00000  0.19150  Biso   1.000  N
  N40      1.0000 0.75000  0.25000  0.44150  Biso   1.000  N
  C161     1.0000 0.00200  0.53148  0.25080  Biso   1.000  C
  C162     1.0000 0.99800  0.46852  0.25080  Biso   1.000  C
  C163     1.0000 0.25200  0.71852  0.50080  Biso   1.000  C
  C164     1.0000 0.24800  0.78148  0.50080  Biso   1.000  C
  C165     1.0000 0.00200  0.03148  0.75080  Biso   1.000  C
  C166     1.0000 0.99800  0.96852  0.75080  Biso   1.000  C
  C167     1.0000 0.25200  0.21852  0.00080  Biso   1.000  C
  C168     1.0000 0.24800  0.28148  0.00080  Biso   1.000  C
  C169     1.0000 0.50200  0.53148  0.75080  Biso   1.000  C
  C170     1.0000 0.49800  0.46852  0.75080  Biso   1.000  C
  C171     1.0000 0.75200  0.71852  0.00080  Biso   1.000  C
  C172     1.0000 0.74800  0.78148  0.00080  Biso   1.000  C
  C173     1.0000 0.50200  0.03148  0.25080  Biso   1.000  C
  C174     1.0000 0.49800  0.96852  0.25080  Biso   1.000  C
  C175     1.0000 0.75200  0.21852  0.50080  Biso   1.000  C
  C176     1.0000 0.74800  0.28148  0.50080  Biso   1.000  C
  H209     1.0000 0.00230  0.55430  0.21080  Biso   1.000  H
  H210     1.0000 0.99770  0.44570  0.21080  Biso   1.000  H
  H211     1.0000 0.25230  0.69570  0.46080  Biso   1.000  H
  H212     1.0000 0.24770  0.80430  0.46080  Biso   1.000  H
  H213     1.0000 0.00230  0.05430  0.71080  Biso   1.000  H
  H214     1.0000 0.99770  0.94570  0.71080  Biso   1.000  H
  H215     1.0000 0.25230  0.19570  0.96080  Biso   1.000  H
  H216     1.0000 0.24770  0.30430  0.96080  Biso   1.000  H
  H217     1.0000 0.50230  0.55430  0.71080  Biso   1.000  H
  H218     1.0000 0.49770  0.44570  0.71080  Biso   1.000  H
  H219     1.0000 0.75230  0.69570  0.96080  Biso   1.000  H
  H220     1.0000 0.74770  0.80430  0.96080  Biso   1.000  H
  H221     1.0000 0.50230  0.05430  0.21080  Biso   1.000  H
  H222     1.0000 0.49770  0.94570  0.21080  Biso   1.000  H
  H223     1.0000 0.75230  0.19570  0.46080  Biso   1.000  H
  H224     1.0000 0.74770  0.30430  0.46080  Biso   1.000  H
  C177     1.0000 0.00360  0.53290  0.36700  Biso   1.000  C
  C178     1.0000 0.99640  0.46710  0.36700  Biso   1.000  C
  C179     1.0000 0.25360  0.71710  0.61700  Biso   1.000  C
  C180     1.0000 0.24640  0.78290  0.61700  Biso   1.000  C
  C181     1.0000 0.00360  0.03290  0.86700  Biso   1.000  C
  C182     1.0000 0.99640  0.96710  0.86700  Biso   1.000  C
  C183     1.0000 0.25360  0.21710  0.11700  Biso   1.000  C
  C184     1.0000 0.24640  0.28290  0.11700  Biso   1.000  C
  C185     1.0000 0.50360  0.53290  0.86700  Biso   1.000  C
  C186     1.0000 0.49640  0.46710  0.86700  Biso   1.000  C
  C187     1.0000 0.75360  0.71710  0.11700  Biso   1.000  C
  C188     1.0000 0.74640  0.78290  0.11700  Biso   1.000  C
  C189     1.0000 0.50360  0.03290  0.36700  Biso   1.000  C
  C190     1.0000 0.49640  0.96710  0.36700  Biso   1.000  C
  C191     1.0000 0.75360  0.21710  0.61700  Biso   1.000  C
  C192     1.0000 0.74640  0.28290  0.61700  Biso   1.000  C
  H225     1.0000 0.00720  0.55620  0.40400  Biso   1.000  H
  H226     1.0000 0.99280  0.44380  0.40400  Biso   1.000  H
  H227     1.0000 0.25720  0.69380  0.65400  Biso   1.000  H
  H228     1.0000 0.24280  0.80620  0.65400  Biso   1.000  H
  H229     1.0000 0.00720  0.05620  0.90400  Biso   1.000  H
  H230     1.0000 0.99280  0.94380  0.90400  Biso   1.000  H
  H231     1.0000 0.25720  0.19380  0.15400  Biso   1.000  H
  H232     1.0000 0.24280  0.30620  0.15400  Biso   1.000  H
  H233     1.0000 0.50720  0.55620  0.90400  Biso   1.000  H
  H234     1.0000 0.49280  0.44380  0.90400  Biso   1.000  H
  H235     1.0000 0.75720  0.69380  0.15400  Biso   1.000  H
  H236     1.0000 0.74280  0.80620  0.15400  Biso   1.000  H
  H237     1.0000 0.50720  0.05620  0.40400  Biso   1.000  H
  H238     1.0000 0.49280  0.94380  0.40400  Biso   1.000  H
  H239     1.0000 0.75720  0.19380  0.65400  Biso   1.000  H
  H240     1.0000 0.74280  0.30620  0.65400  Biso   1.000  H
  C193     1.0000 0.00000  0.50000  0.43100  Biso   1.000  C
  C194     1.0000 0.25000  0.75000  0.68100  Biso   1.000  C
  C195     1.0000 0.00000  0.00000  0.93100  Biso   1.000  C
  C196     1.0000 0.25000  0.25000  0.18100  Biso   1.000  C
  C197     1.0000 0.50000  0.50000  0.93100  Biso   1.000  C
  C198     1.0000 0.75000  0.75000  0.18100  Biso   1.000  C
  C199     1.0000 0.50000  0.00000  0.43100  Biso   1.000  C
  C200     1.0000 0.75000  0.25000  0.68100  Biso   1.000  C
  C201     1.0000 0.00000  0.50000  0.56210  Biso   1.000  C
  C202     1.0000 0.25000  0.75000  0.81210  Biso   1.000  C
  C203     1.0000 0.00000  0.00000  0.06210  Biso   1.000  C
  C204     1.0000 0.25000  0.25000  0.31210  Biso   1.000  C
  C205     1.0000 0.50000  0.50000  0.06210  Biso   1.000  C
  C206     1.0000 0.75000  0.75000  0.31210  Biso   1.000  C
  C207     1.0000 0.50000  0.00000  0.56210  Biso   1.000  C
  C208     1.0000 0.75000  0.25000  0.81210  Biso   1.000  C
  C209     1.0000 0.00500  0.53940  0.60910  Biso   1.000  C
  C210     1.0000 0.99500  0.46060  0.60910  Biso   1.000  C
  C211     1.0000 0.25500  0.71060  0.85910  Biso   1.000  C
  C212     1.0000 0.24500  0.78940  0.85910  Biso   1.000  C
  C213     1.0000 0.00500  0.03940  0.10910  Biso   1.000  C
  C214     1.0000 0.99500  0.96060  0.10910  Biso   1.000  C
  C215     1.0000 0.25500  0.21060  0.35910  Biso   1.000  C
  C216     1.0000 0.24500  0.28940  0.35910  Biso   1.000  C
  C217     1.0000 0.50500  0.53940  0.10910  Biso   1.000  C
  C218     1.0000 0.49500  0.46060  0.10910  Biso   1.000  C
  C219     1.0000 0.75500  0.71060  0.35910  Biso   1.000  C
  C220     1.0000 0.74500  0.78940  0.35910  Biso   1.000  C
  C221     1.0000 0.50500  0.03940  0.60910  Biso   1.000  C
  C222     1.0000 0.49500  0.96060  0.60910  Biso   1.000  C
  C223     1.0000 0.75500  0.21060  0.85910  Biso   1.000  C
  C224     1.0000 0.74500  0.28940  0.85910  Biso   1.000  C
  H241     1.0000 0.96510  0.55550  0.56640  Biso   1.000  H
  H242     1.0000 0.03490  0.44450  0.56640  Biso   1.000  H
  H243     1.0000 0.21510  0.69450  0.81640  Biso   1.000  H
  H244     1.0000 0.28490  0.80550  0.81640  Biso   1.000  H
  H245     1.0000 0.96510  0.05550  0.06640  Biso   1.000  H
  H246     1.0000 0.03490  0.94450  0.06640  Biso   1.000  H
  H247     1.0000 0.21510  0.19450  0.31640  Biso   1.000  H
  H248     1.0000 0.28490  0.30550  0.31640  Biso   1.000  H
  H249     1.0000 0.46510  0.55550  0.06640  Biso   1.000  H
  H250     1.0000 0.53490  0.44450  0.06640  Biso   1.000  H
  H251     1.0000 0.71510  0.69450  0.31640  Biso   1.000  H
  H252     1.0000 0.78490  0.80550  0.31640  Biso   1.000  H
  H253     1.0000 0.46510  0.05550  0.56640  Biso   1.000  H
  H254     1.0000 0.53490  0.94450  0.56640  Biso   1.000  H
  H255     1.0000 0.71510  0.19450  0.81640  Biso   1.000  H
  H256     1.0000 0.78490  0.30550  0.81640  Biso   1.000  H
  H257     1.0000 0.06480  0.54870  0.60280  Biso   1.000  H
  H258     1.0000 0.93520  0.45130  0.60280  Biso   1.000  H
  H259     1.0000 0.31480  0.70130  0.85280  Biso   1.000  H
  H260     1.0000 0.18520  0.79870  0.85280  Biso   1.000  H
  H261     1.0000 0.06480  0.04870  0.10280  Biso   1.000  H
  H262     1.0000 0.93520  0.95130  0.10280  Biso   1.000  H
  H263     1.0000 0.31480  0.20130  0.35280  Biso   1.000  H
  H264     1.0000 0.18520  0.29870  0.35280  Biso   1.000  H
  H265     1.0000 0.56480  0.54870  0.10280  Biso   1.000  H
  H266     1.0000 0.43520  0.45130  0.10280  Biso   1.000  H
  H267     1.0000 0.81480  0.70130  0.35280  Biso   1.000  H
  H268     1.0000 0.68520  0.79870  0.35280  Biso   1.000  H
  H269     1.0000 0.56480  0.04870  0.60280  Biso   1.000  H
  H270     1.0000 0.43520  0.95130  0.60280  Biso   1.000  H
  H271     1.0000 0.81480  0.20130  0.85280  Biso   1.000  H
  H272     1.0000 0.68520  0.29870  0.85280  Biso   1.000  H
  H273     1.0000 0.98710  0.53920  0.68840  Biso   1.000  H
  H274     1.0000 0.01290  0.46080  0.68840  Biso   1.000  H
  H275     1.0000 0.23710  0.71080  0.93840  Biso   1.000  H
  H276     1.0000 0.26290  0.78920  0.93840  Biso   1.000  H
  H277     1.0000 0.98710  0.03920  0.18840  Biso   1.000  H
  H278     1.0000 0.01290  0.96080  0.18840  Biso   1.000  H
  H279     1.0000 0.23710  0.21080  0.43840  Biso   1.000  H
  H280     1.0000 0.26290  0.28920  0.43840  Biso   1.000  H
  H281     1.0000 0.48710  0.53920  0.18840  Biso   1.000  H
  H282     1.0000 0.51290  0.46080  0.18840  Biso   1.000  H
  H283     1.0000 0.73710  0.71080  0.43840  Biso   1.000  H
  H284     1.0000 0.76290  0.78920  0.43840  Biso   1.000  H
  H285     1.0000 0.48710  0.03920  0.68840  Biso   1.000  H
  H286     1.0000 0.51290  0.96080  0.68840  Biso   1.000  H
  H287     1.0000 0.73710  0.21080  0.93840  Biso   1.000  H
  H288     1.0000 0.76290  0.28920  0.93840  Biso   1.000  H
  C225     1.0000 0.06270  0.47250  0.61100  Biso   1.000  C
  C226     1.0000 0.93730  0.52750  0.61100  Biso   1.000  C
  C227     1.0000 0.31270  0.77750  0.86100  Biso   1.000  C
  C228     1.0000 0.18730  0.72250  0.86100  Biso   1.000  C
  C229     1.0000 0.06270  0.97250  0.11100  Biso   1.000  C
  C230     1.0000 0.93730  0.02750  0.11100  Biso   1.000  C
  C231     1.0000 0.31270  0.27750  0.36100  Biso   1.000  C
  C232     1.0000 0.18730  0.22250  0.36100  Biso   1.000  C
  C233     1.0000 0.56270  0.47250  0.11100  Biso   1.000  C
  C234     1.0000 0.43730  0.52750  0.11100  Biso   1.000  C
  C235     1.0000 0.81270  0.77750  0.36100  Biso   1.000  C
  C236     1.0000 0.68730  0.72250  0.36100  Biso   1.000  C
  C237     1.0000 0.56270  0.97250  0.61100  Biso   1.000  C
  C238     1.0000 0.43730  0.02750  0.61100  Biso   1.000  C
  C239     1.0000 0.81270  0.27750  0.86100  Biso   1.000  C
  C240     1.0000 0.68730  0.22250  0.86100  Biso   1.000  C
  H289     1.0000 0.08910  0.45790  0.55040  Biso   1.000  H
  H290     1.0000 0.91090  0.54210  0.55040  Biso   1.000  H
  H291     1.0000 0.33910  0.79210  0.80040  Biso   1.000  H
  H292     1.0000 0.16090  0.70790  0.80040  Biso   1.000  H
  H293     1.0000 0.08910  0.95790  0.05040  Biso   1.000  H
  H294     1.0000 0.91090  0.04210  0.05040  Biso   1.000  H
  H295     1.0000 0.33910  0.29210  0.30040  Biso   1.000  H
  H296     1.0000 0.16090  0.20790  0.30040  Biso   1.000  H
  H297     1.0000 0.58910  0.45790  0.05040  Biso   1.000  H
  H298     1.0000 0.41090  0.54210  0.05040  Biso   1.000  H
  H299     1.0000 0.83910  0.79210  0.30040  Biso   1.000  H
  H300     1.0000 0.66090  0.70790  0.30040  Biso   1.000  H
  H301     1.0000 0.58910  0.95790  0.55040  Biso   1.000  H
  H302     1.0000 0.41090  0.04210  0.55040  Biso   1.000  H
  H303     1.0000 0.83910  0.29210  0.80040  Biso   1.000  H
  H304     1.0000 0.66090  0.20790  0.80040  Biso   1.000  H
  H305     1.0000 0.96870  0.54400  0.66250  Biso   1.000  H
  H306     1.0000 0.03130  0.45600  0.66250  Biso   1.000  H
  H307     1.0000 0.21870  0.70600  0.91250  Biso   1.000  H
  H308     1.0000 0.28130  0.79400  0.91250  Biso   1.000  H
  H309     1.0000 0.96870  0.04400  0.16250  Biso   1.000  H
  H310     1.0000 0.03130  0.95600  0.16250  Biso   1.000  H
  H311     1.0000 0.21870  0.20600  0.41250  Biso   1.000  H
  H312     1.0000 0.28130  0.29400  0.41250  Biso   1.000  H
  H313     1.0000 0.46870  0.54400  0.16250  Biso   1.000  H
  H314     1.0000 0.53130  0.45600  0.16250  Biso   1.000  H
  H315     1.0000 0.71870  0.70600  0.41250  Biso   1.000  H
  H316     1.0000 0.78130  0.79400  0.41250  Biso   1.000  H
  H317     1.0000 0.46870  0.04400  0.66250  Biso   1.000  H
  H318     1.0000 0.53130  0.95600  0.66250  Biso   1.000  H
  H319     1.0000 0.71870  0.20600  0.91250  Biso   1.000  H
  H320     1.0000 0.78130  0.29400  0.91250  Biso   1.000  H
  H321     1.0000 0.10880  0.48570  0.65220  Biso   1.000  H
  H322     1.0000 0.89120  0.51430  0.65220  Biso   1.000  H
  H323     1.0000 0.35880  0.76430  0.90220  Biso   1.000  H
  H324     1.0000 0.14120  0.73570  0.90220  Biso   1.000  H
  H325     1.0000 0.10880  0.98570  0.15220  Biso   1.000  H
  H326     1.0000 0.89120  0.01430  0.15220  Biso   1.000  H
  H327     1.0000 0.35880  0.26430  0.40220  Biso   1.000  H
  H328     1.0000 0.14120  0.23570  0.40220  Biso   1.000  H
  H329     1.0000 0.60880  0.48570  0.15220  Biso   1.000  H
  H330     1.0000 0.39120  0.51430  0.15220  Biso   1.000  H
  H331     1.0000 0.85880  0.76430  0.40220  Biso   1.000  H
  H332     1.0000 0.64120  0.73570  0.40220  Biso   1.000  H
  H333     1.0000 0.60880  0.98570  0.65220  Biso   1.000  H
  H334     1.0000 0.39120  0.01430  0.65220  Biso   1.000  H
  H335     1.0000 0.85880  0.26430  0.90220  Biso   1.000  H
  H336     1.0000 0.64120  0.23570  0.90220  Biso   1.000  H
  C241     1.0000 0.90350  0.48490  0.59400  Biso   1.000  C
  C242     1.0000 0.09650  0.51510  0.59400  Biso   1.000  C
  C243     1.0000 0.15350  0.76510  0.84400  Biso   1.000  C
  C244     1.0000 0.34650  0.73490  0.84400  Biso   1.000  C
  C245     1.0000 0.90350  0.98490  0.09400  Biso   1.000  C
  C246     1.0000 0.09650  0.01510  0.09400  Biso   1.000  C
  C247     1.0000 0.15350  0.26510  0.34400  Biso   1.000  C
  C248     1.0000 0.34650  0.23490  0.34400  Biso   1.000  C
  C249     1.0000 0.40350  0.48490  0.09400  Biso   1.000  C
  C250     1.0000 0.59650  0.51510  0.09400  Biso   1.000  C
  C251     1.0000 0.65350  0.76510  0.34400  Biso   1.000  C
  C252     1.0000 0.84650  0.73490  0.34400  Biso   1.000  C
  C253     1.0000 0.40350  0.98490  0.59400  Biso   1.000  C
  C254     1.0000 0.59650  0.01510  0.59400  Biso   1.000  C
  C255     1.0000 0.65350  0.26510  0.84400  Biso   1.000  C
  C256     1.0000 0.84650  0.23490  0.84400  Biso   1.000  C
  H337     1.0000 0.85910  0.50170  0.56350  Biso   1.000  H
  H338     1.0000 0.14090  0.49830  0.56350  Biso   1.000  H
  H339     1.0000 0.10910  0.74830  0.81350  Biso   1.000  H
  H340     1.0000 0.39090  0.75170  0.81350  Biso   1.000  H
  H341     1.0000 0.85910  0.00170  0.06350  Biso   1.000  H
  H342     1.0000 0.14090  0.99830  0.06350  Biso   1.000  H
  H343     1.0000 0.10910  0.24830  0.31350  Biso   1.000  H
  H344     1.0000 0.39090  0.25170  0.31350  Biso   1.000  H
  H345     1.0000 0.35910  0.50170  0.06350  Biso   1.000  H
  H346     1.0000 0.64090  0.49830  0.06350  Biso   1.000  H
  H347     1.0000 0.60910  0.74830  0.31350  Biso   1.000  H
  H348     1.0000 0.89090  0.75170  0.31350  Biso   1.000  H
  H349     1.0000 0.35910  0.00170  0.56350  Biso   1.000  H
  H350     1.0000 0.64090  0.99830  0.56350  Biso   1.000  H
  H351     1.0000 0.60910  0.24830  0.81350  Biso   1.000  H
  H352     1.0000 0.89090  0.25170  0.81350  Biso   1.000  H
  H353     1.0000 0.89760  0.48360  0.67600  Biso   1.000  H
  H354     1.0000 0.10240  0.51640  0.67600  Biso   1.000  H
  H355     1.0000 0.14760  0.76640  0.92600  Biso   1.000  H
  H356     1.0000 0.35240  0.73360  0.92600  Biso   1.000  H
  H357     1.0000 0.89760  0.98360  0.17600  Biso   1.000  H
  H358     1.0000 0.10240  0.01640  0.17600  Biso   1.000  H
  H359     1.0000 0.14760  0.26640  0.42600  Biso   1.000  H
  H360     1.0000 0.35240  0.23360  0.42600  Biso   1.000  H
  H361     1.0000 0.39760  0.48360  0.17600  Biso   1.000  H
  H362     1.0000 0.60240  0.51640  0.17600  Biso   1.000  H
  H363     1.0000 0.64760  0.76640  0.42600  Biso   1.000  H
  H364     1.0000 0.85240  0.73360  0.42600  Biso   1.000  H
  H365     1.0000 0.39760  0.98360  0.67600  Biso   1.000  H
  H366     1.0000 0.60240  0.01640  0.67600  Biso   1.000  H
  H367     1.0000 0.64760  0.26640  0.92600  Biso   1.000  H
  H368     1.0000 0.85240  0.23360  0.92600  Biso   1.000  H
  H369     1.0000 0.10470  0.53990  0.56190  Biso   1.000  H
  H370     1.0000 0.89530  0.46010  0.56190  Biso   1.000  H
  H371     1.0000 0.35470  0.71010  0.81190  Biso   1.000  H
  H372     1.0000 0.14530  0.78990  0.81190  Biso   1.000  H
  H373     1.0000 0.10470  0.03990  0.06190  Biso   1.000  H
  H374     1.0000 0.89530  0.96010  0.06190  Biso   1.000  H
  H375     1.0000 0.35470  0.21010  0.31190  Biso   1.000  H
  H376     1.0000 0.14530  0.28990  0.31190  Biso   1.000  H
  H377     1.0000 0.60470  0.53990  0.06190  Biso   1.000  H
  H378     1.0000 0.39530  0.46010  0.06190  Biso   1.000  H
  H379     1.0000 0.85470  0.71010  0.31190  Biso   1.000  H
  H380     1.0000 0.64530  0.78990  0.31190  Biso   1.000  H
  H381     1.0000 0.60470  0.03990  0.56190  Biso   1.000  H
  H382     1.0000 0.39530  0.96010  0.56190  Biso   1.000  H
  H383     1.0000 0.85470  0.21010  0.81190  Biso   1.000  H
  H384     1.0000 0.64530  0.28990  0.81190  Biso   1.000  H
  C257     1.0000 0.10850  0.34700  0.72310  Biso   1.000  C
  C258     1.0000 0.89150  0.65300  0.72310  Biso   1.000  C
  C259     1.0000 0.35850  0.90300  0.97310  Biso   1.000  C
  C260     1.0000 0.14150  0.59700  0.97310  Biso   1.000  C
  C261     1.0000 0.10850  0.84700  0.22310  Biso   1.000  C
  C262     1.0000 0.89150  0.15300  0.22310  Biso   1.000  C
  C263     1.0000 0.35850  0.40300  0.47310  Biso   1.000  C
  C264     1.0000 0.14150  0.09700  0.47310  Biso   1.000  C
  C265     1.0000 0.60850  0.34700  0.22310  Biso   1.000  C
  C266     1.0000 0.39150  0.65300  0.22310  Biso   1.000  C
  C267     1.0000 0.85850  0.90300  0.47310  Biso   1.000  C
  C268     1.0000 0.64150  0.59700  0.47310  Biso   1.000  C
  C269     1.0000 0.60850  0.84700  0.72310  Biso   1.000  C
  C270     1.0000 0.39150  0.15300  0.72310  Biso   1.000  C
  C271     1.0000 0.85850  0.40300  0.97310  Biso   1.000  C
  C272     1.0000 0.64150  0.09700  0.97310  Biso   1.000  C
  C273     1.0000 0.07460  0.33660  0.51710  Biso   1.000  C
  C274     1.0000 0.92540  0.66340  0.51710  Biso   1.000  C
  C275     1.0000 0.32460  0.91340  0.76710  Biso   1.000  C
  C276     1.0000 0.17540  0.58660  0.76710  Biso   1.000  C
  C277     1.0000 0.07460  0.83660  0.01710  Biso   1.000  C
  C278     1.0000 0.92540  0.16340  0.01710  Biso   1.000  C
  C279     1.0000 0.32460  0.41340  0.26710  Biso   1.000  C
  C280     1.0000 0.17540  0.08660  0.26710  Biso   1.000  C
  C281     1.0000 0.57460  0.33660  0.01710  Biso   1.000  C
  C282     1.0000 0.42540  0.66340  0.01710  Biso   1.000  C
  C283     1.0000 0.82460  0.91340  0.26710  Biso   1.000  C
  C284     1.0000 0.67540  0.58660  0.26710  Biso   1.000  C
  C285     1.0000 0.57460  0.83660  0.51710  Biso   1.000  C
  C286     1.0000 0.42540  0.16340  0.51710  Biso   1.000  C
  C287     1.0000 0.82460  0.41340  0.76710  Biso   1.000  C
  C288     1.0000 0.67540  0.08660  0.76710  Biso   1.000  C
  C289     1.0000 0.95530  0.33780  0.65700  Biso   1.000  C
  C290     1.0000 0.04470  0.66220  0.65700  Biso   1.000  C
  C291     1.0000 0.20530  0.91220  0.90700  Biso   1.000  C
  C292     1.0000 0.29470  0.58780  0.90700  Biso   1.000  C
  C293     1.0000 0.95530  0.83780  0.15700  Biso   1.000  C
  C294     1.0000 0.04470  0.16220  0.15700  Biso   1.000  C
  C295     1.0000 0.20530  0.41220  0.40700  Biso   1.000  C
  C296     1.0000 0.29470  0.08780  0.40700  Biso   1.000  C
  C297     1.0000 0.45530  0.33780  0.15700  Biso   1.000  C
  C298     1.0000 0.54470  0.66220  0.15700  Biso   1.000  C
  C299     1.0000 0.70530  0.91220  0.40700  Biso   1.000  C
  C300     1.0000 0.79470  0.58780  0.40700  Biso   1.000  C
  C301     1.0000 0.45530  0.83780  0.65700  Biso   1.000  C
  C302     1.0000 0.54470  0.16220  0.65700  Biso   1.000  C
  C303     1.0000 0.70530  0.41220  0.90700  Biso   1.000  C
  C304     1.0000 0.79470  0.08780  0.90700  Biso   1.000  C
  H385     1.0000 0.17040  0.34000  0.71720  Biso   1.000  H
  H386     1.0000 0.82960  0.66000  0.71720  Biso   1.000  H
  H387     1.0000 0.42040  0.91000  0.96720  Biso   1.000  H
  H388     1.0000 0.07960  0.59000  0.96720  Biso   1.000  H
  H389     1.0000 0.17040  0.84000  0.21720  Biso   1.000  H
  H390     1.0000 0.82960  0.16000  0.21720  Biso   1.000  H
  H391     1.0000 0.42040  0.41000  0.46720  Biso   1.000  H
  H392     1.0000 0.07960  0.09000  0.46720  Biso   1.000  H
  H393     1.0000 0.67040  0.34000  0.21720  Biso   1.000  H
  H394     1.0000 0.32960  0.66000  0.21720  Biso   1.000  H
  H395     1.0000 0.92040  0.91000  0.46720  Biso   1.000  H
  H396     1.0000 0.57960  0.59000  0.46720  Biso   1.000  H
  H397     1.0000 0.67040  0.84000  0.71720  Biso   1.000  H
  H398     1.0000 0.32960  0.16000  0.71720  Biso   1.000  H
  H399     1.0000 0.92040  0.41000  0.96720  Biso   1.000  H
  H400     1.0000 0.57960  0.09000  0.96720  Biso   1.000  H
  H401     1.0000 0.08780  0.34250  0.79990  Biso   1.000  H
  H402     1.0000 0.91220  0.65750  0.79990  Biso   1.000  H
  H403     1.0000 0.33780  0.90750  0.04990  Biso   1.000  H
  H404     1.0000 0.16220  0.59250  0.04990  Biso   1.000  H
  H405     1.0000 0.08780  0.84250  0.29990  Biso   1.000  H
  H406     1.0000 0.91220  0.15750  0.29990  Biso   1.000  H
  H407     1.0000 0.33780  0.40750  0.54990  Biso   1.000  H
  H408     1.0000 0.16220  0.09250  0.54990  Biso   1.000  H
  H409     1.0000 0.58780  0.34250  0.29990  Biso   1.000  H
  H410     1.0000 0.41220  0.65750  0.29990  Biso   1.000  H
  H411     1.0000 0.83780  0.90750  0.54990  Biso   1.000  H
  H412     1.0000 0.66220  0.59250  0.54990  Biso   1.000  H
  H413     1.0000 0.58780  0.84250  0.79990  Biso   1.000  H
  H414     1.0000 0.41220  0.15750  0.79990  Biso   1.000  H
  H415     1.0000 0.83780  0.40750  0.04990  Biso   1.000  H
  H416     1.0000 0.66220  0.09250  0.04990  Biso   1.000  H
  H417     1.0000 0.10200  0.37340  0.70510  Biso   1.000  H
  H418     1.0000 0.89800  0.62660  0.70510  Biso   1.000  H
  H419     1.0000 0.35200  0.87660  0.95510  Biso   1.000  H
  H420     1.0000 0.14800  0.62340  0.95510  Biso   1.000  H
  H421     1.0000 0.10200  0.87340  0.20510  Biso   1.000  H
  H422     1.0000 0.89800  0.12660  0.20510  Biso   1.000  H
  H423     1.0000 0.35200  0.37660  0.45510  Biso   1.000  H
  H424     1.0000 0.14800  0.12340  0.45510  Biso   1.000  H
  H425     1.0000 0.60200  0.37340  0.20510  Biso   1.000  H
  H426     1.0000 0.39800  0.62660  0.20510  Biso   1.000  H
  H427     1.0000 0.85200  0.87660  0.45510  Biso   1.000  H
  H428     1.0000 0.64800  0.62340  0.45510  Biso   1.000  H
  H429     1.0000 0.60200  0.87340  0.70510  Biso   1.000  H
  H430     1.0000 0.39800  0.12660  0.70510  Biso   1.000  H
  H431     1.0000 0.85200  0.37660  0.95510  Biso   1.000  H
  H432     1.0000 0.64800  0.12340  0.95510  Biso   1.000  H
  H433     1.0000 0.13380  0.32870  0.49570  Biso   1.000  H
  H434     1.0000 0.86620  0.67130  0.49570  Biso   1.000  H
  H435     1.0000 0.38380  0.92130  0.74570  Biso   1.000  H
  H436     1.0000 0.11620  0.57870  0.74570  Biso   1.000  H
  H437     1.0000 0.13380  0.82870  0.99570  Biso   1.000  H
  H438     1.0000 0.86620  0.17130  0.99570  Biso   1.000  H
  H439     1.0000 0.38380  0.42130  0.24570  Biso   1.000  H
  H440     1.0000 0.11620  0.07870  0.24570  Biso   1.000  H
  H441     1.0000 0.63380  0.32870  0.99570  Biso   1.000  H
  H442     1.0000 0.36620  0.67130  0.99570  Biso   1.000  H
  H443     1.0000 0.88380  0.92130  0.24570  Biso   1.000  H
  H444     1.0000 0.61620  0.57870  0.24570  Biso   1.000  H
  H445     1.0000 0.63380  0.82870  0.49570  Biso   1.000  H
  H446     1.0000 0.36620  0.17130  0.49570  Biso   1.000  H
  H447     1.0000 0.88380  0.42130  0.74570  Biso   1.000  H
  H448     1.0000 0.61620  0.07870  0.74570  Biso   1.000  H
  H449     1.0000 0.07000  0.36360  0.51070  Biso   1.000  H
  H450     1.0000 0.93000  0.63640  0.51070  Biso   1.000  H
  H451     1.0000 0.32000  0.88640  0.76070  Biso   1.000  H
  H452     1.0000 0.18000  0.61360  0.76070  Biso   1.000  H
  H453     1.0000 0.07000  0.86360  0.01070  Biso   1.000  H
  H454     1.0000 0.93000  0.13640  0.01070  Biso   1.000  H
  H455     1.0000 0.32000  0.38640  0.26070  Biso   1.000  H
  H456     1.0000 0.18000  0.11360  0.26070  Biso   1.000  H
  H457     1.0000 0.57000  0.36360  0.01070  Biso   1.000  H
  H458     1.0000 0.43000  0.63640  0.01070  Biso   1.000  H
  H459     1.0000 0.82000  0.88640  0.26070  Biso   1.000  H
  H460     1.0000 0.68000  0.61360  0.26070  Biso   1.000  H
  H461     1.0000 0.57000  0.86360  0.51070  Biso   1.000  H
  H462     1.0000 0.43000  0.13640  0.51070  Biso   1.000  H
  H463     1.0000 0.82000  0.38640  0.76070  Biso   1.000  H
  H464     1.0000 0.68000  0.11360  0.76070  Biso   1.000  H
  H465     1.0000 0.03170  0.32490  0.46700  Biso   1.000  H
  H466     1.0000 0.96830  0.67510  0.46700  Biso   1.000  H
  H467     1.0000 0.28170  0.92510  0.71700  Biso   1.000  H
  H468     1.0000 0.21830  0.57490  0.71700  Biso   1.000  H
  H469     1.0000 0.03170  0.82490  0.96700  Biso   1.000  H
  H470     1.0000 0.96830  0.17510  0.96700  Biso   1.000  H
  H471     1.0000 0.28170  0.42510  0.21700  Biso   1.000  H
  H472     1.0000 0.21830  0.07490  0.21700  Biso   1.000  H
  H473     1.0000 0.53170  0.32490  0.96700  Biso   1.000  H
  H474     1.0000 0.46830  0.67510  0.96700  Biso   1.000  H
  H475     1.0000 0.78170  0.92510  0.21700  Biso   1.000  H
  H476     1.0000 0.71830  0.57490  0.21700  Biso   1.000  H
  H477     1.0000 0.53170  0.82490  0.46700  Biso   1.000  H
  H478     1.0000 0.46830  0.17510  0.46700  Biso   1.000  H
  H479     1.0000 0.78170  0.42510  0.71700  Biso   1.000  H
  H480     1.0000 0.71830  0.07490  0.71700  Biso   1.000  H
  H481     1.0000 0.95400  0.36380  0.68030  Biso   1.000  H
  H482     1.0000 0.04600  0.63620  0.68030  Biso   1.000  H
  H483     1.0000 0.20400  0.88620  0.93030  Biso   1.000  H
  H484     1.0000 0.29600  0.61380  0.93030  Biso   1.000  H
  H485     1.0000 0.95400  0.86380  0.18030  Biso   1.000  H
  H486     1.0000 0.04600  0.13620  0.18030  Biso   1.000  H
  H487     1.0000 0.20400  0.38620  0.43030  Biso   1.000  H
  H488     1.0000 0.29600  0.11380  0.43030  Biso   1.000  H
  H489     1.0000 0.45400  0.36380  0.18030  Biso   1.000  H
  H490     1.0000 0.54600  0.63620  0.18030  Biso   1.000  H
  H491     1.0000 0.70400  0.88620  0.43030  Biso   1.000  H
  H492     1.0000 0.79600  0.61380  0.43030  Biso   1.000  H
  H493     1.0000 0.45400  0.86380  0.68030  Biso   1.000  H
  H494     1.0000 0.54600  0.13620  0.68030  Biso   1.000  H
  H495     1.0000 0.70400  0.38620  0.93030  Biso   1.000  H
  H496     1.0000 0.79600  0.11380  0.93030  Biso   1.000  H
  H497     1.0000 0.92650  0.32250  0.71430  Biso   1.000  H
  H498     1.0000 0.07350  0.67750  0.71430  Biso   1.000  H
  H499     1.0000 0.17650  0.92750  0.96430  Biso   1.000  H
  H500     1.0000 0.32350  0.57250  0.96430  Biso   1.000  H
  H501     1.0000 0.92650  0.82250  0.21430  Biso   1.000  H
  H502     1.0000 0.07350  0.17750  0.21430  Biso   1.000  H
  H503     1.0000 0.17650  0.42750  0.46430  Biso   1.000  H
  H504     1.0000 0.32350  0.07250  0.46430  Biso   1.000  H
  H505     1.0000 0.42650  0.32250  0.21430  Biso   1.000  H
  H506     1.0000 0.57350  0.67750  0.21430  Biso   1.000  H
  H507     1.0000 0.67650  0.92750  0.46430  Biso   1.000  H
  H508     1.0000 0.82350  0.57250  0.46430  Biso   1.000  H
  H509     1.0000 0.42650  0.82250  0.71430  Biso   1.000  H
  H510     1.0000 0.57350  0.17750  0.71430  Biso   1.000  H
  H511     1.0000 0.67650  0.42750  0.96430  Biso   1.000  H
  H512     1.0000 0.82350  0.07250  0.96430  Biso   1.000  H
  H513     1.0000 0.92450  0.33500  0.58520  Biso   1.000  H
  H514     1.0000 0.07550  0.66500  0.58520  Biso   1.000  H
  H515     1.0000 0.17450  0.91500  0.83520  Biso   1.000  H
  H516     1.0000 0.32550  0.58500  0.83520  Biso   1.000  H
  H517     1.0000 0.92450  0.83500  0.08520  Biso   1.000  H
  H518     1.0000 0.07550  0.16500  0.08520  Biso   1.000  H
  H519     1.0000 0.17450  0.41500  0.33520  Biso   1.000  H
  H520     1.0000 0.32550  0.08500  0.33520  Biso   1.000  H
  H521     1.0000 0.42450  0.33500  0.08520  Biso   1.000  H
  H522     1.0000 0.57550  0.66500  0.08520  Biso   1.000  H
  H523     1.0000 0.67450  0.91500  0.33520  Biso   1.000  H
  H524     1.0000 0.82550  0.58500  0.33520  Biso   1.000  H
  H525     1.0000 0.42450  0.83500  0.58520  Biso   1.000  H
  H526     1.0000 0.57550  0.16500  0.58520  Biso   1.000  H
  H527     1.0000 0.67450  0.41500  0.83520  Biso   1.000  H
  H528     1.0000 0.82550  0.08500  0.83520  Biso   1.000  H
