data_image0
_cell_length_a       29.107
_cell_length_b       17.1516
_cell_length_c       21.5943
_cell_angle_alpha    90
_cell_angle_beta     110.371
_cell_angle_gamma    90

_symmetry_space_group_name_H-M    "P 1"
_symmetry_int_tables_number       1

loop_
  _symmetry_equiv_pos_as_xyz
  'x, y, z'

loop_
  _atom_site_label
  _atom_site_occupancy
  _atom_site_fract_x
  _atom_site_fract_y
  _atom_site_fract_z
  _atom_site_thermal_displace_type
  _atom_site_B_iso_or_equiv
  _atom_site_type_symbol
  Cu1      1.0000 0.11848  0.28937  0.07465  Biso   1.000  Cu
  Cu2      1.0000 0.88152  0.78937  0.42535  Biso   1.000  Cu
  Cu3      1.0000 0.88152  0.71063  0.92535  Biso   1.000  Cu
  Cu4      1.0000 0.11848  0.21063  0.57465  Biso   1.000  Cu
  Cu5      1.0000 0.23051  0.29575  0.16667  Biso   1.000  Cu
  Cu6      1.0000 0.76948  0.79575  0.33332  Biso   1.000  Cu
  Cu7      1.0000 0.76948  0.70425  0.83332  Biso   1.000  Cu
  Cu8      1.0000 0.23051  0.20425  0.66668  Biso   1.000  Cu
  S1       1.0000 0.16742  0.47434  0.12670  Biso   1.000  S
  S2       1.0000 0.83258  0.97434  0.37330  Biso   1.000  S
  S3       1.0000 0.83258  0.52566  0.87330  Biso   1.000  S
  S4       1.0000 0.16742  0.02566  0.62670  Biso   1.000  S
  C1       1.0000 0.11201  0.19805  0.18265  Biso   1.000  C
  C2       1.0000 0.88799  0.69805  0.31735  Biso   1.000  C
  C3       1.0000 0.88799  0.80195  0.81735  Biso   1.000  C
  C4       1.0000 0.11201  0.30195  0.68265  Biso   1.000  C
  H1       1.0000 0.11210  0.15430  0.15580  Biso   1.000  H
  H2       1.0000 0.88790  0.65430  0.34420  Biso   1.000  H
  H3       1.0000 0.88790  0.84570  0.84420  Biso   1.000  H
  H4       1.0000 0.11210  0.34570  0.65580  Biso   1.000  H
  C5       1.0000 0.11178  0.18483  0.24556  Biso   1.000  C
  C6       1.0000 0.88822  0.68483  0.25444  Biso   1.000  C
  C7       1.0000 0.88822  0.81517  0.75444  Biso   1.000  C
  C8       1.0000 0.11178  0.31517  0.74556  Biso   1.000  C
  H5       1.0000 0.11220  0.13300  0.26120  Biso   1.000  H
  H6       1.0000 0.88780  0.63300  0.23880  Biso   1.000  H
  H7       1.0000 0.88780  0.86700  0.73880  Biso   1.000  H
  H8       1.0000 0.11220  0.36700  0.76120  Biso   1.000  H
  C9       1.0000 0.11087  0.24741  0.28606  Biso   1.000  C
  C10      1.0000 0.88913  0.74741  0.21394  Biso   1.000  C
  C11      1.0000 0.88913  0.75259  0.71394  Biso   1.000  C
  C12      1.0000 0.11087  0.25259  0.78606  Biso   1.000  C
  C13      1.0000 0.10810  0.32071  0.25861  Biso   1.000  C
  C14      1.0000 0.89190  0.82071  0.24139  Biso   1.000  C
  C15      1.0000 0.89190  0.67929  0.74139  Biso   1.000  C
  C16      1.0000 0.10810  0.17929  0.75861  Biso   1.000  C
  H9       1.0000 0.10590  0.36550  0.28330  Biso   1.000  H
  H10      1.0000 0.89410  0.86550  0.21670  Biso   1.000  H
  H11      1.0000 0.89410  0.63450  0.71670  Biso   1.000  H
  H12      1.0000 0.10590  0.13450  0.78330  Biso   1.000  H
  C17      1.0000 0.10858  0.32876  0.19531  Biso   1.000  C
  C18      1.0000 0.89142  0.82876  0.30469  Biso   1.000  C
  C19      1.0000 0.89142  0.67124  0.80469  Biso   1.000  C
  C20      1.0000 0.10858  0.17124  0.69531  Biso   1.000  C
  H13      1.0000 0.10630  0.37980  0.17740  Biso   1.000  H
  H14      1.0000 0.89370  0.87980  0.32260  Biso   1.000  H
  H15      1.0000 0.89370  0.62020  0.82260  Biso   1.000  H
  H16      1.0000 0.10630  0.12020  0.67740  Biso   1.000  H
  C21      1.0000 0.11348  0.15880  0.44664  Biso   1.000  C
  C22      1.0000 0.88652  0.65880  0.05336  Biso   1.000  C
  C23      1.0000 0.88652  0.84120  0.55336  Biso   1.000  C
  C24      1.0000 0.11348  0.34120  0.94664  Biso   1.000  C
  H17      1.0000 0.11240  0.10820  0.46400  Biso   1.000  H
  H18      1.0000 0.88760  0.60820  0.03600  Biso   1.000  H
  H19      1.0000 0.88760  0.89180  0.53600  Biso   1.000  H
  H20      1.0000 0.11240  0.39180  0.96400  Biso   1.000  H
  C25      1.0000 0.11093  0.16504  0.38186  Biso   1.000  C
  C26      1.0000 0.88907  0.66504  0.11814  Biso   1.000  C
  C27      1.0000 0.88907  0.83496  0.61814  Biso   1.000  C
  C28      1.0000 0.11093  0.33496  0.88186  Biso   1.000  C
  H21      1.0000 0.10800  0.11950  0.35570  Biso   1.000  H
  H22      1.0000 0.89200  0.61950  0.14430  Biso   1.000  H
  H23      1.0000 0.89200  0.88050  0.64430  Biso   1.000  H
  H24      1.0000 0.10800  0.38050  0.85570  Biso   1.000  H
  C29      1.0000 0.11270  0.23792  0.35502  Biso   1.000  C
  C30      1.0000 0.88730  0.73792  0.14498  Biso   1.000  C
  C31      1.0000 0.88730  0.76208  0.64498  Biso   1.000  C
  C32      1.0000 0.11270  0.26208  0.85502  Biso   1.000  C
  C33      1.0000 0.11694  0.30195  0.39627  Biso   1.000  C
  C34      1.0000 0.88306  0.80195  0.10373  Biso   1.000  C
  C35      1.0000 0.88306  0.69805  0.60373  Biso   1.000  C
  C36      1.0000 0.11694  0.19805  0.89627  Biso   1.000  C
  H25      1.0000 0.11850  0.35310  0.38030  Biso   1.000  H
  H26      1.0000 0.88150  0.85310  0.11970  Biso   1.000  H
  H27      1.0000 0.88150  0.64690  0.61970  Biso   1.000  H
  H28      1.0000 0.11850  0.14690  0.88030  Biso   1.000  H
  C37      1.0000 0.11891  0.29092  0.46064  Biso   1.000  C
  C38      1.0000 0.88109  0.79092  0.03936  Biso   1.000  C
  C39      1.0000 0.88109  0.70908  0.53936  Biso   1.000  C
  C40      1.0000 0.11891  0.20908  0.96064  Biso   1.000  C
  H29      1.0000 0.12140  0.33540  0.48780  Biso   1.000  H
  H30      1.0000 0.87860  0.83540  0.01220  Biso   1.000  H
  H31      1.0000 0.87860  0.66460  0.51220  Biso   1.000  H
  H32      1.0000 0.12140  0.16460  0.98780  Biso   1.000  H
  C41      1.0000 0.23509  0.20370  0.28007  Biso   1.000  C
  C42      1.0000 0.76491  0.70370  0.21993  Biso   1.000  C
  C43      1.0000 0.76491  0.79630  0.71993  Biso   1.000  C
  C44      1.0000 0.23509  0.29630  0.78007  Biso   1.000  C
  H33      1.0000 0.23290  0.16050  0.25160  Biso   1.000  H
  H34      1.0000 0.76710  0.66050  0.24840  Biso   1.000  H
  H35      1.0000 0.76710  0.83950  0.74840  Biso   1.000  H
  H36      1.0000 0.23290  0.33950  0.75160  Biso   1.000  H
  C45      1.0000 0.23725  0.18930  0.34414  Biso   1.000  C
  C46      1.0000 0.76275  0.68930  0.15586  Biso   1.000  C
  C47      1.0000 0.76275  0.81070  0.65586  Biso   1.000  C
  C48      1.0000 0.23725  0.31070  0.84414  Biso   1.000  C
  H37      1.0000 0.23620  0.13730  0.35860  Biso   1.000  H
  H38      1.0000 0.76380  0.63730  0.14140  Biso   1.000  H
  H39      1.0000 0.76380  0.86270  0.64140  Biso   1.000  H
  H40      1.0000 0.23620  0.36270  0.85860  Biso   1.000  H
  C49      1.0000 0.24093  0.25129  0.38748  Biso   1.000  C
  C50      1.0000 0.75907  0.75129  0.11252  Biso   1.000  C
  C51      1.0000 0.75907  0.74871  0.61252  Biso   1.000  C
  C52      1.0000 0.24093  0.24871  0.88748  Biso   1.000  C
  C53      1.0000 0.24294  0.32560  0.36279  Biso   1.000  C
  C54      1.0000 0.75706  0.82560  0.13721  Biso   1.000  C
  C55      1.0000 0.75706  0.67440  0.63721  Biso   1.000  C
  C56      1.0000 0.24294  0.17440  0.86279  Biso   1.000  C
  H41      1.0000 0.24620  0.36990  0.39040  Biso   1.000  H
  H42      1.0000 0.75380  0.86990  0.10960  Biso   1.000  H
  H43      1.0000 0.75380  0.63010  0.60960  Biso   1.000  H
  H44      1.0000 0.24620  0.13010  0.89040  Biso   1.000  H
  C57      1.0000 0.24022  0.33510  0.29809  Biso   1.000  C
  C58      1.0000 0.75978  0.83510  0.20191  Biso   1.000  C
  C59      1.0000 0.75978  0.66490  0.70191  Biso   1.000  C
  C60      1.0000 0.24022  0.16490  0.79809  Biso   1.000  C
  H45      1.0000 0.24140  0.38650  0.28230  Biso   1.000  H
  H46      1.0000 0.75860  0.88650  0.21770  Biso   1.000  H
  H47      1.0000 0.75860  0.61350  0.71770  Biso   1.000  H
  H48      1.0000 0.24140  0.11350  0.78230  Biso   1.000  H
  C61      1.0000 0.23418  0.15700  0.54155  Biso   1.000  C
  C62      1.0000 0.76582  0.65700  0.95845  Biso   1.000  C
  C63      1.0000 0.76582  0.84300  0.45845  Biso   1.000  C
  C64      1.0000 0.23418  0.34300  0.04155  Biso   1.000  C
  H49      1.0000 0.23040  0.10610  0.55650  Biso   1.000  H
  H50      1.0000 0.76960  0.60610  0.94350  Biso   1.000  H
  H51      1.0000 0.76960  0.89390  0.44350  Biso   1.000  H
  H52      1.0000 0.23040  0.39390  0.05650  Biso   1.000  H
  C65      1.0000 0.23639  0.16520  0.47891  Biso   1.000  C
  C66      1.0000 0.76361  0.66520  0.02109  Biso   1.000  C
  C67      1.0000 0.76361  0.83480  0.52109  Biso   1.000  C
  C68      1.0000 0.23639  0.33480  0.97891  Biso   1.000  C
  H53      1.0000 0.23410  0.12070  0.45190  Biso   1.000  H
  H54      1.0000 0.76590  0.62070  0.04810  Biso   1.000  H
  H55      1.0000 0.76590  0.87930  0.54810  Biso   1.000  H
  H56      1.0000 0.23410  0.37930  0.95190  Biso   1.000  H
  C69      1.0000 0.24190  0.23895  0.45565  Biso   1.000  C
  C70      1.0000 0.75810  0.73895  0.04435  Biso   1.000  C
  C71      1.0000 0.75810  0.76105  0.54435  Biso   1.000  C
  C72      1.0000 0.24190  0.26105  0.95565  Biso   1.000  C
  C73      1.0000 0.24684  0.30030  0.49917  Biso   1.000  C
  C74      1.0000 0.75316  0.80030  0.00083  Biso   1.000  C
  C75      1.0000 0.75316  0.69970  0.50083  Biso   1.000  C
  C76      1.0000 0.24684  0.19970  0.99917  Biso   1.000  C
  H57      1.0000 0.25210  0.35150  0.48630  Biso   1.000  H
  H58      1.0000 0.74790  0.85150  0.01370  Biso   1.000  H
  H59      1.0000 0.74790  0.64850  0.51370  Biso   1.000  H
  H60      1.0000 0.25210  0.14850  0.98630  Biso   1.000  H
  C77      1.0000 0.24421  0.28780  0.56098  Biso   1.000  C
  C78      1.0000 0.75579  0.78780  0.93902  Biso   1.000  C
  C79      1.0000 0.75579  0.71220  0.43902  Biso   1.000  C
  C80      1.0000 0.24421  0.21220  0.06098  Biso   1.000  C
  H61      1.0000 0.24750  0.33110  0.58960  Biso   1.000  H
  H62      1.0000 0.75250  0.83110  0.91040  Biso   1.000  H
  H63      1.0000 0.75250  0.66890  0.41040  Biso   1.000  H
  H64      1.0000 0.24750  0.16890  0.08960  Biso   1.000  H
  N1       1.0000 0.11208  0.26890  0.15773  Biso   1.000  N
  N2       1.0000 0.88792  0.76890  0.34227  Biso   1.000  N
  N3       1.0000 0.88792  0.73110  0.84227  Biso   1.000  N
  N4       1.0000 0.11208  0.23110  0.65773  Biso   1.000  N
  N5       1.0000 0.11742  0.22047  0.48633  Biso   1.000  N
  N6       1.0000 0.88258  0.72047  0.01367  Biso   1.000  N
  N7       1.0000 0.88258  0.77953  0.51367  Biso   1.000  N
  N8       1.0000 0.11742  0.27953  0.98633  Biso   1.000  N
  N9       1.0000 0.23603  0.27567  0.25653  Biso   1.000  N
  N10      1.0000 0.76397  0.77567  0.24347  Biso   1.000  N
  N11      1.0000 0.76397  0.72433  0.74347  Biso   1.000  N
  N12      1.0000 0.23603  0.22433  0.75653  Biso   1.000  N
  N13      1.0000 0.23718  0.21723  0.58215  Biso   1.000  N
  N14      1.0000 0.76282  0.71723  0.91785  Biso   1.000  N
  N15      1.0000 0.76282  0.78277  0.41785  Biso   1.000  N
  N16      1.0000 0.23718  0.28277  0.08215  Biso   1.000  N
  O1       1.0000 0.12720  0.42612  0.08228  Biso   1.000  O
  O2       1.0000 0.87280  0.92612  0.41772  Biso   1.000  O
  O3       1.0000 0.87280  0.57388  0.91772  Biso   1.000  O
  O4       1.0000 0.12720  0.07388  0.58228  Biso   1.000  O
  O5       1.0000 0.20977  0.42443  0.16161  Biso   1.000  O
  O6       1.0000 0.79023  0.92443  0.33839  Biso   1.000  O
  O7       1.0000 0.79023  0.57557  0.83839  Biso   1.000  O
  O8       1.0000 0.20977  0.07557  0.66161  Biso   1.000  O
  O9       1.0000 0.15029  0.51359  0.17550  Biso   1.000  O
  O10      1.0000 0.84971  0.01359  0.32450  Biso   1.000  O
  O11      1.0000 0.84971  0.48641  0.82450  Biso   1.000  O
  O12      1.0000 0.15029  0.98641  0.67550  Biso   1.000  O
  O13      1.0000 0.18241  0.53269  0.08792  Biso   1.000  O
  O14      1.0000 0.81759  0.03269  0.41208  Biso   1.000  O
  O15      1.0000 0.81759  0.46731  0.91208  Biso   1.000  O
  O16      1.0000 0.18241  0.96731  0.58792  Biso   1.000  O
  Cu9      1.0000 0.26081  0.70374  0.86006  Biso   1.000  Cu
  Cu10     1.0000 0.73919  0.20374  0.63994  Biso   1.000  Cu
  Cu11     1.0000 0.73919  0.29626  0.13994  Biso   1.000  Cu
  Cu12     1.0000 0.26081  0.79626  0.36006  Biso   1.000  Cu
  Cu13     1.0000 0.37208  0.71052  0.95505  Biso   1.000  Cu
  Cu14     1.0000 0.62792  0.21052  0.54495  Biso   1.000  Cu
  Cu15     1.0000 0.62792  0.28948  0.04494  Biso   1.000  Cu
  Cu16     1.0000 0.37208  0.78948  0.45505  Biso   1.000  Cu
  S5       1.0000 0.30991  0.52930  0.89982  Biso   1.000  S
  S6       1.0000 0.69009  0.02930  0.60018  Biso   1.000  S
  S7       1.0000 0.69009  0.47070  0.10018  Biso   1.000  S
  S8       1.0000 0.30991  0.97070  0.39982  Biso   1.000  S
  C81      1.0000 0.24447  0.66360  0.97845  Biso   1.000  C
  C82      1.0000 0.75553  0.16360  0.52155  Biso   1.000  C
  C83      1.0000 0.75553  0.33640  0.02155  Biso   1.000  C
  C84      1.0000 0.24447  0.83640  0.47845  Biso   1.000  C
  H65      1.0000 0.23750  0.61370  0.95830  Biso   1.000  H
  H66      1.0000 0.76250  0.11370  0.54170  Biso   1.000  H
  H67      1.0000 0.76250  0.38630  0.04170  Biso   1.000  H
  H68      1.0000 0.23750  0.88630  0.45830  Biso   1.000  H
  C85      1.0000 0.24294  0.67298  0.04155  Biso   1.000  C
  C86      1.0000 0.75706  0.17298  0.45845  Biso   1.000  C
  C87      1.0000 0.75706  0.32702  0.95845  Biso   1.000  C
  C88      1.0000 0.24294  0.82702  0.54155  Biso   1.000  C
  H69      1.0000 0.23460  0.63030  0.06360  Biso   1.000  H
  H70      1.0000 0.76540  0.13030  0.43640  Biso   1.000  H
  H71      1.0000 0.76540  0.36970  0.93640  Biso   1.000  H
  H72      1.0000 0.23460  0.86970  0.56360  Biso   1.000  H
  C89      1.0000 0.25373  0.74580  0.07230  Biso   1.000  C
  C90      1.0000 0.74627  0.24580  0.42770  Biso   1.000  C
  C91      1.0000 0.74627  0.25420  0.92770  Biso   1.000  C
  C92      1.0000 0.25373  0.75420  0.57230  Biso   1.000  C
  C93      1.0000 0.26422  0.80679  0.03624  Biso   1.000  C
  C94      1.0000 0.73578  0.30679  0.46376  Biso   1.000  C
  C95      1.0000 0.73578  0.19321  0.96376  Biso   1.000  C
  C96      1.0000 0.26422  0.69321  0.53624  Biso   1.000  C
  H73      1.0000 0.27140  0.85740  0.05500  Biso   1.000  H
  H74      1.0000 0.72860  0.35740  0.44500  Biso   1.000  H
  H75      1.0000 0.72860  0.14260  0.94500  Biso   1.000  H
  H76      1.0000 0.27140  0.64260  0.55500  Biso   1.000  H
  C97      1.0000 0.26413  0.79300  0.97323  Biso   1.000  C
  C98      1.0000 0.73587  0.29300  0.52677  Biso   1.000  C
  C99      1.0000 0.73587  0.20700  0.02677  Biso   1.000  C
  C100     1.0000 0.26413  0.70700  0.47323  Biso   1.000  C
  H77      1.0000 0.27050  0.83530  0.94890  Biso   1.000  H
  H78      1.0000 0.72950  0.33530  0.55110  Biso   1.000  H
  H79      1.0000 0.72950  0.16470  0.05110  Biso   1.000  H
  H80      1.0000 0.27050  0.66470  0.44890  Biso   1.000  H
  C101     1.0000 0.26215  0.70753  0.24810  Biso   1.000  C
  C102     1.0000 0.73785  0.20753  0.25190  Biso   1.000  C
  C103     1.0000 0.73785  0.29247  0.75190  Biso   1.000  C
  C104     1.0000 0.26215  0.79247  0.74810  Biso   1.000  C
  H81      1.0000 0.26550  0.66400  0.27650  Biso   1.000  H
  H82      1.0000 0.73450  0.16400  0.22350  Biso   1.000  H
  H83      1.0000 0.73450  0.33600  0.72350  Biso   1.000  H
  H84      1.0000 0.26550  0.83600  0.77650  Biso   1.000  H
  C105     1.0000 0.25983  0.69429  0.18381  Biso   1.000  C
  C106     1.0000 0.74017  0.19429  0.31619  Biso   1.000  C
  C107     1.0000 0.74017  0.30571  0.81619  Biso   1.000  C
  C108     1.0000 0.25983  0.80571  0.68381  Biso   1.000  C
  H85      1.0000 0.26140  0.64260  0.16890  Biso   1.000  H
  H86      1.0000 0.73860  0.14260  0.33110  Biso   1.000  H
  H87      1.0000 0.73860  0.35740  0.83110  Biso   1.000  H
  H88      1.0000 0.26140  0.85740  0.66890  Biso   1.000  H
  C109     1.0000 0.25516  0.75723  0.14100  Biso   1.000  C
  C110     1.0000 0.74484  0.25723  0.35900  Biso   1.000  C
  C111     1.0000 0.74484  0.24277  0.85900  Biso   1.000  C
  C112     1.0000 0.25516  0.74277  0.64100  Biso   1.000  C
  C113     1.0000 0.25277  0.83127  0.16597  Biso   1.000  C
  C114     1.0000 0.74723  0.33127  0.33403  Biso   1.000  C
  C115     1.0000 0.74723  0.16873  0.83403  Biso   1.000  C
  C116     1.0000 0.25277  0.66873  0.66597  Biso   1.000  C
  H89      1.0000 0.24960  0.87580  0.13860  Biso   1.000  H
  H90      1.0000 0.75040  0.37580  0.36140  Biso   1.000  H
  H91      1.0000 0.75040  0.12420  0.86140  Biso   1.000  H
  H92      1.0000 0.24960  0.62420  0.63860  Biso   1.000  H
  C117     1.0000 0.25503  0.84012  0.23081  Biso   1.000  C
  C118     1.0000 0.74497  0.34012  0.26919  Biso   1.000  C
  C119     1.0000 0.74497  0.15988  0.76919  Biso   1.000  C
  C120     1.0000 0.25503  0.65988  0.73081  Biso   1.000  C
  H93      1.0000 0.25310  0.89120  0.24670  Biso   1.000  H
  H94      1.0000 0.74690  0.39120  0.25330  Biso   1.000  H
  H95      1.0000 0.74690  0.10880  0.75330  Biso   1.000  H
  H96      1.0000 0.25310  0.60880  0.74670  Biso   1.000  H
  C121     1.0000 0.36629  0.66010  0.07855  Biso   1.000  C
  C122     1.0000 0.63371  0.16010  0.42145  Biso   1.000  C
  C123     1.0000 0.63371  0.33990  0.92145  Biso   1.000  C
  C124     1.0000 0.36629  0.83990  0.57855  Biso   1.000  C
  H97      1.0000 0.35690  0.61160  0.05650  Biso   1.000  H
  H98      1.0000 0.64310  0.11160  0.44350  Biso   1.000  H
  H99      1.0000 0.64310  0.38840  0.94350  Biso   1.000  H
  H100     1.0000 0.35690  0.88840  0.55650  Biso   1.000  H
  C125     1.0000 0.36925  0.66596  0.14386  Biso   1.000  C
  C126     1.0000 0.63075  0.16596  0.35614  Biso   1.000  C
  C127     1.0000 0.63075  0.33404  0.85614  Biso   1.000  C
  C128     1.0000 0.36925  0.83404  0.64386  Biso   1.000  C
  H101     1.0000 0.36190  0.62210  0.16570  Biso   1.000  H
  H102     1.0000 0.63810  0.12210  0.33430  Biso   1.000  H
  H103     1.0000 0.63810  0.37790  0.83430  Biso   1.000  H
  H104     1.0000 0.36190  0.87790  0.66570  Biso   1.000  H
  C129     1.0000 0.38299  0.73646  0.17747  Biso   1.000  C
  C130     1.0000 0.61701  0.23646  0.32253  Biso   1.000  C
  C131     1.0000 0.61701  0.26354  0.82253  Biso   1.000  C
  C132     1.0000 0.38299  0.76354  0.67747  Biso   1.000  C
  C133     1.0000 0.39427  0.79819  0.14299  Biso   1.000  C
  C134     1.0000 0.60573  0.29819  0.35701  Biso   1.000  C
  C135     1.0000 0.60573  0.20181  0.85701  Biso   1.000  C
  C136     1.0000 0.39427  0.70181  0.64299  Biso   1.000  C
  H105     1.0000 0.40450  0.84690  0.16420  Biso   1.000  H
  H106     1.0000 0.59550  0.34690  0.33580  Biso   1.000  H
  H107     1.0000 0.59550  0.15310  0.83580  Biso   1.000  H
  H108     1.0000 0.40450  0.65310  0.66420  Biso   1.000  H
  C137     1.0000 0.39045  0.78800  0.07786  Biso   1.000  C
  C138     1.0000 0.60955  0.28800  0.42214  Biso   1.000  C
  C139     1.0000 0.60955  0.21200  0.92214  Biso   1.000  C
  C140     1.0000 0.39045  0.71200  0.57786  Biso   1.000  C
  H109     1.0000 0.39830  0.83060  0.05520  Biso   1.000  H
  H110     1.0000 0.60170  0.33060  0.44480  Biso   1.000  H
  H111     1.0000 0.60170  0.16940  0.94480  Biso   1.000  H
  H112     1.0000 0.39830  0.66940  0.55520  Biso   1.000  H
  C141     1.0000 0.38397  0.69795  0.34999  Biso   1.000  C
  C142     1.0000 0.61603  0.19795  0.15001  Biso   1.000  C
  C143     1.0000 0.61603  0.30205  0.65001  Biso   1.000  C
  C144     1.0000 0.38397  0.80205  0.84999  Biso   1.000  C
  H113     1.0000 0.38500  0.65450  0.37770  Biso   1.000  H
  H114     1.0000 0.61500  0.15450  0.12230  Biso   1.000  H
  H115     1.0000 0.61500  0.34550  0.62230  Biso   1.000  H
  H116     1.0000 0.38500  0.84550  0.87770  Biso   1.000  H
  C145     1.0000 0.38681  0.68430  0.28804  Biso   1.000  C
  C146     1.0000 0.61319  0.18430  0.21196  Biso   1.000  C
  C147     1.0000 0.61319  0.31570  0.71196  Biso   1.000  C
  C148     1.0000 0.38681  0.81570  0.78804  Biso   1.000  C
  H117     1.0000 0.39050  0.63270  0.27440  Biso   1.000  H
  H118     1.0000 0.60950  0.13270  0.22560  Biso   1.000  H
  H119     1.0000 0.60950  0.36730  0.72560  Biso   1.000  H
  H120     1.0000 0.39050  0.86730  0.77440  Biso   1.000  H
  C149     1.0000 0.38423  0.74742  0.24596  Biso   1.000  C
  C150     1.0000 0.61577  0.24742  0.25404  Biso   1.000  C
  C151     1.0000 0.61577  0.25258  0.75404  Biso   1.000  C
  C152     1.0000 0.38423  0.75258  0.74596  Biso   1.000  C
  C153     1.0000 0.38091  0.82098  0.27023  Biso   1.000  C
  C154     1.0000 0.61909  0.32098  0.22977  Biso   1.000  C
  C155     1.0000 0.61909  0.17902  0.72977  Biso   1.000  C
  C156     1.0000 0.38091  0.67902  0.77023  Biso   1.000  C
  H121     1.0000 0.37990  0.86550  0.24370  Biso   1.000  H
  H122     1.0000 0.62010  0.36550  0.25630  Biso   1.000  H
  H123     1.0000 0.62010  0.13450  0.75630  Biso   1.000  H
  H124     1.0000 0.37990  0.63450  0.74370  Biso   1.000  H
  C157     1.0000 0.37908  0.83008  0.33273  Biso   1.000  C
  C158     1.0000 0.62092  0.33008  0.16727  Biso   1.000  C
  C159     1.0000 0.62092  0.16992  0.66727  Biso   1.000  C
  C160     1.0000 0.37908  0.66992  0.83273  Biso   1.000  C
  H125     1.0000 0.37720  0.88140  0.34830  Biso   1.000  H
  H126     1.0000 0.62280  0.38140  0.15170  Biso   1.000  H
  H127     1.0000 0.62280  0.11860  0.65170  Biso   1.000  H
  H128     1.0000 0.37720  0.61860  0.84830  Biso   1.000  H
  N17      1.0000 0.25535  0.72200  0.94476  Biso   1.000  N
  N18      1.0000 0.74465  0.22200  0.55524  Biso   1.000  N
  N19      1.0000 0.74465  0.27800  0.05524  Biso   1.000  N
  N20      1.0000 0.25535  0.77800  0.44476  Biso   1.000  N
  N21      1.0000 0.25987  0.77941  0.27221  Biso   1.000  N
  N22      1.0000 0.74013  0.27941  0.22779  Biso   1.000  N
  N23      1.0000 0.74013  0.22059  0.72779  Biso   1.000  N
  N24      1.0000 0.25987  0.72059  0.77221  Biso   1.000  N
  N25      1.0000 0.37608  0.72009  0.04502  Biso   1.000  N
  N26      1.0000 0.62392  0.22009  0.45498  Biso   1.000  N
  N27      1.0000 0.62392  0.27991  0.95498  Biso   1.000  N
  N28      1.0000 0.37608  0.77991  0.54502  Biso   1.000  N
  N29      1.0000 0.37979  0.76957  0.37266  Biso   1.000  N
  N30      1.0000 0.62021  0.26957  0.12734  Biso   1.000  N
  N31      1.0000 0.62021  0.23043  0.62734  Biso   1.000  N
  N32      1.0000 0.37979  0.73043  0.87266  Biso   1.000  N
  O17      1.0000 0.34659  0.58438  0.94264  Biso   1.000  O
  O18      1.0000 0.65341  0.08438  0.55736  Biso   1.000  O
  O19      1.0000 0.65341  0.41562  0.05736  Biso   1.000  O
  O20      1.0000 0.34659  0.91562  0.44264  Biso   1.000  O
  O21      1.0000 0.26441  0.57226  0.86291  Biso   1.000  O
  O22      1.0000 0.73559  0.07226  0.63709  Biso   1.000  O
  O23      1.0000 0.73559  0.42774  0.13709  Biso   1.000  O
  O24      1.0000 0.26441  0.92774  0.36291  Biso   1.000  O
  O25      1.0000 0.32994  0.49454  0.85181  Biso   1.000  O
  O26      1.0000 0.67006  0.99454  0.64819  Biso   1.000  O
  O27      1.0000 0.67006  0.50546  0.14819  Biso   1.000  O
  O28      1.0000 0.32994  0.00546  0.35181  Biso   1.000  O
  O29      1.0000 0.29934  0.46818  0.94028  Biso   1.000  O
  O30      1.0000 0.70066  0.96818  0.55972  Biso   1.000  O
  O31      1.0000 0.70066  0.53182  0.05972  Biso   1.000  O
  O32      1.0000 0.29934  0.03182  0.44028  Biso   1.000  O
  Cu17     1.0000 0.01908  0.70660  0.34508  Biso   1.000  Cu
  Cu18     1.0000 0.98092  0.20660  0.15492  Biso   1.000  Cu
  Cu19     1.0000 0.98092  0.29340  0.65492  Biso   1.000  Cu
  Cu20     1.0000 0.01908  0.79340  0.84508  Biso   1.000  Cu
  Cu21     1.0000 0.13042  0.70512  0.44461  Biso   1.000  Cu
  Cu22     1.0000 0.86958  0.20512  0.05539  Biso   1.000  Cu
  Cu23     1.0000 0.86958  0.29488  0.55539  Biso   1.000  Cu
  Cu24     1.0000 0.13042  0.79488  0.94461  Biso   1.000  Cu
  S9       1.0000 0.08613  0.52874  0.39140  Biso   1.000  S
  S10      1.0000 0.91387  0.02874  0.10860  Biso   1.000  S
  S11      1.0000 0.91387  0.47126  0.60860  Biso   1.000  S
  S12      1.0000 0.08613  0.97126  0.89140  Biso   1.000  S
  C161     1.0000 0.00947  0.65970  0.46634  Biso   1.000  C
  C162     1.0000 0.99053  0.15970  0.03366  Biso   1.000  C
  C163     1.0000 0.99053  0.34030  0.53366  Biso   1.000  C
  C164     1.0000 0.00947  0.84030  0.96634  Biso   1.000  C
  H129     1.0000 0.00990  0.60860  0.44960  Biso   1.000  H
  H130     1.0000 0.99010  0.10860  0.05040  Biso   1.000  H
  H131     1.0000 0.99010  0.39140  0.55040  Biso   1.000  H
  H132     1.0000 0.00990  0.89140  0.94960  Biso   1.000  H
  C165     1.0000 0.00728  0.66800  0.52925  Biso   1.000  C
  C166     1.0000 0.99272  0.16800  0.97075  Biso   1.000  C
  C167     1.0000 0.99272  0.33200  0.47075  Biso   1.000  C
  C168     1.0000 0.00728  0.83200  0.02925  Biso   1.000  C
  H133     1.0000 0.00600  0.62320  0.55440  Biso   1.000  H
  H134     1.0000 0.99400  0.12320  0.94560  Biso   1.000  H
  H135     1.0000 0.99400  0.37680  0.44560  Biso   1.000  H
  H136     1.0000 0.00600  0.87680  0.05440  Biso   1.000  H
  C169     1.0000 0.00692  0.74163  0.55522  Biso   1.000  C
  C170     1.0000 0.99308  0.24163  0.94478  Biso   1.000  C
  C171     1.0000 0.99308  0.25837  0.44478  Biso   1.000  C
  C172     1.0000 0.00692  0.75837  0.05522  Biso   1.000  C
  C173     1.0000 0.00723  0.80490  0.51496  Biso   1.000  C
  C174     1.0000 0.99277  0.30490  0.98504  Biso   1.000  C
  C175     1.0000 0.99277  0.19510  0.48504  Biso   1.000  C
  C176     1.0000 0.00723  0.69510  0.01496  Biso   1.000  C
  H137     1.0000 0.00600  0.85650  0.53010  Biso   1.000  H
  H138     1.0000 0.99400  0.35650  0.96990  Biso   1.000  H
  H139     1.0000 0.99400  0.14350  0.46990  Biso   1.000  H
  H140     1.0000 0.00600  0.64350  0.03010  Biso   1.000  H
  C177     1.0000 0.00940  0.79220  0.45257  Biso   1.000  C
  C178     1.0000 0.99060  0.29220  0.04743  Biso   1.000  C
  C179     1.0000 0.99060  0.20780  0.54743  Biso   1.000  C
  C180     1.0000 0.00940  0.70780  0.95257  Biso   1.000  C
  H141     1.0000 0.00970  0.83610  0.42590  Biso   1.000  H
  H142     1.0000 0.99030  0.33610  0.07410  Biso   1.000  H
  H143     1.0000 0.99030  0.16390  0.57410  Biso   1.000  H
  H144     1.0000 0.00970  0.66390  0.92590  Biso   1.000  H
  C181     1.0000 0.00820  0.70290  0.72835  Biso   1.000  C
  C182     1.0000 0.99180  0.20290  0.77165  Biso   1.000  C
  C183     1.0000 0.99180  0.29710  0.27165  Biso   1.000  C
  C184     1.0000 0.00820  0.79710  0.22835  Biso   1.000  C
  H145     1.0000 0.00620  0.65940  0.75460  Biso   1.000  H
  H146     1.0000 0.99380  0.15940  0.74540  Biso   1.000  H
  H147     1.0000 0.99380  0.34060  0.24540  Biso   1.000  H
  H148     1.0000 0.00620  0.84060  0.25460  Biso   1.000  H
  C185     1.0000 0.00444  0.69010  0.66338  Biso   1.000  C
  C186     1.0000 0.99556  0.19010  0.83662  Biso   1.000  C
  C187     1.0000 0.99556  0.30990  0.33662  Biso   1.000  C
  C188     1.0000 0.00444  0.80990  0.16338  Biso   1.000  C
  H149     1.0000 0.99910  0.63890  0.64550  Biso   1.000  H
  H150     1.0000 0.00090  0.13890  0.85450  Biso   1.000  H
  H151     1.0000 0.00090  0.36110  0.35450  Biso   1.000  H
  H152     1.0000 0.99910  0.86110  0.14550  Biso   1.000  H
  C189     1.0000 0.00847  0.75302  0.62401  Biso   1.000  C
  C190     1.0000 0.99153  0.25302  0.87599  Biso   1.000  C
  C191     1.0000 0.99153  0.24698  0.37599  Biso   1.000  C
  C192     1.0000 0.00847  0.74698  0.12401  Biso   1.000  C
  C193     1.0000 0.01499  0.82590  0.65335  Biso   1.000  C
  C194     1.0000 0.98501  0.32590  0.84665  Biso   1.000  C
  C195     1.0000 0.98501  0.17410  0.34665  Biso   1.000  C
  C196     1.0000 0.01499  0.67410  0.15335  Biso   1.000  C
  H153     1.0000 0.01760  0.87050  0.62870  Biso   1.000  H
  H154     1.0000 0.98240  0.37050  0.87130  Biso   1.000  H
  H155     1.0000 0.98240  0.12950  0.37130  Biso   1.000  H
  H156     1.0000 0.01760  0.62950  0.12870  Biso   1.000  H
  C197     1.0000 0.01766  0.83440  0.71787  Biso   1.000  C
  C198     1.0000 0.98234  0.33440  0.78213  Biso   1.000  C
  C199     1.0000 0.98234  0.16560  0.28213  Biso   1.000  C
  C200     1.0000 0.01766  0.66560  0.21787  Biso   1.000  C
  H157     1.0000 0.02190  0.88520  0.73640  Biso   1.000  H
  H158     1.0000 0.97810  0.38520  0.76360  Biso   1.000  H
  H159     1.0000 0.97810  0.11480  0.26360  Biso   1.000  H
  H160     1.0000 0.02190  0.61480  0.23640  Biso   1.000  H
  C201     1.0000 0.12965  0.65382  0.57049  Biso   1.000  C
  C202     1.0000 0.87035  0.15382  0.92951  Biso   1.000  C
  C203     1.0000 0.87035  0.34618  0.42951  Biso   1.000  C
  C204     1.0000 0.12965  0.84618  0.07049  Biso   1.000  C
  H161     1.0000 0.12790  0.60310  0.55210  Biso   1.000  H
  H162     1.0000 0.87210  0.10310  0.94790  Biso   1.000  H
  H163     1.0000 0.87210  0.39690  0.44790  Biso   1.000  H
  H164     1.0000 0.12790  0.89690  0.05210  Biso   1.000  H
  C205     1.0000 0.13170  0.66076  0.63564  Biso   1.000  C
  C206     1.0000 0.86830  0.16076  0.86436  Biso   1.000  C
  C207     1.0000 0.86830  0.33924  0.36436  Biso   1.000  C
  C208     1.0000 0.13170  0.83924  0.13564  Biso   1.000  C
  H165     1.0000 0.13110  0.61540  0.66060  Biso   1.000  H
  H166     1.0000 0.86890  0.11540  0.83940  Biso   1.000  H
  H167     1.0000 0.86890  0.38460  0.33940  Biso   1.000  H
  H168     1.0000 0.13110  0.88460  0.16060  Biso   1.000  H
  C209     1.0000 0.13459  0.73418  0.66420  Biso   1.000  C
  C210     1.0000 0.86541  0.23418  0.83580  Biso   1.000  C
  C211     1.0000 0.86541  0.26582  0.33580  Biso   1.000  C
  C212     1.0000 0.13459  0.76582  0.16420  Biso   1.000  C
  C213     1.0000 0.13463  0.79830  0.62437  Biso   1.000  C
  C214     1.0000 0.86537  0.29830  0.87563  Biso   1.000  C
  C215     1.0000 0.86537  0.20170  0.37563  Biso   1.000  C
  C216     1.0000 0.13463  0.70170  0.12437  Biso   1.000  C
  H169     1.0000 0.13620  0.84960  0.64150  Biso   1.000  H
  H170     1.0000 0.86380  0.34960  0.85850  Biso   1.000  H
  H171     1.0000 0.86380  0.15040  0.35850  Biso   1.000  H
  H172     1.0000 0.13620  0.65040  0.14150  Biso   1.000  H
  C217     1.0000 0.13237  0.78686  0.55978  Biso   1.000  C
  C218     1.0000 0.86763  0.28686  0.94022  Biso   1.000  C
  C219     1.0000 0.86763  0.21314  0.44022  Biso   1.000  C
  C220     1.0000 0.13237  0.71314  0.05978  Biso   1.000  C
  H173     1.0000 0.13240  0.83130  0.53350  Biso   1.000  H
  H174     1.0000 0.86760  0.33130  0.96650  Biso   1.000  H
  H175     1.0000 0.86760  0.16870  0.46650  Biso   1.000  H
  H176     1.0000 0.13240  0.66870  0.03350  Biso   1.000  H
  C221     1.0000 0.12970  0.69898  0.83453  Biso   1.000  C
  C222     1.0000 0.87030  0.19898  0.66547  Biso   1.000  C
  C223     1.0000 0.87030  0.30102  0.16547  Biso   1.000  C
  C224     1.0000 0.12970  0.80102  0.33453  Biso   1.000  C
  H177     1.0000 0.12430  0.65650  0.85950  Biso   1.000  H
  H178     1.0000 0.87570  0.15650  0.64050  Biso   1.000  H
  H179     1.0000 0.87570  0.34350  0.14050  Biso   1.000  H
  H180     1.0000 0.12430  0.84350  0.35950  Biso   1.000  H
  C225     1.0000 0.12895  0.68453  0.77118  Biso   1.000  C
  C226     1.0000 0.87105  0.18453  0.72882  Biso   1.000  C
  C227     1.0000 0.87105  0.31547  0.22882  Biso   1.000  C
  C228     1.0000 0.12895  0.81547  0.27118  Biso   1.000  C
  H181     1.0000 0.12280  0.63330  0.75350  Biso   1.000  H
  H182     1.0000 0.87720  0.13330  0.74650  Biso   1.000  H
  H183     1.0000 0.87720  0.36670  0.24650  Biso   1.000  H
  H184     1.0000 0.12280  0.86670  0.25350  Biso   1.000  H
  C229     1.0000 0.13719  0.74524  0.73331  Biso   1.000  C
  C230     1.0000 0.86281  0.24524  0.76669  Biso   1.000  C
  C231     1.0000 0.86281  0.25476  0.26669  Biso   1.000  C
  C232     1.0000 0.13719  0.75476  0.23331  Biso   1.000  C
  C233     1.0000 0.14804  0.81750  0.76376  Biso   1.000  C
  C234     1.0000 0.85196  0.31750  0.73624  Biso   1.000  C
  C235     1.0000 0.85196  0.18250  0.23624  Biso   1.000  C
  C236     1.0000 0.14804  0.68250  0.26376  Biso   1.000  C
  H185     1.0000 0.15570  0.86010  0.74100  Biso   1.000  H
  H186     1.0000 0.84430  0.36010  0.75900  Biso   1.000  H
  H187     1.0000 0.84430  0.13990  0.25900  Biso   1.000  H
  H188     1.0000 0.15570  0.63990  0.24100  Biso   1.000  H
  C237     1.0000 0.14773  0.82761  0.82712  Biso   1.000  C
  C238     1.0000 0.85227  0.32761  0.67288  Biso   1.000  C
  C239     1.0000 0.85227  0.17239  0.17288  Biso   1.000  C
  C240     1.0000 0.14773  0.67239  0.32712  Biso   1.000  C
  H189     1.0000 0.15500  0.87780  0.84670  Biso   1.000  H
  H190     1.0000 0.84500  0.37780  0.65330  Biso   1.000  H
  H191     1.0000 0.84500  0.12220  0.15330  Biso   1.000  H
  H192     1.0000 0.15500  0.62220  0.34670  Biso   1.000  H
  N33      1.0000 0.01105  0.72055  0.42827  Biso   1.000  N
  N34      1.0000 0.98895  0.22055  0.07173  Biso   1.000  N
  N35      1.0000 0.98895  0.27945  0.57173  Biso   1.000  N
  N36      1.0000 0.01105  0.77945  0.92827  Biso   1.000  N
  N37      1.0000 0.01453  0.77415  0.75580  Biso   1.000  N
  N38      1.0000 0.98547  0.27415  0.74420  Biso   1.000  N
  N39      1.0000 0.98547  0.22585  0.24420  Biso   1.000  N
  N40      1.0000 0.01453  0.72585  0.25580  Biso   1.000  N
  N41      1.0000 0.13005  0.71563  0.53257  Biso   1.000  N
  N42      1.0000 0.86995  0.21563  0.96743  Biso   1.000  N
  N43      1.0000 0.86995  0.28437  0.46743  Biso   1.000  N
  N44      1.0000 0.13005  0.78437  0.03257  Biso   1.000  N
  N45      1.0000 0.13753  0.76940  0.86241  Biso   1.000  N
  N46      1.0000 0.86247  0.26940  0.63759  Biso   1.000  N
  N47      1.0000 0.86247  0.23060  0.13759  Biso   1.000  N
  N48      1.0000 0.13753  0.73060  0.36241  Biso   1.000  N
  O33      1.0000 0.12751  0.57355  0.43809  Biso   1.000  O
  O34      1.0000 0.87249  0.07355  0.06191  Biso   1.000  O
  O35      1.0000 0.87249  0.42645  0.56191  Biso   1.000  O
  O36      1.0000 0.12751  0.92645  0.93809  Biso   1.000  O
  O37      1.0000 0.04663  0.58227  0.35495  Biso   1.000  O
  O38      1.0000 0.95337  0.08227  0.14505  Biso   1.000  O
  O39      1.0000 0.95337  0.41773  0.64505  Biso   1.000  O
  O40      1.0000 0.04663  0.91773  0.85495  Biso   1.000  O
  O41      1.0000 0.06746  0.47269  0.42817  Biso   1.000  O
  O42      1.0000 0.93254  0.97269  0.07183  Biso   1.000  O
  O43      1.0000 0.93254  0.52731  0.57183  Biso   1.000  O
  O44      1.0000 0.06746  0.02731  0.92817  Biso   1.000  O
  O45      1.0000 0.10371  0.48729  0.34421  Biso   1.000  O
  O46      1.0000 0.89629  0.98729  0.15579  Biso   1.000  O
  O47      1.0000 0.89629  0.51271  0.65579  Biso   1.000  O
  O48      1.0000 0.10371  0.01271  0.84421  Biso   1.000  O
  Cu25     1.0000 0.48801  0.28541  0.66156  Biso   1.000  Cu
  Cu26     1.0000 0.51199  0.78541  0.83844  Biso   1.000  Cu
  Cu27     1.0000 0.51199  0.71459  0.33844  Biso   1.000  Cu
  Cu28     1.0000 0.48801  0.21459  0.16156  Biso   1.000  Cu
  Cu29     1.0000 0.37560  0.29015  0.57261  Biso   1.000  Cu
  Cu30     1.0000 0.62440  0.79015  0.92739  Biso   1.000  Cu
  Cu31     1.0000 0.62440  0.70985  0.42739  Biso   1.000  Cu
  Cu32     1.0000 0.37560  0.20985  0.07261  Biso   1.000  Cu
  S13      1.0000 0.44237  0.47012  0.61545  Biso   1.000  S
  S14      1.0000 0.55763  0.97012  0.88455  Biso   1.000  S
  S15      1.0000 0.55763  0.52988  0.38455  Biso   1.000  S
  S16      1.0000 0.44237  0.02988  0.11545  Biso   1.000  S
  C241     1.0000 0.48168  0.20581  0.77393  Biso   1.000  C
  C242     1.0000 0.51832  0.70581  0.72607  Biso   1.000  C
  C243     1.0000 0.51832  0.79419  0.22607  Biso   1.000  C
  C244     1.0000 0.48168  0.29419  0.27393  Biso   1.000  C
  H193     1.0000 0.47420  0.16210  0.74510  Biso   1.000  H
  H194     1.0000 0.52580  0.66210  0.75490  Biso   1.000  H
  H195     1.0000 0.52580  0.83790  0.25490  Biso   1.000  H
  H196     1.0000 0.47420  0.33790  0.24510  Biso   1.000  H
  C245     1.0000 0.48370  0.19537  0.83828  Biso   1.000  C
  C246     1.0000 0.51630  0.69537  0.66172  Biso   1.000  C
  C247     1.0000 0.51630  0.80463  0.16172  Biso   1.000  C
  C248     1.0000 0.48370  0.30463  0.33828  Biso   1.000  C
  H197     1.0000 0.47790  0.14550  0.85320  Biso   1.000  H
  H198     1.0000 0.52210  0.64550  0.64680  Biso   1.000  H
  H199     1.0000 0.52210  0.85450  0.14680  Biso   1.000  H
  H200     1.0000 0.47790  0.35450  0.35320  Biso   1.000  H
  C249     1.0000 0.49449  0.25983  0.88144  Biso   1.000  C
  C250     1.0000 0.50551  0.75983  0.61856  Biso   1.000  C
  C251     1.0000 0.50551  0.74017  0.11856  Biso   1.000  C
  C252     1.0000 0.49449  0.24017  0.38144  Biso   1.000  C
  C253     1.0000 0.50294  0.33106  0.85652  Biso   1.000  C
  C254     1.0000 0.49706  0.83106  0.64348  Biso   1.000  C
  C255     1.0000 0.49706  0.66894  0.14348  Biso   1.000  C
  C256     1.0000 0.50294  0.16894  0.35652  Biso   1.000  C
  H201     1.0000 0.51050  0.37590  0.88410  Biso   1.000  H
  H202     1.0000 0.48950  0.87590  0.61590  Biso   1.000  H
  H203     1.0000 0.48950  0.62410  0.11590  Biso   1.000  H
  H204     1.0000 0.51050  0.12410  0.38410  Biso   1.000  H
  C257     1.0000 0.50023  0.33637  0.79126  Biso   1.000  C
  C258     1.0000 0.49977  0.83637  0.70874  Biso   1.000  C
  C259     1.0000 0.49977  0.66363  0.20874  Biso   1.000  C
  C260     1.0000 0.50023  0.16363  0.29126  Biso   1.000  C
  H205     1.0000 0.50600  0.38550  0.77490  Biso   1.000  H
  H206     1.0000 0.49400  0.88550  0.72510  Biso   1.000  H
  H207     1.0000 0.49400  0.61450  0.22510  Biso   1.000  H
  H208     1.0000 0.50600  0.11450  0.27490  Biso   1.000  H
  C261     1.0000 0.50573  0.17390  0.04589  Biso   1.000  C
  C262     1.0000 0.49427  0.67390  0.45411  Biso   1.000  C
  C263     1.0000 0.49427  0.82610  0.95411  Biso   1.000  C
  C264     1.0000 0.50573  0.32610  0.54589  Biso   1.000  C
  H209     1.0000 0.51340  0.12490  0.06750  Biso   1.000  H
  H210     1.0000 0.48660  0.62490  0.43250  Biso   1.000  H
  H211     1.0000 0.48660  0.87510  0.93250  Biso   1.000  H
  H212     1.0000 0.51340  0.37510  0.56750  Biso   1.000  H
  C265     1.0000 0.50758  0.18078  0.98331  Biso   1.000  C
  C266     1.0000 0.49242  0.68078  0.51669  Biso   1.000  C
  C267     1.0000 0.49242  0.81922  0.01669  Biso   1.000  C
  C268     1.0000 0.50758  0.31922  0.48331  Biso   1.000  C
  H213     1.0000 0.51650  0.13730  0.96270  Biso   1.000  H
  H214     1.0000 0.48350  0.63730  0.53730  Biso   1.000  H
  H215     1.0000 0.48350  0.86270  0.03730  Biso   1.000  H
  H216     1.0000 0.51650  0.36270  0.46270  Biso   1.000  H
  C269     1.0000 0.49624  0.25171  0.95061  Biso   1.000  C
  C270     1.0000 0.50376  0.75171  0.54939  Biso   1.000  C
  C271     1.0000 0.50376  0.74829  0.04939  Biso   1.000  C
  C272     1.0000 0.49624  0.24829  0.45061  Biso   1.000  C
  C273     1.0000 0.48528  0.31446  0.98400  Biso   1.000  C
  C274     1.0000 0.51472  0.81446  0.51600  Biso   1.000  C
  C275     1.0000 0.51472  0.68554  0.01600  Biso   1.000  C
  C276     1.0000 0.48528  0.18554  0.48400  Biso   1.000  C
  H217     1.0000 0.47840  0.36440  0.96380  Biso   1.000  H
  H218     1.0000 0.52160  0.86440  0.53620  Biso   1.000  H
  H219     1.0000 0.52160  0.63560  0.03620  Biso   1.000  H
  H220     1.0000 0.47840  0.13560  0.46380  Biso   1.000  H
  C277     1.0000 0.48457  0.30300  0.04710  Biso   1.000  C
  C278     1.0000 0.51543  0.80300  0.45290  Biso   1.000  C
  C279     1.0000 0.51543  0.69700  0.95290  Biso   1.000  C
  C280     1.0000 0.48457  0.19700  0.54710  Biso   1.000  C
  H221     1.0000 0.47740  0.34620  0.06980  Biso   1.000  H
  H222     1.0000 0.52260  0.84620  0.43020  Biso   1.000  H
  H223     1.0000 0.52260  0.65380  0.93020  Biso   1.000  H
  H224     1.0000 0.47740  0.15380  0.56980  Biso   1.000  H
  C281     1.0000 0.35647  0.20868  0.67605  Biso   1.000  C
  C282     1.0000 0.64353  0.70868  0.82395  Biso   1.000  C
  C283     1.0000 0.64353  0.79132  0.32395  Biso   1.000  C
  C284     1.0000 0.35647  0.29132  0.17605  Biso   1.000  C
  H225     1.0000 0.34970  0.16610  0.64610  Biso   1.000  H
  H226     1.0000 0.65030  0.66610  0.85390  Biso   1.000  H
  H227     1.0000 0.65030  0.83390  0.35390  Biso   1.000  H
  H228     1.0000 0.34970  0.33390  0.14610  Biso   1.000  H
  C285     1.0000 0.35395  0.19706  0.73781  Biso   1.000  C
  C286     1.0000 0.64605  0.69706  0.76219  Biso   1.000  C
  C287     1.0000 0.64605  0.80294  0.26219  Biso   1.000  C
  C288     1.0000 0.35395  0.30294  0.23781  Biso   1.000  C
  H229     1.0000 0.34570  0.14710  0.74980  Biso   1.000  H
  H230     1.0000 0.65430  0.64710  0.75020  Biso   1.000  H
  H231     1.0000 0.65430  0.85290  0.25020  Biso   1.000  H
  H232     1.0000 0.34570  0.35290  0.24980  Biso   1.000  H
  C289     1.0000 0.36359  0.25877  0.78285  Biso   1.000  C
  C290     1.0000 0.63641  0.75877  0.71715  Biso   1.000  C
  C291     1.0000 0.63641  0.74123  0.21715  Biso   1.000  C
  C292     1.0000 0.36359  0.24123  0.28285  Biso   1.000  C
  C293     1.0000 0.37385  0.33104  0.76120  Biso   1.000  C
  C294     1.0000 0.62615  0.83104  0.73880  Biso   1.000  C
  C295     1.0000 0.62615  0.66896  0.23880  Biso   1.000  C
  C296     1.0000 0.37385  0.16896  0.26120  Biso   1.000  C
  H233     1.0000 0.37950  0.37510  0.78950  Biso   1.000  H
  H234     1.0000 0.62050  0.87510  0.71050  Biso   1.000  H
  H235     1.0000 0.62050  0.62490  0.21050  Biso   1.000  H
  H236     1.0000 0.37950  0.12490  0.28950  Biso   1.000  H
  C297     1.0000 0.37575  0.33837  0.69863  Biso   1.000  C
  C298     1.0000 0.62425  0.83837  0.80137  Biso   1.000  C
  C299     1.0000 0.62425  0.66163  0.30137  Biso   1.000  C
  C300     1.0000 0.37575  0.16163  0.19863  Biso   1.000  C
  H237     1.0000 0.38270  0.38810  0.68470  Biso   1.000  H
  H238     1.0000 0.61730  0.88810  0.81530  Biso   1.000  H
  H239     1.0000 0.61730  0.61190  0.31530  Biso   1.000  H
  H240     1.0000 0.38270  0.11190  0.18470  Biso   1.000  H
  C301     1.0000 0.38016  0.16767  0.94757  Biso   1.000  C
  C302     1.0000 0.61984  0.66767  0.55243  Biso   1.000  C
  C303     1.0000 0.61984  0.83233  0.05243  Biso   1.000  C
  C304     1.0000 0.38016  0.33233  0.44757  Biso   1.000  C
  H241     1.0000 0.38870  0.11810  0.96800  Biso   1.000  H
  H242     1.0000 0.61130  0.61810  0.53200  Biso   1.000  H
  H243     1.0000 0.61130  0.88190  0.03200  Biso   1.000  H
  H244     1.0000 0.38870  0.38190  0.46800  Biso   1.000  H
  C305     1.0000 0.37710  0.17571  0.88266  Biso   1.000  C
  C306     1.0000 0.62290  0.67571  0.61734  Biso   1.000  C
  C307     1.0000 0.62290  0.82429  0.11734  Biso   1.000  C
  C308     1.0000 0.37710  0.32429  0.38266  Biso   1.000  C
  H245     1.0000 0.38310  0.13230  0.85920  Biso   1.000  H
  H246     1.0000 0.61690  0.63230  0.64080  Biso   1.000  H
  H247     1.0000 0.61690  0.86770  0.14080  Biso   1.000  H
  H248     1.0000 0.38310  0.36770  0.35920  Biso   1.000  H
  C309     1.0000 0.36514  0.24769  0.85194  Biso   1.000  C
  C310     1.0000 0.63486  0.74769  0.64806  Biso   1.000  C
  C311     1.0000 0.63486  0.75231  0.14806  Biso   1.000  C
  C312     1.0000 0.36514  0.25231  0.35194  Biso   1.000  C
  C313     1.0000 0.35624  0.30934  0.88861  Biso   1.000  C
  C314     1.0000 0.64376  0.80934  0.61139  Biso   1.000  C
  C315     1.0000 0.64376  0.69066  0.11139  Biso   1.000  C
  C316     1.0000 0.35624  0.19066  0.38861  Biso   1.000  C
  H249     1.0000 0.34790  0.35950  0.86940  Biso   1.000  H
  H250     1.0000 0.65210  0.85950  0.63060  Biso   1.000  H
  H251     1.0000 0.65210  0.64050  0.13060  Biso   1.000  H
  H252     1.0000 0.34790  0.14050  0.36940  Biso   1.000  H
  C317     1.0000 0.35969  0.29631  0.95294  Biso   1.000  C
  C318     1.0000 0.64031  0.79631  0.54706  Biso   1.000  C
  C319     1.0000 0.64031  0.70369  0.04706  Biso   1.000  C
  C320     1.0000 0.35969  0.20369  0.45294  Biso   1.000  C
  H253     1.0000 0.35330  0.33860  0.97720  Biso   1.000  H
  H254     1.0000 0.64670  0.83860  0.52280  Biso   1.000  H
  H255     1.0000 0.64670  0.66140  0.02280  Biso   1.000  H
  H256     1.0000 0.35330  0.16140  0.47720  Biso   1.000  H
  N49      1.0000 0.48987  0.27499  0.75033  Biso   1.000  N
  N50      1.0000 0.51013  0.77499  0.74967  Biso   1.000  N
  N51      1.0000 0.51013  0.72501  0.24967  Biso   1.000  N
  N52      1.0000 0.48987  0.22501  0.25033  Biso   1.000  N
  N53      1.0000 0.49365  0.23330  0.07778  Biso   1.000  N
  N54      1.0000 0.50635  0.73330  0.42222  Biso   1.000  N
  N55      1.0000 0.50635  0.76670  0.92222  Biso   1.000  N
  N56      1.0000 0.49365  0.26670  0.57778  Biso   1.000  N
  N57      1.0000 0.36820  0.27833  0.65641  Biso   1.000  N
  N58      1.0000 0.63180  0.77833  0.84359  Biso   1.000  N
  N59      1.0000 0.63180  0.72167  0.34359  Biso   1.000  N
  N60      1.0000 0.36820  0.22167  0.15641  Biso   1.000  N
  N61      1.0000 0.37169  0.22642  0.98345  Biso   1.000  N
  N62      1.0000 0.62831  0.72642  0.51655  Biso   1.000  N
  N63      1.0000 0.62831  0.77358  0.01655  Biso   1.000  N
  N64      1.0000 0.37169  0.27358  0.48345  Biso   1.000  N
  O49      1.0000 0.48340  0.42122  0.65651  Biso   1.000  O
  O50      1.0000 0.51660  0.92122  0.84349  Biso   1.000  O
  O51      1.0000 0.51660  0.57878  0.34349  Biso   1.000  O
  O52      1.0000 0.48340  0.07878  0.15651  Biso   1.000  O
  O53      1.0000 0.40055  0.42004  0.57773  Biso   1.000  O
  O54      1.0000 0.59945  0.92004  0.92227  Biso   1.000  O
  O55      1.0000 0.59945  0.57996  0.42227  Biso   1.000  O
  O56      1.0000 0.40055  0.07996  0.07773  Biso   1.000  O
  O57      1.0000 0.45898  0.51615  0.56974  Biso   1.000  O
  O58      1.0000 0.54102  0.01615  0.93026  Biso   1.000  O
  O59      1.0000 0.54102  0.48385  0.43026  Biso   1.000  O
  O60      1.0000 0.45898  0.98385  0.06974  Biso   1.000  O
  O61      1.0000 0.42680  0.52099  0.65884  Biso   1.000  O
  O62      1.0000 0.57320  0.02099  0.84116  Biso   1.000  O
  O63      1.0000 0.57320  0.47901  0.34116  Biso   1.000  O
  O64      1.0000 0.42680  0.97901  0.15884  Biso   1.000  O
  O65      1.0000 0.95658  0.49350  0.35636  Biso   1.000  O
  O66      1.0000 0.04342  0.99350  0.14364  Biso   1.000  O
  O67      1.0000 0.04342  0.50650  0.64364  Biso   1.000  O
  O68      1.0000 0.95658  0.00650  0.85636  Biso   1.000  O
  H257     1.0000 0.97830  0.51800  0.34900  Biso   1.000  H
  H258     1.0000 0.02170  0.01800  0.15100  Biso   1.000  H
  H259     1.0000 0.02170  0.48200  0.65100  Biso   1.000  H
  H260     1.0000 0.97830  0.98200  0.84900  Biso   1.000  H
  H261     1.0000 0.94110  0.51000  0.37800  Biso   1.000  H
  H262     1.0000 0.05890  0.01000  0.12200  Biso   1.000  H
  H263     1.0000 0.05890  0.49000  0.62200  Biso   1.000  H
  H264     1.0000 0.94110  0.99000  0.87800  Biso   1.000  H
  O69      1.0000 0.44147  0.52790  0.01559  Biso   1.000  O
  O70      1.0000 0.55853  0.02790  0.48441  Biso   1.000  O
  O71      1.0000 0.55853  0.47210  0.98441  Biso   1.000  O
  O72      1.0000 0.44147  0.97210  0.51559  Biso   1.000  O
  H265     1.0000 0.45420  0.51200  0.99000  Biso   1.000  H
  H266     1.0000 0.54580  0.01200  0.51000  Biso   1.000  H
  H267     1.0000 0.54580  0.48800  0.01000  Biso   1.000  H
  H268     1.0000 0.45420  0.98800  0.49000  Biso   1.000  H
  H269     1.0000 0.41250  0.54100  0.99700  Biso   1.000  H
  H270     1.0000 0.58750  0.04100  0.50300  Biso   1.000  H
  H271     1.0000 0.58750  0.45900  0.00300  Biso   1.000  H
  H272     1.0000 0.41250  0.95900  0.49700  Biso   1.000  H
  O73      1.0000 0.43610  0.45400  0.13140  Biso   1.000  O
  O74      1.0000 0.56390  0.95400  0.36860  Biso   1.000  O
  O75      1.0000 0.56390  0.54600  0.86860  Biso   1.000  O
  O76      1.0000 0.43610  0.04600  0.63140  Biso   1.000  O
  H273     1.0000 0.40660  0.45600  0.12300  Biso   1.000  H
  H274     1.0000 0.59340  0.95600  0.37700  Biso   1.000  H
  H275     1.0000 0.59340  0.54400  0.87700  Biso   1.000  H
  H276     1.0000 0.40660  0.04400  0.62300  Biso   1.000  H
  H277     1.0000 0.43900  0.46500  0.09500  Biso   1.000  H
  H278     1.0000 0.56100  0.96500  0.40500  Biso   1.000  H
  H279     1.0000 0.56100  0.53500  0.90500  Biso   1.000  H
  H280     1.0000 0.43900  0.03500  0.59500  Biso   1.000  H
  O77      1.0000 0.33706  0.45320  0.07621  Biso   1.000  O
  O78      1.0000 0.66294  0.95320  0.42379  Biso   1.000  O
  O79      1.0000 0.66294  0.54680  0.92379  Biso   1.000  O
  O80      1.0000 0.33706  0.04680  0.57621  Biso   1.000  O
  H281     1.0000 0.31790  0.47860  0.04530  Biso   1.000  H
  H282     1.0000 0.68210  0.97860  0.45470  Biso   1.000  H
  H283     1.0000 0.68210  0.52140  0.95470  Biso   1.000  H
  H284     1.0000 0.31790  0.02140  0.54530  Biso   1.000  H
  H285     1.0000 0.32990  0.40890  0.06700  Biso   1.000  H
  H286     1.0000 0.67010  0.90890  0.43300  Biso   1.000  H
  H287     1.0000 0.67010  0.59110  0.93300  Biso   1.000  H
  H288     1.0000 0.32990  0.09110  0.56700  Biso   1.000  H
  O81      1.0000 0.04400  0.49950  0.99290  Biso   1.000  O
  O82      1.0000 0.95600  0.99950  0.50710  Biso   1.000  O
  O83      1.0000 0.95600  0.50050  0.00710  Biso   1.000  O
  O84      1.0000 0.04400  0.00050  0.49290  Biso   1.000  O
  H289     1.0000 0.04700  0.50300  0.95830  Biso   1.000  H
  H290     1.0000 0.95300  0.00300  0.54170  Biso   1.000  H
  H291     1.0000 0.95300  0.49700  0.04170  Biso   1.000  H
  H292     1.0000 0.04700  0.99700  0.45830  Biso   1.000  H
  H293     1.0000 0.06890  0.48500  0.02100  Biso   1.000  H
  H294     1.0000 0.93110  0.98500  0.47900  Biso   1.000  H
  H295     1.0000 0.93110  0.51500  0.97900  Biso   1.000  H
  H296     1.0000 0.06890  0.01500  0.52100  Biso   1.000  H
  O85      1.0000 0.35000  0.50300  0.31520  Biso   1.000  O
  O86      1.0000 0.65000  0.00300  0.18480  Biso   1.000  O
  O87      1.0000 0.65000  0.49700  0.68480  Biso   1.000  O
  O88      1.0000 0.35000  0.99700  0.81520  Biso   1.000  O
  H297     1.0000 0.33300  0.51900  0.33600  Biso   1.000  H
  H298     1.0000 0.66700  0.01900  0.16400  Biso   1.000  H
  H299     1.0000 0.66700  0.48100  0.66400  Biso   1.000  H
  H300     1.0000 0.33300  0.98100  0.83600  Biso   1.000  H
  H301     1.0000 0.33100  0.49800  0.27400  Biso   1.000  H
  H302     1.0000 0.66900  0.99800  0.22600  Biso   1.000  H
  H303     1.0000 0.66900  0.50200  0.72600  Biso   1.000  H
  H304     1.0000 0.33100  0.00200  0.77400  Biso   1.000  H
  O89      1.0000 0.44029  0.49758  0.42918  Biso   1.000  O
  O90      1.0000 0.55971  0.99758  0.07082  Biso   1.000  O
  O91      1.0000 0.55971  0.50242  0.57082  Biso   1.000  O
  O92      1.0000 0.44029  0.00242  0.92918  Biso   1.000  O
  H305     1.0000 0.44580  0.50310  0.47020  Biso   1.000  H
  H306     1.0000 0.55420  0.00310  0.02980  Biso   1.000  H
  H307     1.0000 0.55420  0.49690  0.52980  Biso   1.000  H
  H308     1.0000 0.44580  0.99690  0.97020  Biso   1.000  H
  H309     1.0000 0.41460  0.49890  0.39560  Biso   1.000  H
  H310     1.0000 0.58540  0.99890  0.10440  Biso   1.000  H
  H311     1.0000 0.58540  0.50110  0.60440  Biso   1.000  H
  H312     1.0000 0.41460  0.00110  0.89560  Biso   1.000  H
  O93      1.0000 0.06425  0.50233  0.20602  Biso   1.000  O
  O94      1.0000 0.93575  0.00233  0.29398  Biso   1.000  O
  O95      1.0000 0.93575  0.49767  0.79398  Biso   1.000  O
  O96      1.0000 0.06425  0.99767  0.70602  Biso   1.000  O
  H313     1.0000 0.08550  0.50700  0.18900  Biso   1.000  H
  H314     1.0000 0.91450  0.00700  0.31100  Biso   1.000  H
  H315     1.0000 0.91450  0.49300  0.81100  Biso   1.000  H
  H316     1.0000 0.08550  0.99300  0.68900  Biso   1.000  H
  H317     1.0000 0.07440  0.50200  0.24700  Biso   1.000  H
  H318     1.0000 0.92560  0.00200  0.25300  Biso   1.000  H
  H319     1.0000 0.92560  0.49800  0.75300  Biso   1.000  H
  H320     1.0000 0.07440  0.99800  0.74700  Biso   1.000  H
  O97      1.0000 0.19114  0.49734  0.31362  Biso   1.000  O
  O98      1.0000 0.80886  0.99734  0.18638  Biso   1.000  O
  O99      1.0000 0.80886  0.50266  0.68638  Biso   1.000  O
  O100     1.0000 0.19114  0.00266  0.81362  Biso   1.000  O
  H321     1.0000 0.16950  0.49600  0.33000  Biso   1.000  H
  H322     1.0000 0.83050  0.99600  0.17000  Biso   1.000  H
  H323     1.0000 0.83050  0.50400  0.67000  Biso   1.000  H
  H324     1.0000 0.16950  0.00400  0.83000  Biso   1.000  H
  H325     1.0000 0.17920  0.49600  0.27170  Biso   1.000  H
  H326     1.0000 0.82080  0.99600  0.22830  Biso   1.000  H
  H327     1.0000 0.82080  0.50400  0.72830  Biso   1.000  H
  H328     1.0000 0.17920  0.00400  0.77170  Biso   1.000  H
  O101     1.0000 0.30723  0.48590  0.49810  Biso   1.000  O
  O102     1.0000 0.69277  0.98590  0.00190  Biso   1.000  O
  O103     1.0000 0.69277  0.51410  0.50190  Biso   1.000  O
  O104     1.0000 0.30723  0.01410  0.99810  Biso   1.000  O
  H329     1.0000 0.31600  0.53100  0.49600  Biso   1.000  H
  H330     1.0000 0.68400  0.03100  0.00400  Biso   1.000  H
  H331     1.0000 0.68400  0.46900  0.50400  Biso   1.000  H
  H332     1.0000 0.31600  0.96900  0.99600  Biso   1.000  H
  H333     1.0000 0.33350  0.46300  0.51300  Biso   1.000  H
  H334     1.0000 0.66650  0.96300  0.98700  Biso   1.000  H
  H335     1.0000 0.66650  0.53700  0.48700  Biso   1.000  H
  H336     1.0000 0.33350  0.03700  0.01300  Biso   1.000  H
  O105     1.0000 0.56720  0.50410  0.73650  Biso   1.000  O
  O106     1.0000 0.43280  0.00410  0.76350  Biso   1.000  O
  O107     1.0000 0.43280  0.49590  0.26350  Biso   1.000  O
  O108     1.0000 0.56720  0.99590  0.23650  Biso   1.000  O
  H337     1.0000 0.57000  0.50800  0.69360  Biso   1.000  H
  H338     1.0000 0.43000  0.00800  0.80640  Biso   1.000  H
  H339     1.0000 0.43000  0.49200  0.30640  Biso   1.000  H
  H340     1.0000 0.57000  0.99200  0.19360  Biso   1.000  H
  H341     1.0000 0.53960  0.47800  0.71600  Biso   1.000  H
  H342     1.0000 0.46040  0.97800  0.78400  Biso   1.000  H
  H343     1.0000 0.46040  0.52200  0.28400  Biso   1.000  H
  H344     1.0000 0.53960  0.02200  0.21600  Biso   1.000  H
  O109     1.0000 0.03026  0.95540  0.36190  Biso   1.000  O
  O110     1.0000 0.96974  0.45540  0.13810  Biso   1.000  O
  O111     1.0000 0.96974  0.04460  0.63810  Biso   1.000  O
  O112     1.0000 0.03026  0.54460  0.86190  Biso   1.000  O
  H345     1.0000 0.04400  0.97200  0.33800  Biso   1.000  H
  H346     1.0000 0.95600  0.47200  0.16200  Biso   1.000  H
  H347     1.0000 0.95600  0.02800  0.66200  Biso   1.000  H
  H348     1.0000 0.04400  0.52800  0.83800  Biso   1.000  H
  H349     1.0000 0.00160  0.97000  0.34700  Biso   1.000  H
  H350     1.0000 0.99840  0.47000  0.15300  Biso   1.000  H
  H351     1.0000 0.99840  0.03000  0.65300  Biso   1.000  H
  H352     1.0000 0.00160  0.53000  0.84700  Biso   1.000  H
  O113     1.0000 0.21488  0.50080  0.51550  Biso   1.000  O
  O114     1.0000 0.78512  0.00080  0.98450  Biso   1.000  O
  O115     1.0000 0.78512  0.49920  0.48450  Biso   1.000  O
  O116     1.0000 0.21488  0.99920  0.01550  Biso   1.000  O
  H353     1.0000 0.24330  0.50000  0.51800  Biso   1.000  H
  H354     1.0000 0.75670  0.00000  0.98200  Biso   1.000  H
  H355     1.0000 0.75670  0.50000  0.48200  Biso   1.000  H
  H356     1.0000 0.24330  0.00000  0.01800  Biso   1.000  H
  H357     1.0000 0.19350  0.52000  0.48400  Biso   1.000  H
  H358     1.0000 0.80650  0.02000  0.01600  Biso   1.000  H
  H359     1.0000 0.80650  0.48000  0.51600  Biso   1.000  H
  H360     1.0000 0.19350  0.98000  0.98400  Biso   1.000  H
  O117     1.0000 0.32677  0.52740  0.64128  Biso   1.000  O
  O118     1.0000 0.67323  0.02740  0.85872  Biso   1.000  O
  O119     1.0000 0.67323  0.47260  0.35872  Biso   1.000  O
  O120     1.0000 0.32677  0.97260  0.14128  Biso   1.000  O
  H361     1.0000 0.35560  0.51700  0.64800  Biso   1.000  H
  H362     1.0000 0.64440  0.01700  0.85200  Biso   1.000  H
  H363     1.0000 0.64440  0.48300  0.35200  Biso   1.000  H
  H364     1.0000 0.35560  0.98300  0.14800  Biso   1.000  H
  H365     1.0000 0.31090  0.50700  0.60670  Biso   1.000  H
  H366     1.0000 0.68910  0.00700  0.89330  Biso   1.000  H
  H367     1.0000 0.68910  0.49300  0.39330  Biso   1.000  H
  H368     1.0000 0.31090  0.99300  0.10670  Biso   1.000  H
  O121     1.0000 0.46708  0.54280  0.79427  Biso   1.000  O
  O122     1.0000 0.53292  0.04280  0.70573  Biso   1.000  O
  O123     1.0000 0.53292  0.45720  0.20573  Biso   1.000  O
  O124     1.0000 0.46708  0.95720  0.29427  Biso   1.000  O
  H369     1.0000 0.45700  0.52700  0.75610  Biso   1.000  H
  H370     1.0000 0.54300  0.02700  0.74390  Biso   1.000  H
  H371     1.0000 0.54300  0.47300  0.24390  Biso   1.000  H
  H372     1.0000 0.45700  0.97300  0.25610  Biso   1.000  H
  H373     1.0000 0.49520  0.52800  0.81000  Biso   1.000  H
  H374     1.0000 0.50480  0.02800  0.69000  Biso   1.000  H
  H375     1.0000 0.50480  0.47200  0.19000  Biso   1.000  H
  H376     1.0000 0.49520  0.97200  0.31000  Biso   1.000  H
  O125     1.0000 0.19187  0.44120  0.61730  Biso   1.000  O
  O126     1.0000 0.80813  0.94120  0.88270  Biso   1.000  O
  O127     1.0000 0.80813  0.55880  0.38270  Biso   1.000  O
  O128     1.0000 0.19187  0.05880  0.11730  Biso   1.000  O
  H377     1.0000 0.21100  0.45100  0.65510  Biso   1.000  H
  H378     1.0000 0.78900  0.95100  0.84490  Biso   1.000  H
  H379     1.0000 0.78900  0.54900  0.34490  Biso   1.000  H
  H380     1.0000 0.21100  0.04900  0.15510  Biso   1.000  H
  H381     1.0000 0.20000  0.48100  0.60100  Biso   1.000  H
  H382     1.0000 0.80000  0.98100  0.89900  Biso   1.000  H
  H383     1.0000 0.80000  0.51900  0.39900  Biso   1.000  H
  H384     1.0000 0.20000  0.01900  0.10100  Biso   1.000  H
  O129     1.0000 0.09343  0.45430  0.56442  Biso   1.000  O
  O130     1.0000 0.90657  0.95430  0.93558  Biso   1.000  O
  O131     1.0000 0.90657  0.54570  0.43558  Biso   1.000  O
  O132     1.0000 0.09343  0.04570  0.06442  Biso   1.000  O
  H385     1.0000 0.08260  0.46200  0.52480  Biso   1.000  H
  H386     1.0000 0.91740  0.96200  0.97520  Biso   1.000  H
  H387     1.0000 0.91740  0.53800  0.47520  Biso   1.000  H
  H388     1.0000 0.08260  0.03800  0.02480  Biso   1.000  H
  H389     1.0000 0.12000  0.46100  0.58900  Biso   1.000  H
  H390     1.0000 0.88000  0.96100  0.91100  Biso   1.000  H
  H391     1.0000 0.88000  0.53900  0.41100  Biso   1.000  H
  H392     1.0000 0.12000  0.03900  0.08900  Biso   1.000  H
  O133     1.0000 0.27694  0.46260  0.72027  Biso   1.000  O
  O134     1.0000 0.72306  0.96260  0.77973  Biso   1.000  O
  O135     1.0000 0.72306  0.53740  0.27973  Biso   1.000  O
  O136     1.0000 0.27694  0.03740  0.22027  Biso   1.000  O
  H393     1.0000 0.29650  0.48100  0.70300  Biso   1.000  H
  H394     1.0000 0.70350  0.98100  0.79700  Biso   1.000  H
  H395     1.0000 0.70350  0.51900  0.29700  Biso   1.000  H
  H396     1.0000 0.29650  0.01900  0.20300  Biso   1.000  H
  H397     1.0000 0.29200  0.46900  0.76020  Biso   1.000  H
  H398     1.0000 0.70800  0.96900  0.73980  Biso   1.000  H
  H399     1.0000 0.70800  0.53100  0.23980  Biso   1.000  H
  H400     1.0000 0.29200  0.03100  0.26020  Biso   1.000  H
  O137     1.0000 0.43087  0.47683  0.88564  Biso   1.000  O
  O138     1.0000 0.56913  0.97683  0.61436  Biso   1.000  O
  O139     1.0000 0.56913  0.52317  0.11436  Biso   1.000  O
  O140     1.0000 0.43087  0.02317  0.38564  Biso   1.000  O
  H401     1.0000 0.40160  0.48600  0.87400  Biso   1.000  H
  H402     1.0000 0.59840  0.98600  0.62600  Biso   1.000  H
  H403     1.0000 0.59840  0.51400  0.12600  Biso   1.000  H
  H404     1.0000 0.40160  0.01400  0.37400  Biso   1.000  H
  H405     1.0000 0.44090  0.49600  0.85820  Biso   1.000  H
  H406     1.0000 0.55910  0.99600  0.64180  Biso   1.000  H
  H407     1.0000 0.55910  0.50400  0.14180  Biso   1.000  H
  H408     1.0000 0.44090  0.00400  0.35820  Biso   1.000  H
  O141     1.0000 0.28506  0.94590  0.87371  Biso   1.000  O
  O142     1.0000 0.71494  0.44590  0.62629  Biso   1.000  O
  O143     1.0000 0.71494  0.05410  0.12629  Biso   1.000  O
  O144     1.0000 0.28506  0.55410  0.37371  Biso   1.000  O
  H409     1.0000 0.25600  0.96000  0.85100  Biso   1.000  H
  H410     1.0000 0.74400  0.46000  0.64900  Biso   1.000  H
  H411     1.0000 0.74400  0.04000  0.14900  Biso   1.000  H
  H412     1.0000 0.25600  0.54000  0.35100  Biso   1.000  H
  H413     1.0000 0.30510  0.96600  0.90650  Biso   1.000  H
  H414     1.0000 0.69490  0.46600  0.59350  Biso   1.000  H
  H415     1.0000 0.69490  0.03400  0.09350  Biso   1.000  H
  H416     1.0000 0.30510  0.53400  0.40650  Biso   1.000  H
  O145     1.0000 0.17783  0.49293  0.85797  Biso   1.000  O
  O146     1.0000 0.82217  0.99293  0.64203  Biso   1.000  O
  O147     1.0000 0.82217  0.50707  0.14203  Biso   1.000  O
  O148     1.0000 0.17783  0.00707  0.35797  Biso   1.000  O
  H417     1.0000 0.20190  0.51800  0.85500  Biso   1.000  H
  H418     1.0000 0.79810  0.01800  0.64500  Biso   1.000  H
  H419     1.0000 0.79810  0.48200  0.14500  Biso   1.000  H
  H420     1.0000 0.20190  0.98200  0.35500  Biso   1.000  H
  H421     1.0000 0.17290  0.50500  0.89330  Biso   1.000  H
  H422     1.0000 0.82710  0.00500  0.60670  Biso   1.000  H
  H423     1.0000 0.82710  0.49500  0.10670  Biso   1.000  H
  H424     1.0000 0.17290  0.99500  0.39330  Biso   1.000  H
  O149     1.0000 0.08114  0.50550  0.78031  Biso   1.000  O
  O150     1.0000 0.91886  0.00550  0.71969  Biso   1.000  O
  O151     1.0000 0.91886  0.49450  0.21969  Biso   1.000  O
  O152     1.0000 0.08114  0.99450  0.28031  Biso   1.000  O
  H425     1.0000 0.06530  0.49600  0.74450  Biso   1.000  H
  H426     1.0000 0.93470  0.99600  0.75550  Biso   1.000  H
  H427     1.0000 0.93470  0.50400  0.25550  Biso   1.000  H
  H428     1.0000 0.06530  0.00400  0.24450  Biso   1.000  H
  H429     1.0000 0.10970  0.50200  0.79300  Biso   1.000  H
  H430     1.0000 0.89030  0.00200  0.70700  Biso   1.000  H
  H431     1.0000 0.89030  0.49800  0.20700  Biso   1.000  H
  H432     1.0000 0.10970  0.99800  0.29300  Biso   1.000  H
  O153     1.0000 0.14268  0.54820  0.95474  Biso   1.000  O
  O154     1.0000 0.85732  0.04820  0.54526  Biso   1.000  O
  O155     1.0000 0.85732  0.45180  0.04526  Biso   1.000  O
  O156     1.0000 0.14268  0.95180  0.45474  Biso   1.000  O
  H433     1.0000 0.15430  0.53900  0.99590  Biso   1.000  H
  H434     1.0000 0.84570  0.03900  0.50410  Biso   1.000  H
  H435     1.0000 0.84570  0.46100  0.00410  Biso   1.000  H
  H436     1.0000 0.15430  0.96100  0.49590  Biso   1.000  H
  H437     1.0000 0.11230  0.54500  0.94100  Biso   1.000  H
  H438     1.0000 0.88770  0.04500  0.55900  Biso   1.000  H
  H439     1.0000 0.88770  0.45500  0.05900  Biso   1.000  H
  H440     1.0000 0.11230  0.95500  0.44100  Biso   1.000  H
  O157     1.0000 0.30057  0.50110  0.17460  Biso   1.000  O
  O158     1.0000 0.69943  0.00110  0.32540  Biso   1.000  O
  O159     1.0000 0.69943  0.49890  0.82540  Biso   1.000  O
  O160     1.0000 0.30057  0.99890  0.67460  Biso   1.000  O
  H441     1.0000 0.29260  0.51020  0.13430  Biso   1.000  H
  H442     1.0000 0.70740  0.01020  0.36570  Biso   1.000  H
  H443     1.0000 0.70740  0.48980  0.86570  Biso   1.000  H
  H444     1.0000 0.29260  0.98980  0.63430  Biso   1.000  H
  H445     1.0000 0.27780  0.47480  0.17900  Biso   1.000  H
  H446     1.0000 0.72220  0.97480  0.32100  Biso   1.000  H
  H447     1.0000 0.72220  0.52520  0.82100  Biso   1.000  H
  H448     1.0000 0.27780  0.02520  0.67900  Biso   1.000  H
