data_image0
_cell_length_a       37.979
_cell_length_b       37.979
_cell_length_c       16.959
_cell_angle_alpha    90
_cell_angle_beta     90
_cell_angle_gamma    90

_symmetry_space_group_name_H-M    "P 1"
_symmetry_int_tables_number       1

loop_
  _symmetry_equiv_pos_as_xyz
  'x, y, z'

loop_
  _atom_site_label
  _atom_site_occupancy
  _atom_site_fract_x
  _atom_site_fract_y
  _atom_site_fract_z
  _atom_site_thermal_displace_type
  _atom_site_B_iso_or_equiv
  _atom_site_type_symbol
  Cu1      1.0000 0.00000  0.25000  0.12500  Biso   1.000  Cu
  Cu2      1.0000 0.50000  0.25000  0.37500  Biso   1.000  Cu
  Cu3      1.0000 0.50000  0.75000  0.62500  Biso   1.000  Cu
  Cu4      1.0000 0.00000  0.75000  0.87500  Biso   1.000  Cu
  Cu5      1.0000 0.18158  0.96005  0.27461  Biso   1.000  Cu
  Cu6      1.0000 0.78995  0.43158  0.52461  Biso   1.000  Cu
  Cu7      1.0000 0.81842  0.53995  0.27461  Biso   1.000  Cu
  Cu8      1.0000 0.21005  0.06842  0.52461  Biso   1.000  Cu
  Cu9      1.0000 0.68158  0.46005  0.77461  Biso   1.000  Cu
  Cu10     1.0000 0.28995  0.93158  0.02461  Biso   1.000  Cu
  Cu11     1.0000 0.31842  0.03995  0.77461  Biso   1.000  Cu
  Cu12     1.0000 0.71005  0.56842  0.02461  Biso   1.000  Cu
  Cu13     1.0000 0.81842  0.03995  0.72539  Biso   1.000  Cu
  Cu14     1.0000 0.71005  0.06842  0.97539  Biso   1.000  Cu
  Cu15     1.0000 0.18158  0.46005  0.72539  Biso   1.000  Cu
  Cu16     1.0000 0.28995  0.43158  0.97539  Biso   1.000  Cu
  Cu17     1.0000 0.31842  0.53995  0.22539  Biso   1.000  Cu
  Cu18     1.0000 0.21005  0.56842  0.47539  Biso   1.000  Cu
  Cu19     1.0000 0.68158  0.96005  0.22539  Biso   1.000  Cu
  Cu20     1.0000 0.78995  0.93158  0.47539  Biso   1.000  Cu
  P1       1.0000 0.25279  0.19124  0.01599  Biso   1.000  P
  P2       1.0000 0.55876  0.50279  0.26599  Biso   1.000  P
  P3       1.0000 0.74721  0.30876  0.01599  Biso   1.000  P
  P4       1.0000 0.44124  0.99721  0.26599  Biso   1.000  P
  P5       1.0000 0.75279  0.69124  0.51599  Biso   1.000  P
  P6       1.0000 0.05876  0.00279  0.76599  Biso   1.000  P
  P7       1.0000 0.24721  0.80876  0.51599  Biso   1.000  P
  P8       1.0000 0.94124  0.49721  0.76599  Biso   1.000  P
  P9       1.0000 0.74721  0.80876  0.98401  Biso   1.000  P
  P10      1.0000 0.94124  0.99721  0.23401  Biso   1.000  P
  P11      1.0000 0.25279  0.69124  0.98401  Biso   1.000  P
  P12      1.0000 0.05876  0.50279  0.23401  Biso   1.000  P
  P13      1.0000 0.24721  0.30876  0.48401  Biso   1.000  P
  P14      1.0000 0.44124  0.49721  0.73401  Biso   1.000  P
  P15      1.0000 0.75279  0.19124  0.48401  Biso   1.000  P
  P16      1.0000 0.55876  0.00279  0.73401  Biso   1.000  P
  P17      1.0000 0.22475  0.13157  0.09030  Biso   1.000  P
  P18      1.0000 0.61843  0.47475  0.34030  Biso   1.000  P
  P19      1.0000 0.77525  0.36843  0.09030  Biso   1.000  P
  P20      1.0000 0.38157  0.02525  0.34030  Biso   1.000  P
  P21      1.0000 0.72475  0.63157  0.59030  Biso   1.000  P
  P22      1.0000 0.11843  0.97475  0.84030  Biso   1.000  P
  P23      1.0000 0.27525  0.86843  0.59030  Biso   1.000  P
  P24      1.0000 0.88157  0.52525  0.84030  Biso   1.000  P
  P25      1.0000 0.77525  0.86843  0.90970  Biso   1.000  P
  P26      1.0000 0.88157  0.02525  0.15970  Biso   1.000  P
  P27      1.0000 0.22475  0.63157  0.90970  Biso   1.000  P
  P28      1.0000 0.11843  0.47475  0.15970  Biso   1.000  P
  P29      1.0000 0.27525  0.36843  0.40970  Biso   1.000  P
  P30      1.0000 0.38157  0.52525  0.65970  Biso   1.000  P
  P31      1.0000 0.72475  0.13157  0.40970  Biso   1.000  P
  P32      1.0000 0.61843  0.97475  0.65970  Biso   1.000  P
  P33      1.0000 0.18767  0.22556  0.04906  Biso   1.000  P
  P34      1.0000 0.52444  0.43767  0.29906  Biso   1.000  P
  P35      1.0000 0.81233  0.27444  0.04906  Biso   1.000  P
  P36      1.0000 0.47556  0.06233  0.29906  Biso   1.000  P
  P37      1.0000 0.68767  0.72556  0.54906  Biso   1.000  P
  P38      1.0000 0.02444  0.93767  0.79906  Biso   1.000  P
  P39      1.0000 0.31233  0.77444  0.54906  Biso   1.000  P
  P40      1.0000 0.97556  0.56233  0.79906  Biso   1.000  P
  P41      1.0000 0.81233  0.77444  0.95094  Biso   1.000  P
  P42      1.0000 0.97556  0.06233  0.20094  Biso   1.000  P
  P43      1.0000 0.18767  0.72556  0.95094  Biso   1.000  P
  P44      1.0000 0.02444  0.43767  0.20094  Biso   1.000  P
  P45      1.0000 0.31233  0.27444  0.45094  Biso   1.000  P
  P46      1.0000 0.47556  0.56233  0.70094  Biso   1.000  P
  P47      1.0000 0.68767  0.22556  0.45094  Biso   1.000  P
  P48      1.0000 0.52444  0.93767  0.70094  Biso   1.000  P
  P49      1.0000 0.17748  0.17596  0.17212  Biso   1.000  P
  P50      1.0000 0.57404  0.42748  0.42212  Biso   1.000  P
  P51      1.0000 0.82252  0.32404  0.17212  Biso   1.000  P
  P52      1.0000 0.42596  0.07252  0.42212  Biso   1.000  P
  P53      1.0000 0.67748  0.67596  0.67212  Biso   1.000  P
  P54      1.0000 0.07404  0.92748  0.92212  Biso   1.000  P
  P55      1.0000 0.32252  0.82404  0.67212  Biso   1.000  P
  P56      1.0000 0.92596  0.57252  0.92212  Biso   1.000  P
  P57      1.0000 0.82252  0.82404  0.82788  Biso   1.000  P
  P58      1.0000 0.92596  0.07252  0.07788  Biso   1.000  P
  P59      1.0000 0.17748  0.67596  0.82788  Biso   1.000  P
  P60      1.0000 0.07404  0.42748  0.07788  Biso   1.000  P
  P61      1.0000 0.32252  0.32404  0.32788  Biso   1.000  P
  P62      1.0000 0.42596  0.57252  0.57788  Biso   1.000  P
  P63      1.0000 0.67748  0.17596  0.32788  Biso   1.000  P
  P64      1.0000 0.57404  0.92748  0.57788  Biso   1.000  P
  Cu21     1.0000 0.40232  0.10216  0.84174  Biso   1.000  Cu
  Cu22     1.0000 0.64784  0.65232  0.09174  Biso   1.000  Cu
  Cu23     1.0000 0.59768  0.39784  0.84174  Biso   1.000  Cu
  Cu24     1.0000 0.35216  0.84768  0.09174  Biso   1.000  Cu
  Cu25     1.0000 0.90232  0.60216  0.34174  Biso   1.000  Cu
  Cu26     1.0000 0.14784  0.15232  0.59174  Biso   1.000  Cu
  Cu27     1.0000 0.09768  0.89784  0.34174  Biso   1.000  Cu
  Cu28     1.0000 0.85216  0.34768  0.59174  Biso   1.000  Cu
  Cu29     1.0000 0.59768  0.89784  0.15826  Biso   1.000  Cu
  Cu30     1.0000 0.85216  0.84768  0.40826  Biso   1.000  Cu
  Cu31     1.0000 0.40232  0.60216  0.15826  Biso   1.000  Cu
  Cu32     1.0000 0.14784  0.65232  0.40826  Biso   1.000  Cu
  Cu33     1.0000 0.09768  0.39784  0.65826  Biso   1.000  Cu
  Cu34     1.0000 0.35216  0.34768  0.90826  Biso   1.000  Cu
  Cu35     1.0000 0.90232  0.10216  0.65826  Biso   1.000  Cu
  Cu36     1.0000 0.64784  0.15232  0.90826  Biso   1.000  Cu
  N1       1.0000 0.26749  0.17897  0.92759  Biso   1.000  N
  N2       1.0000 0.57103  0.51749  0.17759  Biso   1.000  N
  N3       1.0000 0.73251  0.32103  0.92759  Biso   1.000  N
  N4       1.0000 0.42897  0.98251  0.17759  Biso   1.000  N
  N5       1.0000 0.76749  0.67897  0.42759  Biso   1.000  N
  N6       1.0000 0.07103  0.01749  0.67759  Biso   1.000  N
  N7       1.0000 0.23251  0.82103  0.42759  Biso   1.000  N
  N8       1.0000 0.92897  0.48251  0.67759  Biso   1.000  N
  N9       1.0000 0.73251  0.82103  0.07241  Biso   1.000  N
  N10      1.0000 0.92897  0.98251  0.32241  Biso   1.000  N
  N11      1.0000 0.26749  0.67897  0.07241  Biso   1.000  N
  N12      1.0000 0.07103  0.51749  0.32241  Biso   1.000  N
  N13      1.0000 0.23251  0.32103  0.57241  Biso   1.000  N
  N14      1.0000 0.42897  0.48251  0.82241  Biso   1.000  N
  N15      1.0000 0.76749  0.17897  0.57241  Biso   1.000  N
  N16      1.0000 0.57103  0.01749  0.82241  Biso   1.000  N
  H1       1.0000 0.25390  0.18350  0.88830  Biso   1.000  H
  H2       1.0000 0.56650  0.50390  0.13830  Biso   1.000  H
  H3       1.0000 0.74610  0.31650  0.88830  Biso   1.000  H
  H4       1.0000 0.43350  0.99610  0.13830  Biso   1.000  H
  H5       1.0000 0.75390  0.68350  0.38830  Biso   1.000  H
  H6       1.0000 0.06650  0.00390  0.63830  Biso   1.000  H
  H7       1.0000 0.24610  0.81650  0.38830  Biso   1.000  H
  H8       1.0000 0.93350  0.49610  0.63830  Biso   1.000  H
  H9       1.0000 0.74610  0.81650  0.11170  Biso   1.000  H
  H10      1.0000 0.93350  0.99610  0.36170  Biso   1.000  H
  H11      1.0000 0.25390  0.68350  0.11170  Biso   1.000  H
  H12      1.0000 0.06650  0.50390  0.36170  Biso   1.000  H
  H13      1.0000 0.24610  0.31650  0.61170  Biso   1.000  H
  H14      1.0000 0.43350  0.49610  0.86170  Biso   1.000  H
  H15      1.0000 0.75390  0.18350  0.61170  Biso   1.000  H
  H16      1.0000 0.56650  0.00390  0.86170  Biso   1.000  H
  N17      1.0000 0.24366  0.10331  0.15232  Biso   1.000  N
  N18      1.0000 0.64669  0.49366  0.40232  Biso   1.000  N
  N19      1.0000 0.75634  0.39669  0.15232  Biso   1.000  N
  N20      1.0000 0.35331  0.00634  0.40232  Biso   1.000  N
  N21      1.0000 0.74366  0.60331  0.65232  Biso   1.000  N
  N22      1.0000 0.14669  0.99366  0.90232  Biso   1.000  N
  N23      1.0000 0.25634  0.89669  0.65232  Biso   1.000  N
  N24      1.0000 0.85331  0.50634  0.90232  Biso   1.000  N
  N25      1.0000 0.75634  0.89669  0.84768  Biso   1.000  N
  N26      1.0000 0.85331  0.00634  0.09768  Biso   1.000  N
  N27      1.0000 0.24366  0.60331  0.84768  Biso   1.000  N
  N28      1.0000 0.14669  0.49366  0.09768  Biso   1.000  N
  N29      1.0000 0.25634  0.39669  0.34768  Biso   1.000  N
  N30      1.0000 0.35331  0.50634  0.59768  Biso   1.000  N
  N31      1.0000 0.74366  0.10331  0.34768  Biso   1.000  N
  N32      1.0000 0.64669  0.99366  0.59768  Biso   1.000  N
  H17      1.0000 0.26430  0.10860  0.16930  Biso   1.000  H
  H18      1.0000 0.64140  0.51430  0.41930  Biso   1.000  H
  H19      1.0000 0.73570  0.39140  0.16930  Biso   1.000  H
  H20      1.0000 0.35860  0.98570  0.41930  Biso   1.000  H
  H21      1.0000 0.76430  0.60860  0.66930  Biso   1.000  H
  H22      1.0000 0.14140  0.01430  0.91930  Biso   1.000  H
  H23      1.0000 0.23570  0.89140  0.66930  Biso   1.000  H
  H24      1.0000 0.85860  0.48570  0.91930  Biso   1.000  H
  H25      1.0000 0.73570  0.89140  0.83070  Biso   1.000  H
  H26      1.0000 0.85860  0.98570  0.08070  Biso   1.000  H
  H27      1.0000 0.26430  0.60860  0.83070  Biso   1.000  H
  H28      1.0000 0.14140  0.51430  0.08070  Biso   1.000  H
  H29      1.0000 0.23570  0.39140  0.33070  Biso   1.000  H
  H30      1.0000 0.35860  0.48570  0.58070  Biso   1.000  H
  H31      1.0000 0.76430  0.10860  0.33070  Biso   1.000  H
  H32      1.0000 0.64140  0.01430  0.58070  Biso   1.000  H
  N33      1.0000 0.28291  0.21862  0.05147  Biso   1.000  N
  N34      1.0000 0.53138  0.53291  0.30147  Biso   1.000  N
  N35      1.0000 0.71709  0.28138  0.05147  Biso   1.000  N
  N36      1.0000 0.46862  0.96709  0.30147  Biso   1.000  N
  N37      1.0000 0.78291  0.71862  0.55147  Biso   1.000  N
  N38      1.0000 0.03138  0.03291  0.80147  Biso   1.000  N
  N39      1.0000 0.21709  0.78138  0.55147  Biso   1.000  N
  N40      1.0000 0.96862  0.46709  0.80147  Biso   1.000  N
  N41      1.0000 0.71709  0.78138  0.94853  Biso   1.000  N
  N42      1.0000 0.96862  0.96709  0.19853  Biso   1.000  N
  N43      1.0000 0.28291  0.71862  0.94853  Biso   1.000  N
  N44      1.0000 0.03138  0.53291  0.19853  Biso   1.000  N
  N45      1.0000 0.21709  0.28138  0.44853  Biso   1.000  N
  N46      1.0000 0.46862  0.46709  0.69853  Biso   1.000  N
  N47      1.0000 0.78291  0.21862  0.44853  Biso   1.000  N
  N48      1.0000 0.53138  0.03291  0.69853  Biso   1.000  N
  H33      1.0000 0.29030  0.21400  0.09830  Biso   1.000  H
  H34      1.0000 0.53600  0.54030  0.34830  Biso   1.000  H
  H35      1.0000 0.70970  0.28600  0.09830  Biso   1.000  H
  H36      1.0000 0.46400  0.95970  0.34830  Biso   1.000  H
  H37      1.0000 0.79030  0.71400  0.59830  Biso   1.000  H
  H38      1.0000 0.03600  0.04030  0.84830  Biso   1.000  H
  H39      1.0000 0.20970  0.78600  0.59830  Biso   1.000  H
  H40      1.0000 0.96400  0.45970  0.84830  Biso   1.000  H
  H41      1.0000 0.70970  0.78600  0.90170  Biso   1.000  H
  H42      1.0000 0.96400  0.95970  0.15170  Biso   1.000  H
  H43      1.0000 0.29030  0.71400  0.90170  Biso   1.000  H
  H44      1.0000 0.03600  0.54030  0.15170  Biso   1.000  H
  H45      1.0000 0.20970  0.28600  0.40170  Biso   1.000  H
  H46      1.0000 0.46400  0.45970  0.65170  Biso   1.000  H
  H47      1.0000 0.79030  0.21400  0.40170  Biso   1.000  H
  H48      1.0000 0.53600  0.04030  0.65170  Biso   1.000  H
  N49      1.0000 0.21570  0.10887  0.00831  Biso   1.000  N
  N50      1.0000 0.64113  0.46570  0.25831  Biso   1.000  N
  N51      1.0000 0.78430  0.39113  0.00831  Biso   1.000  N
  N52      1.0000 0.35887  0.03430  0.25831  Biso   1.000  N
  N53      1.0000 0.71570  0.60887  0.50831  Biso   1.000  N
  N54      1.0000 0.14113  0.96570  0.75831  Biso   1.000  N
  N55      1.0000 0.28430  0.89113  0.50831  Biso   1.000  N
  N56      1.0000 0.85887  0.53430  0.75831  Biso   1.000  N
  N57      1.0000 0.78430  0.89113  0.99169  Biso   1.000  N
  N58      1.0000 0.85887  0.03430  0.24169  Biso   1.000  N
  N59      1.0000 0.21570  0.60887  0.99169  Biso   1.000  N
  N60      1.0000 0.14113  0.46570  0.24169  Biso   1.000  N
  N61      1.0000 0.28430  0.39113  0.49169  Biso   1.000  N
  N62      1.0000 0.35887  0.53430  0.74169  Biso   1.000  N
  N63      1.0000 0.71570  0.10887  0.49169  Biso   1.000  N
  N64      1.0000 0.64113  0.96570  0.74169  Biso   1.000  N
  H49      1.0000 0.19380  0.10720  0.99560  Biso   1.000  H
  H50      1.0000 0.64280  0.44380  0.24560  Biso   1.000  H
  H51      1.0000 0.80620  0.39280  0.99560  Biso   1.000  H
  H52      1.0000 0.35720  0.05620  0.24560  Biso   1.000  H
  H53      1.0000 0.69380  0.60720  0.49560  Biso   1.000  H
  H54      1.0000 0.14280  0.94380  0.74560  Biso   1.000  H
  H55      1.0000 0.30620  0.89280  0.49560  Biso   1.000  H
  H56      1.0000 0.85720  0.55620  0.74560  Biso   1.000  H
  H57      1.0000 0.80620  0.89280  0.00440  Biso   1.000  H
  H58      1.0000 0.85720  0.05620  0.25440  Biso   1.000  H
  H59      1.0000 0.19380  0.60720  0.00440  Biso   1.000  H
  H60      1.0000 0.14280  0.44380  0.25440  Biso   1.000  H
  H61      1.0000 0.30620  0.39280  0.50440  Biso   1.000  H
  H62      1.0000 0.35720  0.55620  0.75440  Biso   1.000  H
  H63      1.0000 0.69380  0.10720  0.50440  Biso   1.000  H
  H64      1.0000 0.64280  0.94380  0.75440  Biso   1.000  H
  C1       1.0000 0.29903  0.16236  0.91007  Biso   1.000  C
  C2       1.0000 0.58764  0.54903  0.16007  Biso   1.000  C
  C3       1.0000 0.70097  0.33764  0.91007  Biso   1.000  C
  C4       1.0000 0.41236  0.95097  0.16007  Biso   1.000  C
  C5       1.0000 0.79903  0.66236  0.41007  Biso   1.000  C
  C6       1.0000 0.08764  0.04903  0.66007  Biso   1.000  C
  C7       1.0000 0.20097  0.83764  0.41007  Biso   1.000  C
  C8       1.0000 0.91236  0.45097  0.66007  Biso   1.000  C
  C9       1.0000 0.70097  0.83764  0.08993  Biso   1.000  C
  C10      1.0000 0.91236  0.95097  0.33993  Biso   1.000  C
  C11      1.0000 0.29903  0.66236  0.08993  Biso   1.000  C
  C12      1.0000 0.08764  0.54903  0.33993  Biso   1.000  C
  C13      1.0000 0.20097  0.33764  0.58993  Biso   1.000  C
  C14      1.0000 0.41236  0.45097  0.83993  Biso   1.000  C
  C15      1.0000 0.79903  0.16236  0.58993  Biso   1.000  C
  C16      1.0000 0.58764  0.04903  0.83993  Biso   1.000  C
  C17      1.0000 0.22932  0.07224  0.17885  Biso   1.000  C
  C18      1.0000 0.67776  0.47932  0.42885  Biso   1.000  C
  C19      1.0000 0.77068  0.42776  0.17885  Biso   1.000  C
  C20      1.0000 0.32224  0.02068  0.42885  Biso   1.000  C
  C21      1.0000 0.72932  0.57224  0.67885  Biso   1.000  C
  C22      1.0000 0.17776  0.97932  0.92885  Biso   1.000  C
  C23      1.0000 0.27068  0.92776  0.67885  Biso   1.000  C
  C24      1.0000 0.82224  0.52068  0.92885  Biso   1.000  C
  C25      1.0000 0.77068  0.92776  0.82115  Biso   1.000  C
  C26      1.0000 0.82224  0.02068  0.07115  Biso   1.000  C
  C27      1.0000 0.22932  0.57224  0.82115  Biso   1.000  C
  C28      1.0000 0.17776  0.47932  0.07115  Biso   1.000  C
  C29      1.0000 0.27068  0.42776  0.32115  Biso   1.000  C
  C30      1.0000 0.32224  0.52068  0.57115  Biso   1.000  C
  C31      1.0000 0.72932  0.07224  0.32115  Biso   1.000  C
  C32      1.0000 0.67776  0.97932  0.57115  Biso   1.000  C
  N65      1.0000 0.15103  0.21901  0.99826  Biso   1.000  N
  N66      1.0000 0.53099  0.40103  0.24826  Biso   1.000  N
  N67      1.0000 0.84897  0.28099  0.99826  Biso   1.000  N
  N68      1.0000 0.46901  0.09897  0.24826  Biso   1.000  N
  N69      1.0000 0.65103  0.71901  0.49826  Biso   1.000  N
  N70      1.0000 0.03099  0.90103  0.74826  Biso   1.000  N
  N71      1.0000 0.34897  0.78099  0.49826  Biso   1.000  N
  N72      1.0000 0.96901  0.59897  0.74826  Biso   1.000  N
  N73      1.0000 0.84897  0.78099  0.00174  Biso   1.000  N
  N74      1.0000 0.96901  0.09897  0.25174  Biso   1.000  N
  N75      1.0000 0.15103  0.71901  0.00174  Biso   1.000  N
  N76      1.0000 0.03099  0.40103  0.25174  Biso   1.000  N
  N77      1.0000 0.34897  0.28099  0.50174  Biso   1.000  N
  N78      1.0000 0.46901  0.59897  0.75174  Biso   1.000  N
  N79      1.0000 0.65103  0.21901  0.50174  Biso   1.000  N
  N80      1.0000 0.53099  0.90103  0.75174  Biso   1.000  N
  H65      1.0000 0.15320  0.20870  0.95340  Biso   1.000  H
  H66      1.0000 0.54130  0.40320  0.20340  Biso   1.000  H
  H67      1.0000 0.84680  0.29130  0.95340  Biso   1.000  H
  H68      1.0000 0.45870  0.09680  0.20340  Biso   1.000  H
  H69      1.0000 0.65320  0.70870  0.45340  Biso   1.000  H
  H70      1.0000 0.04130  0.90320  0.70340  Biso   1.000  H
  H71      1.0000 0.34680  0.79130  0.45340  Biso   1.000  H
  H72      1.0000 0.95870  0.59680  0.70340  Biso   1.000  H
  H73      1.0000 0.84680  0.79130  0.04660  Biso   1.000  H
  H74      1.0000 0.95870  0.09680  0.29660  Biso   1.000  H
  H75      1.0000 0.15320  0.70870  0.04660  Biso   1.000  H
  H76      1.0000 0.04130  0.40320  0.29660  Biso   1.000  H
  H77      1.0000 0.34680  0.29130  0.54660  Biso   1.000  H
  H78      1.0000 0.45870  0.59680  0.79660  Biso   1.000  H
  H79      1.0000 0.65320  0.20870  0.54660  Biso   1.000  H
  H80      1.0000 0.54130  0.90320  0.79660  Biso   1.000  H
  N81      1.0000 0.19208  0.26876  0.05757  Biso   1.000  N
  N82      1.0000 0.48124  0.44208  0.30757  Biso   1.000  N
  N83      1.0000 0.80792  0.23124  0.05757  Biso   1.000  N
  N84      1.0000 0.51876  0.05792  0.30757  Biso   1.000  N
  N85      1.0000 0.69208  0.76876  0.55757  Biso   1.000  N
  N86      1.0000 0.98124  0.94208  0.80757  Biso   1.000  N
  N87      1.0000 0.30792  0.73124  0.55757  Biso   1.000  N
  N88      1.0000 0.01876  0.55792  0.80757  Biso   1.000  N
  N89      1.0000 0.80792  0.73124  0.94243  Biso   1.000  N
  N90      1.0000 0.01876  0.05792  0.19243  Biso   1.000  N
  N91      1.0000 0.19208  0.76876  0.94243  Biso   1.000  N
  N92      1.0000 0.98124  0.44208  0.19243  Biso   1.000  N
  N93      1.0000 0.30792  0.23124  0.44243  Biso   1.000  N
  N94      1.0000 0.51876  0.55792  0.69243  Biso   1.000  N
  N95      1.0000 0.69208  0.26876  0.44243  Biso   1.000  N
  N96      1.0000 0.48124  0.94208  0.69243  Biso   1.000  N
  H81      1.0000 0.19490  0.27660  0.10470  Biso   1.000  H
  H82      1.0000 0.47340  0.44490  0.35470  Biso   1.000  H
  H83      1.0000 0.80510  0.22340  0.10470  Biso   1.000  H
  H84      1.0000 0.52660  0.05510  0.35470  Biso   1.000  H
  H85      1.0000 0.69490  0.77660  0.60470  Biso   1.000  H
  H86      1.0000 0.97340  0.94490  0.85470  Biso   1.000  H
  H87      1.0000 0.30510  0.72340  0.60470  Biso   1.000  H
  H88      1.0000 0.02660  0.55510  0.85470  Biso   1.000  H
  H89      1.0000 0.80510  0.72340  0.89530  Biso   1.000  H
  H90      1.0000 0.02660  0.05510  0.14530  Biso   1.000  H
  H91      1.0000 0.19490  0.77660  0.89530  Biso   1.000  H
  H92      1.0000 0.97340  0.44490  0.14530  Biso   1.000  H
  H93      1.0000 0.30510  0.22340  0.39530  Biso   1.000  H
  H94      1.0000 0.52660  0.55510  0.64530  Biso   1.000  H
  H95      1.0000 0.69490  0.27660  0.39530  Biso   1.000  H
  H96      1.0000 0.47340  0.94490  0.64530  Biso   1.000  H
  N97      1.0000 0.20254  0.00781  0.23560  Biso   1.000  N
  N98      1.0000 0.74219  0.45254  0.48560  Biso   1.000  N
  N99      1.0000 0.79746  0.49219  0.23560  Biso   1.000  N
  N100     1.0000 0.25781  0.04746  0.48560  Biso   1.000  N
  N101     1.0000 0.70254  0.50781  0.73560  Biso   1.000  N
  N102     1.0000 0.24219  0.95254  0.98560  Biso   1.000  N
  N103     1.0000 0.29746  0.99219  0.73560  Biso   1.000  N
  N104     1.0000 0.75781  0.54746  0.98560  Biso   1.000  N
  N105     1.0000 0.79746  0.99219  0.76440  Biso   1.000  N
  N106     1.0000 0.75781  0.04746  0.01440  Biso   1.000  N
  N107     1.0000 0.20254  0.50781  0.76440  Biso   1.000  N
  N108     1.0000 0.24219  0.45254  0.01440  Biso   1.000  N
  N109     1.0000 0.29746  0.49219  0.26440  Biso   1.000  N
  N110     1.0000 0.25781  0.54746  0.51440  Biso   1.000  N
  N111     1.0000 0.70254  0.00781  0.26440  Biso   1.000  N
  N112     1.0000 0.74219  0.95254  0.51440  Biso   1.000  N
  N113     1.0000 0.19797  0.17810  0.25896  Biso   1.000  N
  N114     1.0000 0.57190  0.44797  0.50896  Biso   1.000  N
  N115     1.0000 0.80203  0.32190  0.25896  Biso   1.000  N
  N116     1.0000 0.42810  0.05203  0.50896  Biso   1.000  N
  N117     1.0000 0.69797  0.67810  0.75896  Biso   1.000  N
  N118     1.0000 0.07190  0.94797  0.00896  Biso   1.000  N
  N119     1.0000 0.30203  0.82190  0.75896  Biso   1.000  N
  N120     1.0000 0.92810  0.55203  0.00896  Biso   1.000  N
  N121     1.0000 0.80203  0.82190  0.74104  Biso   1.000  N
  N122     1.0000 0.92810  0.05203  0.99104  Biso   1.000  N
  N123     1.0000 0.19797  0.67810  0.74104  Biso   1.000  N
  N124     1.0000 0.07190  0.44797  0.99104  Biso   1.000  N
  N125     1.0000 0.30203  0.32190  0.24104  Biso   1.000  N
  N126     1.0000 0.42810  0.55203  0.49104  Biso   1.000  N
  N127     1.0000 0.69797  0.17810  0.24104  Biso   1.000  N
  N128     1.0000 0.57190  0.94797  0.49104  Biso   1.000  N
  H97      1.0000 0.20980  0.19710  0.26730  Biso   1.000  H
  H98      1.0000 0.55290  0.45980  0.51730  Biso   1.000  H
  H99      1.0000 0.79020  0.30290  0.26730  Biso   1.000  H
  H100     1.0000 0.44710  0.04020  0.51730  Biso   1.000  H
  H101     1.0000 0.70980  0.69710  0.76730  Biso   1.000  H
  H102     1.0000 0.05290  0.95980  0.01730  Biso   1.000  H
  H103     1.0000 0.29020  0.80290  0.76730  Biso   1.000  H
  H104     1.0000 0.94710  0.54020  0.01730  Biso   1.000  H
  H105     1.0000 0.79020  0.80290  0.73270  Biso   1.000  H
  H106     1.0000 0.94710  0.04020  0.98270  Biso   1.000  H
  H107     1.0000 0.20980  0.69710  0.73270  Biso   1.000  H
  H108     1.0000 0.05290  0.45980  0.98270  Biso   1.000  H
  H109     1.0000 0.29020  0.30290  0.23270  Biso   1.000  H
  H110     1.0000 0.44710  0.54020  0.48270  Biso   1.000  H
  H111     1.0000 0.70980  0.19710  0.23270  Biso   1.000  H
  H112     1.0000 0.55290  0.95980  0.48270  Biso   1.000  H
  N129     1.0000 0.21661  0.20891  0.99326  Biso   1.000  N
  N130     1.0000 0.54109  0.46661  0.24326  Biso   1.000  N
  N131     1.0000 0.78339  0.29109  0.99326  Biso   1.000  N
  N132     1.0000 0.45891  0.03339  0.24326  Biso   1.000  N
  N133     1.0000 0.71661  0.70891  0.49326  Biso   1.000  N
  N134     1.0000 0.04109  0.96661  0.74326  Biso   1.000  N
  N135     1.0000 0.28339  0.79109  0.49326  Biso   1.000  N
  N136     1.0000 0.95891  0.53339  0.74326  Biso   1.000  N
  N137     1.0000 0.78339  0.79109  0.00674  Biso   1.000  N
  N138     1.0000 0.95891  0.03339  0.25674  Biso   1.000  N
  N139     1.0000 0.21661  0.70891  0.00674  Biso   1.000  N
  N140     1.0000 0.04109  0.46661  0.25674  Biso   1.000  N
  N141     1.0000 0.28339  0.29109  0.50674  Biso   1.000  N
  N142     1.0000 0.45891  0.53339  0.75674  Biso   1.000  N
  N143     1.0000 0.71661  0.20891  0.50674  Biso   1.000  N
  N144     1.0000 0.54109  0.96661  0.75674  Biso   1.000  N
  N145     1.0000 0.18676  0.14263  0.11986  Biso   1.000  N
  N146     1.0000 0.60737  0.43676  0.36986  Biso   1.000  N
  N147     1.0000 0.81324  0.35737  0.11986  Biso   1.000  N
  N148     1.0000 0.39263  0.06324  0.36986  Biso   1.000  N
  N149     1.0000 0.68676  0.64263  0.61986  Biso   1.000  N
  N150     1.0000 0.10737  0.93676  0.86986  Biso   1.000  N
  N151     1.0000 0.31324  0.85737  0.61986  Biso   1.000  N
  N152     1.0000 0.89263  0.56324  0.86986  Biso   1.000  N
  N153     1.0000 0.81324  0.85737  0.88014  Biso   1.000  N
  N154     1.0000 0.89263  0.06324  0.13014  Biso   1.000  N
  N155     1.0000 0.18676  0.64263  0.88014  Biso   1.000  N
  N156     1.0000 0.10737  0.43676  0.13014  Biso   1.000  N
  N157     1.0000 0.31324  0.35737  0.38014  Biso   1.000  N
  N158     1.0000 0.39263  0.56324  0.63014  Biso   1.000  N
  N159     1.0000 0.68676  0.14263  0.38014  Biso   1.000  N
  N160     1.0000 0.60737  0.93676  0.63014  Biso   1.000  N
  C33      1.0000 0.29772  0.24771  0.01610  Biso   1.000  C
  C34      1.0000 0.50229  0.54772  0.26610  Biso   1.000  C
  C35      1.0000 0.70228  0.25229  0.01610  Biso   1.000  C
  C36      1.0000 0.49771  0.95228  0.26610  Biso   1.000  C
  C37      1.0000 0.79772  0.74771  0.51610  Biso   1.000  C
  C38      1.0000 0.00229  0.04772  0.76610  Biso   1.000  C
  C39      1.0000 0.20228  0.75229  0.51610  Biso   1.000  C
  C40      1.0000 0.99771  0.45228  0.76610  Biso   1.000  C
  C41      1.0000 0.70228  0.75229  0.98390  Biso   1.000  C
  C42      1.0000 0.99771  0.95228  0.23390  Biso   1.000  C
  C43      1.0000 0.29772  0.74771  0.98390  Biso   1.000  C
  C44      1.0000 0.00229  0.54772  0.23390  Biso   1.000  C
  C45      1.0000 0.20228  0.25229  0.48390  Biso   1.000  C
  C46      1.0000 0.49771  0.45228  0.73390  Biso   1.000  C
  C47      1.0000 0.79772  0.24771  0.48390  Biso   1.000  C
  C48      1.0000 0.50229  0.04772  0.73390  Biso   1.000  C
  C49      1.0000 0.19874  0.15362  0.31980  Biso   1.000  C
  C50      1.0000 0.59638  0.44874  0.56980  Biso   1.000  C
  C51      1.0000 0.80126  0.34638  0.31980  Biso   1.000  C
  C52      1.0000 0.40362  0.05126  0.56980  Biso   1.000  C
  C53      1.0000 0.69874  0.65362  0.81980  Biso   1.000  C
  C54      1.0000 0.09638  0.94874  0.06980  Biso   1.000  C
  C55      1.0000 0.30126  0.84638  0.81980  Biso   1.000  C
  C56      1.0000 0.90362  0.55126  0.06980  Biso   1.000  C
  C57      1.0000 0.80126  0.84638  0.68020  Biso   1.000  C
  C58      1.0000 0.90362  0.05126  0.93020  Biso   1.000  C
  C59      1.0000 0.19874  0.65362  0.68020  Biso   1.000  C
  C60      1.0000 0.09638  0.44874  0.93020  Biso   1.000  C
  C61      1.0000 0.30126  0.34638  0.18020  Biso   1.000  C
  C62      1.0000 0.40362  0.55126  0.43020  Biso   1.000  C
  C63      1.0000 0.69874  0.15362  0.18020  Biso   1.000  C
  C64      1.0000 0.59638  0.94874  0.43020  Biso   1.000  C
  N161     1.0000 0.28643  0.05982  0.85275  Biso   1.000  N
  N162     1.0000 0.69018  0.53643  0.10275  Biso   1.000  N
  N163     1.0000 0.71357  0.44018  0.85275  Biso   1.000  N
  N164     1.0000 0.30982  0.96357  0.10275  Biso   1.000  N
  N165     1.0000 0.78643  0.55982  0.35275  Biso   1.000  N
  N166     1.0000 0.19018  0.03643  0.60275  Biso   1.000  N
  N167     1.0000 0.21357  0.94018  0.35275  Biso   1.000  N
  N168     1.0000 0.80982  0.46357  0.60275  Biso   1.000  N
  N169     1.0000 0.71357  0.94018  0.14725  Biso   1.000  N
  N170     1.0000 0.80982  0.96357  0.39725  Biso   1.000  N
  N171     1.0000 0.28643  0.55982  0.14725  Biso   1.000  N
  N172     1.0000 0.19018  0.53643  0.39725  Biso   1.000  N
  N173     1.0000 0.21357  0.44018  0.64725  Biso   1.000  N
  N174     1.0000 0.30982  0.46357  0.89725  Biso   1.000  N
  N175     1.0000 0.78643  0.05982  0.64725  Biso   1.000  N
  N176     1.0000 0.69018  0.03643  0.89725  Biso   1.000  N
  C65      1.0000 0.19694  0.05922  0.15350  Biso   1.000  C
  C66      1.0000 0.69078  0.44694  0.40350  Biso   1.000  C
  C67      1.0000 0.80306  0.44078  0.15350  Biso   1.000  C
  C68      1.0000 0.30922  0.05306  0.40350  Biso   1.000  C
  C69      1.0000 0.69694  0.55922  0.65350  Biso   1.000  C
  C70      1.0000 0.19078  0.94694  0.90350  Biso   1.000  C
  C71      1.0000 0.30306  0.94078  0.65350  Biso   1.000  C
  C72      1.0000 0.80922  0.55306  0.90350  Biso   1.000  C
  C73      1.0000 0.80306  0.94078  0.84650  Biso   1.000  C
  C74      1.0000 0.80922  0.05306  0.09650  Biso   1.000  C
  C75      1.0000 0.19694  0.55922  0.84650  Biso   1.000  C
  C76      1.0000 0.19078  0.44694  0.09650  Biso   1.000  C
  C77      1.0000 0.30306  0.44078  0.34650  Biso   1.000  C
  C78      1.0000 0.30922  0.55306  0.59650  Biso   1.000  C
  C79      1.0000 0.69694  0.05922  0.34650  Biso   1.000  C
  C80      1.0000 0.69078  0.94694  0.59650  Biso   1.000  C
  H113     1.0000 0.18350  0.07170  0.11710  Biso   1.000  H
  H114     1.0000 0.67830  0.43350  0.36710  Biso   1.000  H
  H115     1.0000 0.81650  0.42830  0.11710  Biso   1.000  H
  H116     1.0000 0.32170  0.06650  0.36710  Biso   1.000  H
  H117     1.0000 0.68350  0.57170  0.61710  Biso   1.000  H
  H118     1.0000 0.17830  0.93350  0.86710  Biso   1.000  H
  H119     1.0000 0.31650  0.92830  0.61710  Biso   1.000  H
  H120     1.0000 0.82170  0.56650  0.86710  Biso   1.000  H
  H121     1.0000 0.81650  0.92830  0.88290  Biso   1.000  H
  H122     1.0000 0.82170  0.06650  0.13290  Biso   1.000  H
  H123     1.0000 0.18350  0.57170  0.88290  Biso   1.000  H
  H124     1.0000 0.17830  0.43350  0.13290  Biso   1.000  H
  H125     1.0000 0.31650  0.42830  0.38290  Biso   1.000  H
  H126     1.0000 0.32170  0.56650  0.63290  Biso   1.000  H
  H127     1.0000 0.68350  0.07170  0.38290  Biso   1.000  H
  H128     1.0000 0.67830  0.93350  0.63290  Biso   1.000  H
  C81      1.0000 0.10995  0.25002  0.08520  Biso   1.000  C
  C82      1.0000 0.49998  0.35995  0.33520  Biso   1.000  C
  C83      1.0000 0.89005  0.24998  0.08520  Biso   1.000  C
  C84      1.0000 0.50002  0.14005  0.33520  Biso   1.000  C
  C85      1.0000 0.60995  0.75002  0.58520  Biso   1.000  C
  C86      1.0000 0.99998  0.85995  0.83520  Biso   1.000  C
  C87      1.0000 0.39005  0.74998  0.58520  Biso   1.000  C
  C88      1.0000 0.00002  0.64005  0.83520  Biso   1.000  C
  C89      1.0000 0.89005  0.74998  0.91480  Biso   1.000  C
  C90      1.0000 0.00002  0.14005  0.16480  Biso   1.000  C
  C91      1.0000 0.10995  0.75002  0.91480  Biso   1.000  C
  C92      1.0000 0.99998  0.35995  0.16480  Biso   1.000  C
  C93      1.0000 0.39005  0.24998  0.41480  Biso   1.000  C
  C94      1.0000 0.50002  0.64005  0.66480  Biso   1.000  C
  C95      1.0000 0.60995  0.25002  0.41480  Biso   1.000  C
  C96      1.0000 0.49998  0.85995  0.66480  Biso   1.000  C
  H129     1.0000 0.12840  0.25930  0.11470  Biso   1.000  H
  H130     1.0000 0.49070  0.37840  0.36470  Biso   1.000  H
  H131     1.0000 0.87160  0.24070  0.11470  Biso   1.000  H
  H132     1.0000 0.50930  0.12160  0.36470  Biso   1.000  H
  H133     1.0000 0.62840  0.75930  0.61470  Biso   1.000  H
  H134     1.0000 0.99070  0.87840  0.86470  Biso   1.000  H
  H135     1.0000 0.37160  0.74070  0.61470  Biso   1.000  H
  H136     1.0000 0.00930  0.62160  0.86470  Biso   1.000  H
  H137     1.0000 0.87160  0.74070  0.88530  Biso   1.000  H
  H138     1.0000 0.00930  0.12160  0.13530  Biso   1.000  H
  H139     1.0000 0.12840  0.75930  0.88530  Biso   1.000  H
  H140     1.0000 0.99070  0.37840  0.13530  Biso   1.000  H
  H141     1.0000 0.37160  0.24070  0.38530  Biso   1.000  H
  H142     1.0000 0.50930  0.62160  0.63530  Biso   1.000  H
  H143     1.0000 0.62840  0.25930  0.38530  Biso   1.000  H
  H144     1.0000 0.49070  0.87840  0.63530  Biso   1.000  H
  C97      1.0000 0.23960  0.09242  0.95846  Biso   1.000  C
  C98      1.0000 0.65758  0.48960  0.20846  Biso   1.000  C
  C99      1.0000 0.76040  0.40758  0.95846  Biso   1.000  C
  C100     1.0000 0.34242  0.01040  0.20846  Biso   1.000  C
  C101     1.0000 0.73960  0.59242  0.45846  Biso   1.000  C
  C102     1.0000 0.15758  0.98960  0.70846  Biso   1.000  C
  C103     1.0000 0.26040  0.90758  0.45846  Biso   1.000  C
  C104     1.0000 0.84242  0.51040  0.70846  Biso   1.000  C
  C105     1.0000 0.76040  0.90758  0.04154  Biso   1.000  C
  C106     1.0000 0.84242  0.01040  0.29154  Biso   1.000  C
  C107     1.0000 0.23960  0.59242  0.04154  Biso   1.000  C
  C108     1.0000 0.15758  0.48960  0.29154  Biso   1.000  C
  C109     1.0000 0.26040  0.40758  0.54154  Biso   1.000  C
  C110     1.0000 0.34242  0.51040  0.79154  Biso   1.000  C
  C111     1.0000 0.73960  0.09242  0.54154  Biso   1.000  C
  C112     1.0000 0.65758  0.98960  0.79154  Biso   1.000  C
  N177     1.0000 0.25427  0.16034  0.07890  Biso   1.000  N
  N178     1.0000 0.58966  0.50427  0.32890  Biso   1.000  N
  N179     1.0000 0.74573  0.33966  0.07890  Biso   1.000  N
  N180     1.0000 0.41034  0.99573  0.32890  Biso   1.000  N
  N181     1.0000 0.75427  0.66034  0.57890  Biso   1.000  N
  N182     1.0000 0.08966  0.00427  0.82890  Biso   1.000  N
  N183     1.0000 0.24573  0.83966  0.57890  Biso   1.000  N
  N184     1.0000 0.91034  0.49573  0.82890  Biso   1.000  N
  N185     1.0000 0.74573  0.83966  0.92110  Biso   1.000  N
  N186     1.0000 0.91034  0.99573  0.17110  Biso   1.000  N
  N187     1.0000 0.25427  0.66034  0.92110  Biso   1.000  N
  N188     1.0000 0.08966  0.50427  0.17110  Biso   1.000  N
  N189     1.0000 0.24573  0.33966  0.42110  Biso   1.000  N
  N190     1.0000 0.41034  0.49573  0.67110  Biso   1.000  N
  N191     1.0000 0.75427  0.16034  0.42110  Biso   1.000  N
  N192     1.0000 0.58966  0.00427  0.67110  Biso   1.000  N
  N193     1.0000 0.18498  0.21409  0.13874  Biso   1.000  N
  N194     1.0000 0.53591  0.43498  0.38874  Biso   1.000  N
  N195     1.0000 0.81502  0.28591  0.13874  Biso   1.000  N
  N196     1.0000 0.46409  0.06502  0.38874  Biso   1.000  N
  N197     1.0000 0.68498  0.71409  0.63874  Biso   1.000  N
  N198     1.0000 0.03591  0.93498  0.88874  Biso   1.000  N
  N199     1.0000 0.31502  0.78591  0.63874  Biso   1.000  N
  N200     1.0000 0.96409  0.56502  0.88874  Biso   1.000  N
  N201     1.0000 0.81502  0.78591  0.86126  Biso   1.000  N
  N202     1.0000 0.96409  0.06502  0.11126  Biso   1.000  N
  N203     1.0000 0.18498  0.71409  0.86126  Biso   1.000  N
  N204     1.0000 0.03591  0.43498  0.11126  Biso   1.000  N
  N205     1.0000 0.31502  0.28591  0.36126  Biso   1.000  N
  N206     1.0000 0.46409  0.56502  0.61126  Biso   1.000  N
  N207     1.0000 0.68498  0.21409  0.36126  Biso   1.000  N
  N208     1.0000 0.53591  0.93498  0.61126  Biso   1.000  N
  N209     1.0000 0.04755  0.24573  0.06650  Biso   1.000  N
  N210     1.0000 0.50427  0.29755  0.31650  Biso   1.000  N
  N211     1.0000 0.95245  0.25427  0.06650  Biso   1.000  N
  N212     1.0000 0.49573  0.20245  0.31650  Biso   1.000  N
  N213     1.0000 0.54755  0.74573  0.56650  Biso   1.000  N
  N214     1.0000 0.00427  0.79755  0.81650  Biso   1.000  N
  N215     1.0000 0.45245  0.75427  0.56650  Biso   1.000  N
  N216     1.0000 0.99573  0.70245  0.81650  Biso   1.000  N
  N217     1.0000 0.95245  0.75427  0.93350  Biso   1.000  N
  N218     1.0000 0.99573  0.20245  0.18350  Biso   1.000  N
  N219     1.0000 0.04755  0.74573  0.93350  Biso   1.000  N
  N220     1.0000 0.00427  0.29755  0.18350  Biso   1.000  N
  N221     1.0000 0.45245  0.25427  0.43350  Biso   1.000  N
  N222     1.0000 0.49573  0.70245  0.68350  Biso   1.000  N
  N223     1.0000 0.54755  0.24573  0.43350  Biso   1.000  N
  N224     1.0000 0.50427  0.79755  0.68350  Biso   1.000  N
  C113     1.0000 0.11688  0.22858  0.02090  Biso   1.000  C
  C114     1.0000 0.52142  0.36688  0.27090  Biso   1.000  C
  C115     1.0000 0.88312  0.27142  0.02090  Biso   1.000  C
  C116     1.0000 0.47858  0.13312  0.27090  Biso   1.000  C
  C117     1.0000 0.61688  0.72858  0.52090  Biso   1.000  C
  C118     1.0000 0.02142  0.86688  0.77090  Biso   1.000  C
  C119     1.0000 0.38312  0.77142  0.52090  Biso   1.000  C
  C120     1.0000 0.97858  0.63312  0.77090  Biso   1.000  C
  C121     1.0000 0.88312  0.77142  0.97910  Biso   1.000  C
  C122     1.0000 0.97858  0.13312  0.22910  Biso   1.000  C
  C123     1.0000 0.11688  0.72858  0.97910  Biso   1.000  C
  C124     1.0000 0.02142  0.36688  0.22910  Biso   1.000  C
  C125     1.0000 0.38312  0.27142  0.47910  Biso   1.000  C
  C126     1.0000 0.47858  0.63312  0.72910  Biso   1.000  C
  C127     1.0000 0.61688  0.22858  0.47910  Biso   1.000  C
  C128     1.0000 0.52142  0.86688  0.72910  Biso   1.000  C
  N225     1.0000 0.13564  0.16807  0.19249  Biso   1.000  N
  N226     1.0000 0.58193  0.38564  0.44249  Biso   1.000  N
  N227     1.0000 0.86436  0.33193  0.19249  Biso   1.000  N
  N228     1.0000 0.41807  0.11436  0.44249  Biso   1.000  N
  N229     1.0000 0.63564  0.66807  0.69249  Biso   1.000  N
  N230     1.0000 0.08193  0.88564  0.94249  Biso   1.000  N
  N231     1.0000 0.36436  0.83193  0.69249  Biso   1.000  N
  N232     1.0000 0.91807  0.61436  0.94249  Biso   1.000  N
  N233     1.0000 0.86436  0.83193  0.80751  Biso   1.000  N
  N234     1.0000 0.91807  0.11436  0.05751  Biso   1.000  N
  N235     1.0000 0.13564  0.66807  0.80751  Biso   1.000  N
  N236     1.0000 0.08193  0.38564  0.05751  Biso   1.000  N
  N237     1.0000 0.36436  0.33193  0.30751  Biso   1.000  N
  N238     1.0000 0.41807  0.61436  0.55751  Biso   1.000  N
  N239     1.0000 0.63564  0.16807  0.30751  Biso   1.000  N
  N240     1.0000 0.58193  0.88564  0.55751  Biso   1.000  N
  H145     1.0000 0.12620  0.15110  0.16640  Biso   1.000  H
  H146     1.0000 0.59890  0.37620  0.41640  Biso   1.000  H
  H147     1.0000 0.87380  0.34890  0.16640  Biso   1.000  H
  H148     1.0000 0.40110  0.12380  0.41640  Biso   1.000  H
  H149     1.0000 0.62620  0.65110  0.66640  Biso   1.000  H
  H150     1.0000 0.09890  0.87620  0.91640  Biso   1.000  H
  H151     1.0000 0.37380  0.84890  0.66640  Biso   1.000  H
  H152     1.0000 0.90110  0.62380  0.91640  Biso   1.000  H
  H153     1.0000 0.87380  0.84890  0.83360  Biso   1.000  H
  H154     1.0000 0.90110  0.12380  0.08360  Biso   1.000  H
  H155     1.0000 0.12620  0.65110  0.83360  Biso   1.000  H
  H156     1.0000 0.09890  0.37620  0.08360  Biso   1.000  H
  H157     1.0000 0.37380  0.34890  0.33360  Biso   1.000  H
  H158     1.0000 0.40110  0.62380  0.58360  Biso   1.000  H
  H159     1.0000 0.62620  0.15110  0.33360  Biso   1.000  H
  H160     1.0000 0.59890  0.87620  0.58360  Biso   1.000  H
  C129     1.0000 0.21903  0.16034  0.38660  Biso   1.000  C
  C130     1.0000 0.58966  0.46903  0.63660  Biso   1.000  C
  C131     1.0000 0.78097  0.33966  0.38660  Biso   1.000  C
  C132     1.0000 0.41034  0.03097  0.63660  Biso   1.000  C
  C133     1.0000 0.71903  0.66034  0.88660  Biso   1.000  C
  C134     1.0000 0.08966  0.96903  0.13660  Biso   1.000  C
  C135     1.0000 0.28097  0.83966  0.88660  Biso   1.000  C
  C136     1.0000 0.91034  0.53097  0.13660  Biso   1.000  C
  C137     1.0000 0.78097  0.83966  0.61340  Biso   1.000  C
  C138     1.0000 0.91034  0.03097  0.86340  Biso   1.000  C
  C139     1.0000 0.21903  0.66034  0.61340  Biso   1.000  C
  C140     1.0000 0.08966  0.46903  0.86340  Biso   1.000  C
  C141     1.0000 0.28097  0.33966  0.11340  Biso   1.000  C
  C142     1.0000 0.41034  0.53097  0.36340  Biso   1.000  C
  C143     1.0000 0.71903  0.16034  0.11340  Biso   1.000  C
  C144     1.0000 0.58966  0.96903  0.36340  Biso   1.000  C
  H161     1.0000 0.23240  0.18080  0.39000  Biso   1.000  H
  H162     1.0000 0.56920  0.48240  0.64000  Biso   1.000  H
  H163     1.0000 0.76760  0.31920  0.39000  Biso   1.000  H
  H164     1.0000 0.43080  0.01760  0.64000  Biso   1.000  H
  H165     1.0000 0.73240  0.68080  0.89000  Biso   1.000  H
  H166     1.0000 0.06920  0.98240  0.14000  Biso   1.000  H
  H167     1.0000 0.26760  0.81920  0.89000  Biso   1.000  H
  H168     1.0000 0.93080  0.51760  0.14000  Biso   1.000  H
  H169     1.0000 0.76760  0.81920  0.61000  Biso   1.000  H
  H170     1.0000 0.93080  0.01760  0.86000  Biso   1.000  H
  H171     1.0000 0.23240  0.68080  0.61000  Biso   1.000  H
  H172     1.0000 0.06920  0.48240  0.86000  Biso   1.000  H
  H173     1.0000 0.26760  0.31920  0.11000  Biso   1.000  H
  H174     1.0000 0.43080  0.51760  0.36000  Biso   1.000  H
  H175     1.0000 0.73240  0.18080  0.11000  Biso   1.000  H
  H176     1.0000 0.56920  0.98240  0.36000  Biso   1.000  H
  N241     1.0000 0.20105  0.10607  0.44720  Biso   1.000  N
  N242     1.0000 0.64393  0.45105  0.69720  Biso   1.000  N
  N243     1.0000 0.79895  0.39393  0.44720  Biso   1.000  N
  N244     1.0000 0.35607  0.04895  0.69720  Biso   1.000  N
  N245     1.0000 0.70105  0.60607  0.94720  Biso   1.000  N
  N246     1.0000 0.14393  0.95105  0.19720  Biso   1.000  N
  N247     1.0000 0.29895  0.89393  0.94720  Biso   1.000  N
  N248     1.0000 0.85607  0.54895  0.19720  Biso   1.000  N
  N249     1.0000 0.79895  0.89393  0.55280  Biso   1.000  N
  N250     1.0000 0.85607  0.04895  0.80280  Biso   1.000  N
  N251     1.0000 0.20105  0.60607  0.55280  Biso   1.000  N
  N252     1.0000 0.14393  0.45105  0.80280  Biso   1.000  N
  N253     1.0000 0.29895  0.39393  0.05280  Biso   1.000  N
  N254     1.0000 0.35607  0.54895  0.30280  Biso   1.000  N
  N255     1.0000 0.70105  0.10607  0.05280  Biso   1.000  N
  N256     1.0000 0.64393  0.95105  0.30280  Biso   1.000  N
  C145     1.0000 0.30509  0.15100  0.83290  Biso   1.000  C
  C146     1.0000 0.59900  0.55509  0.08290  Biso   1.000  C
  C147     1.0000 0.69491  0.34900  0.83290  Biso   1.000  C
  C148     1.0000 0.40100  0.94491  0.08290  Biso   1.000  C
  C149     1.0000 0.80509  0.65100  0.33290  Biso   1.000  C
  C150     1.0000 0.09900  0.05509  0.58290  Biso   1.000  C
  C151     1.0000 0.19491  0.84900  0.33290  Biso   1.000  C
  C152     1.0000 0.90100  0.44491  0.58290  Biso   1.000  C
  C153     1.0000 0.69491  0.84900  0.16710  Biso   1.000  C
  C154     1.0000 0.90100  0.94491  0.41710  Biso   1.000  C
  C155     1.0000 0.30509  0.65100  0.16710  Biso   1.000  C
  C156     1.0000 0.09900  0.55509  0.41710  Biso   1.000  C
  C157     1.0000 0.19491  0.34900  0.66710  Biso   1.000  C
  C158     1.0000 0.40100  0.44491  0.91710  Biso   1.000  C
  C159     1.0000 0.80509  0.15100  0.66710  Biso   1.000  C
  C160     1.0000 0.59900  0.05509  0.91710  Biso   1.000  C
  H177     1.0000 0.28840  0.15500  0.79390  Biso   1.000  H
  H178     1.0000 0.59500  0.53840  0.04390  Biso   1.000  H
  H179     1.0000 0.71160  0.34500  0.79390  Biso   1.000  H
  H180     1.0000 0.40500  0.96160  0.04390  Biso   1.000  H
  H181     1.0000 0.78840  0.65500  0.29390  Biso   1.000  H
  H182     1.0000 0.09500  0.03840  0.54390  Biso   1.000  H
  H183     1.0000 0.21160  0.84500  0.29390  Biso   1.000  H
  H184     1.0000 0.90500  0.46160  0.54390  Biso   1.000  H
  H185     1.0000 0.71160  0.84500  0.20610  Biso   1.000  H
  H186     1.0000 0.90500  0.96160  0.45610  Biso   1.000  H
  H187     1.0000 0.28840  0.65500  0.20610  Biso   1.000  H
  H188     1.0000 0.09500  0.53840  0.45610  Biso   1.000  H
  H189     1.0000 0.21160  0.34500  0.70610  Biso   1.000  H
  H190     1.0000 0.40500  0.46160  0.95610  Biso   1.000  H
  H191     1.0000 0.78840  0.15500  0.70610  Biso   1.000  H
  H192     1.0000 0.59500  0.03840  0.95610  Biso   1.000  H
  C161     1.0000 0.27338  0.08273  0.98130  Biso   1.000  C
  C162     1.0000 0.66727  0.52338  0.23130  Biso   1.000  C
  C163     1.0000 0.72662  0.41727  0.98130  Biso   1.000  C
  C164     1.0000 0.33273  0.97662  0.23130  Biso   1.000  C
  C165     1.0000 0.77338  0.58273  0.48130  Biso   1.000  C
  C166     1.0000 0.16727  0.02338  0.73130  Biso   1.000  C
  C167     1.0000 0.22662  0.91727  0.48130  Biso   1.000  C
  C168     1.0000 0.83273  0.47662  0.73130  Biso   1.000  C
  C169     1.0000 0.72662  0.91727  0.01870  Biso   1.000  C
  C170     1.0000 0.83273  0.97662  0.26870  Biso   1.000  C
  C171     1.0000 0.27338  0.58273  0.01870  Biso   1.000  C
  C172     1.0000 0.16727  0.52338  0.26870  Biso   1.000  C
  C173     1.0000 0.22662  0.41727  0.51870  Biso   1.000  C
  C174     1.0000 0.33273  0.47662  0.76870  Biso   1.000  C
  C175     1.0000 0.77338  0.08273  0.51870  Biso   1.000  C
  C176     1.0000 0.66727  0.02338  0.76870  Biso   1.000  C
  H193     1.0000 0.28110  0.08700  0.03240  Biso   1.000  H
  H194     1.0000 0.66300  0.53110  0.28240  Biso   1.000  H
  H195     1.0000 0.71890  0.41300  0.03240  Biso   1.000  H
  H196     1.0000 0.33700  0.96890  0.28240  Biso   1.000  H
  H197     1.0000 0.78110  0.58700  0.53240  Biso   1.000  H
  H198     1.0000 0.16300  0.03110  0.78240  Biso   1.000  H
  H199     1.0000 0.21890  0.91300  0.53240  Biso   1.000  H
  H200     1.0000 0.83700  0.46890  0.78240  Biso   1.000  H
  H201     1.0000 0.71890  0.91300  0.96760  Biso   1.000  H
  H202     1.0000 0.83700  0.96890  0.21760  Biso   1.000  H
  H203     1.0000 0.28110  0.58700  0.96760  Biso   1.000  H
  H204     1.0000 0.16300  0.53110  0.21760  Biso   1.000  H
  H205     1.0000 0.21890  0.41300  0.46760  Biso   1.000  H
  H206     1.0000 0.33700  0.46890  0.71760  Biso   1.000  H
  H207     1.0000 0.78110  0.08700  0.46760  Biso   1.000  H
  H208     1.0000 0.66300  0.03110  0.71760  Biso   1.000  H
  N257     1.0000 0.36119  0.12741  0.86860  Biso   1.000  N
  N258     1.0000 0.62259  0.61119  0.11860  Biso   1.000  N
  N259     1.0000 0.63881  0.37259  0.86860  Biso   1.000  N
  N260     1.0000 0.37741  0.88881  0.11860  Biso   1.000  N
  N261     1.0000 0.86119  0.62741  0.36860  Biso   1.000  N
  N262     1.0000 0.12259  0.11119  0.61860  Biso   1.000  N
  N263     1.0000 0.13881  0.87259  0.36860  Biso   1.000  N
  N264     1.0000 0.87741  0.38881  0.61860  Biso   1.000  N
  N265     1.0000 0.63881  0.87259  0.13140  Biso   1.000  N
  N266     1.0000 0.87741  0.88881  0.38140  Biso   1.000  N
  N267     1.0000 0.36119  0.62741  0.13140  Biso   1.000  N
  N268     1.0000 0.12259  0.61119  0.38140  Biso   1.000  N
  N269     1.0000 0.13881  0.37259  0.63140  Biso   1.000  N
  N270     1.0000 0.37741  0.38881  0.88140  Biso   1.000  N
  N271     1.0000 0.86119  0.12741  0.63140  Biso   1.000  N
  N272     1.0000 0.62259  0.11119  0.88140  Biso   1.000  N
  C177     1.0000 0.25345  0.06891  0.83170  Biso   1.000  C
  C178     1.0000 0.68109  0.50345  0.08170  Biso   1.000  C
  C179     1.0000 0.74655  0.43109  0.83170  Biso   1.000  C
  C180     1.0000 0.31891  0.99655  0.08170  Biso   1.000  C
  C181     1.0000 0.75345  0.56891  0.33170  Biso   1.000  C
  C182     1.0000 0.18109  0.00345  0.58170  Biso   1.000  C
  C183     1.0000 0.24655  0.93109  0.33170  Biso   1.000  C
  C184     1.0000 0.81891  0.49655  0.58170  Biso   1.000  C
  C185     1.0000 0.74655  0.93109  0.16830  Biso   1.000  C
  C186     1.0000 0.81891  0.99655  0.41830  Biso   1.000  C
  C187     1.0000 0.25345  0.56891  0.16830  Biso   1.000  C
  C188     1.0000 0.18109  0.50345  0.41830  Biso   1.000  C
  C189     1.0000 0.24655  0.43109  0.66830  Biso   1.000  C
  C190     1.0000 0.31891  0.49655  0.91830  Biso   1.000  C
  C191     1.0000 0.75345  0.06891  0.66830  Biso   1.000  C
  C192     1.0000 0.68109  0.00345  0.91830  Biso   1.000  C
  H209     1.0000 0.24620  0.06410  0.78050  Biso   1.000  H
  H210     1.0000 0.68590  0.49620  0.03050  Biso   1.000  H
  H211     1.0000 0.75380  0.43590  0.78050  Biso   1.000  H
  H212     1.0000 0.31410  0.00380  0.03050  Biso   1.000  H
  H213     1.0000 0.74620  0.56410  0.28050  Biso   1.000  H
  H214     1.0000 0.18590  0.99620  0.53050  Biso   1.000  H
  H215     1.0000 0.25380  0.93590  0.28050  Biso   1.000  H
  H216     1.0000 0.81410  0.50380  0.53050  Biso   1.000  H
  H217     1.0000 0.75380  0.93590  0.21950  Biso   1.000  H
  H218     1.0000 0.81410  0.00380  0.46950  Biso   1.000  H
  H219     1.0000 0.24620  0.56410  0.21950  Biso   1.000  H
  H220     1.0000 0.18590  0.49620  0.46950  Biso   1.000  H
  H221     1.0000 0.25380  0.43590  0.71950  Biso   1.000  H
  H222     1.0000 0.31410  0.50380  0.96950  Biso   1.000  H
  H223     1.0000 0.74620  0.06410  0.71950  Biso   1.000  H
  H224     1.0000 0.68590  0.99620  0.96950  Biso   1.000  H
  C193     1.0000 0.18499  0.02738  0.18330  Biso   1.000  C
  C194     1.0000 0.72262  0.43499  0.43330  Biso   1.000  C
  C195     1.0000 0.81501  0.47262  0.18330  Biso   1.000  C
  C196     1.0000 0.27738  0.06501  0.43330  Biso   1.000  C
  C197     1.0000 0.68499  0.52738  0.68330  Biso   1.000  C
  C198     1.0000 0.22262  0.93499  0.93330  Biso   1.000  C
  C199     1.0000 0.31501  0.97262  0.68330  Biso   1.000  C
  C200     1.0000 0.77738  0.56501  0.93330  Biso   1.000  C
  C201     1.0000 0.81501  0.97262  0.81670  Biso   1.000  C
  C202     1.0000 0.77738  0.06501  0.06670  Biso   1.000  C
  C203     1.0000 0.18499  0.52738  0.81670  Biso   1.000  C
  C204     1.0000 0.22262  0.43499  0.06670  Biso   1.000  C
  C205     1.0000 0.31501  0.47262  0.31670  Biso   1.000  C
  C206     1.0000 0.27738  0.56501  0.56670  Biso   1.000  C
  C207     1.0000 0.68499  0.02738  0.31670  Biso   1.000  C
  C208     1.0000 0.72262  0.93499  0.56670  Biso   1.000  C
  H225     1.0000 0.16330  0.01910  0.16570  Biso   1.000  H
  H226     1.0000 0.73090  0.41330  0.41570  Biso   1.000  H
  H227     1.0000 0.83670  0.48090  0.16570  Biso   1.000  H
  H228     1.0000 0.26910  0.08670  0.41570  Biso   1.000  H
  H229     1.0000 0.66330  0.51910  0.66570  Biso   1.000  H
  H230     1.0000 0.23090  0.91330  0.91570  Biso   1.000  H
  H231     1.0000 0.33670  0.98090  0.66570  Biso   1.000  H
  H232     1.0000 0.76910  0.58670  0.91570  Biso   1.000  H
  H233     1.0000 0.83670  0.98090  0.83430  Biso   1.000  H
  H234     1.0000 0.76910  0.08670  0.08430  Biso   1.000  H
  H235     1.0000 0.16330  0.51910  0.83430  Biso   1.000  H
  H236     1.0000 0.23090  0.41330  0.08430  Biso   1.000  H
  H237     1.0000 0.33670  0.48090  0.33430  Biso   1.000  H
  H238     1.0000 0.26910  0.58670  0.58430  Biso   1.000  H
  H239     1.0000 0.66330  0.01910  0.33430  Biso   1.000  H
  H240     1.0000 0.73090  0.91330  0.58430  Biso   1.000  H
  C209     1.0000 0.21904  0.13625  0.44770  Biso   1.000  C
  C210     1.0000 0.61375  0.46904  0.69770  Biso   1.000  C
  C211     1.0000 0.78096  0.36375  0.44770  Biso   1.000  C
  C212     1.0000 0.38625  0.03096  0.69770  Biso   1.000  C
  C213     1.0000 0.71904  0.63625  0.94770  Biso   1.000  C
  C214     1.0000 0.11375  0.96904  0.19770  Biso   1.000  C
  C215     1.0000 0.28096  0.86375  0.94770  Biso   1.000  C
  C216     1.0000 0.88625  0.53096  0.19770  Biso   1.000  C
  C217     1.0000 0.78096  0.86375  0.55230  Biso   1.000  C
  C218     1.0000 0.88625  0.03096  0.80230  Biso   1.000  C
  C219     1.0000 0.21904  0.63625  0.55230  Biso   1.000  C
  C220     1.0000 0.11375  0.46904  0.80230  Biso   1.000  C
  C221     1.0000 0.28096  0.36375  0.05230  Biso   1.000  C
  C222     1.0000 0.38625  0.53096  0.30230  Biso   1.000  C
  C223     1.0000 0.71904  0.13625  0.05230  Biso   1.000  C
  C224     1.0000 0.61375  0.96904  0.30230  Biso   1.000  C
  H241     1.0000 0.23250  0.14140  0.49210  Biso   1.000  H
  H242     1.0000 0.60860  0.48250  0.74210  Biso   1.000  H
  H243     1.0000 0.76750  0.35860  0.49210  Biso   1.000  H
  H244     1.0000 0.39140  0.01750  0.74210  Biso   1.000  H
  H245     1.0000 0.73250  0.64140  0.99210  Biso   1.000  H
  H246     1.0000 0.10860  0.98250  0.24210  Biso   1.000  H
  H247     1.0000 0.26750  0.85860  0.99210  Biso   1.000  H
  H248     1.0000 0.89140  0.51750  0.24210  Biso   1.000  H
  H249     1.0000 0.76750  0.85860  0.50790  Biso   1.000  H
  H250     1.0000 0.89140  0.01750  0.75790  Biso   1.000  H
  H251     1.0000 0.23250  0.64140  0.50790  Biso   1.000  H
  H252     1.0000 0.10860  0.48250  0.75790  Biso   1.000  H
  H253     1.0000 0.26750  0.35860  0.00790  Biso   1.000  H
  H254     1.0000 0.39140  0.51750  0.25790  Biso   1.000  H
  H255     1.0000 0.73250  0.14140  0.00790  Biso   1.000  H
  H256     1.0000 0.60860  0.98250  0.25790  Biso   1.000  H
  C225     1.0000 0.32510  0.15613  0.96610  Biso   1.000  C
  C226     1.0000 0.59387  0.57510  0.21610  Biso   1.000  C
  C227     1.0000 0.67490  0.34387  0.96610  Biso   1.000  C
  C228     1.0000 0.40613  0.92490  0.21610  Biso   1.000  C
  C229     1.0000 0.82510  0.65613  0.46610  Biso   1.000  C
  C230     1.0000 0.09387  0.07510  0.71610  Biso   1.000  C
  C231     1.0000 0.17490  0.84387  0.46610  Biso   1.000  C
  C232     1.0000 0.90613  0.42490  0.71610  Biso   1.000  C
  C233     1.0000 0.67490  0.84387  0.03390  Biso   1.000  C
  C234     1.0000 0.90613  0.92490  0.28390  Biso   1.000  C
  C235     1.0000 0.32510  0.65613  0.03390  Biso   1.000  C
  C236     1.0000 0.09387  0.57510  0.28390  Biso   1.000  C
  C237     1.0000 0.17490  0.34387  0.53390  Biso   1.000  C
  C238     1.0000 0.40613  0.42490  0.78390  Biso   1.000  C
  C239     1.0000 0.82510  0.15613  0.53390  Biso   1.000  C
  C240     1.0000 0.59387  0.07510  0.78390  Biso   1.000  C
  H257     1.0000 0.32230  0.16350  0.01800  Biso   1.000  H
  H258     1.0000 0.58650  0.57230  0.26800  Biso   1.000  H
  H259     1.0000 0.67770  0.33650  0.01800  Biso   1.000  H
  H260     1.0000 0.41350  0.92770  0.26800  Biso   1.000  H
  H261     1.0000 0.82230  0.66350  0.51800  Biso   1.000  H
  H262     1.0000 0.08650  0.07230  0.76800  Biso   1.000  H
  H263     1.0000 0.17770  0.83650  0.51800  Biso   1.000  H
  H264     1.0000 0.91350  0.42770  0.76800  Biso   1.000  H
  H265     1.0000 0.67770  0.83650  0.98200  Biso   1.000  H
  H266     1.0000 0.91350  0.92770  0.23200  Biso   1.000  H
  H267     1.0000 0.32230  0.66350  0.98200  Biso   1.000  H
  H268     1.0000 0.08650  0.57230  0.23200  Biso   1.000  H
  H269     1.0000 0.17770  0.33650  0.48200  Biso   1.000  H
  H270     1.0000 0.41350  0.42770  0.73200  Biso   1.000  H
  H271     1.0000 0.82230  0.16350  0.48200  Biso   1.000  H
  H272     1.0000 0.58650  0.07230  0.73200  Biso   1.000  H
  C241     1.0000 0.24809  0.05172  0.23380  Biso   1.000  C
  C242     1.0000 0.69828  0.49809  0.48380  Biso   1.000  C
  C243     1.0000 0.75191  0.44828  0.23380  Biso   1.000  C
  C244     1.0000 0.30172  0.00191  0.48380  Biso   1.000  C
  C245     1.0000 0.74809  0.55172  0.73380  Biso   1.000  C
  C246     1.0000 0.19828  0.99809  0.98380  Biso   1.000  C
  C247     1.0000 0.25191  0.94828  0.73380  Biso   1.000  C
  C248     1.0000 0.80172  0.50191  0.98380  Biso   1.000  C
  C249     1.0000 0.75191  0.94828  0.76620  Biso   1.000  C
  C250     1.0000 0.80172  0.00191  0.01620  Biso   1.000  C
  C251     1.0000 0.24809  0.55172  0.76620  Biso   1.000  C
  C252     1.0000 0.19828  0.49809  0.01620  Biso   1.000  C
  C253     1.0000 0.25191  0.44828  0.26620  Biso   1.000  C
  C254     1.0000 0.30172  0.50191  0.51620  Biso   1.000  C
  C255     1.0000 0.74809  0.05172  0.26620  Biso   1.000  C
  C256     1.0000 0.69828  0.99809  0.51620  Biso   1.000  C
  H273     1.0000 0.27000  0.05910  0.25180  Biso   1.000  H
  H274     1.0000 0.69090  0.52000  0.50180  Biso   1.000  H
  H275     1.0000 0.73000  0.44090  0.25180  Biso   1.000  H
  H276     1.0000 0.30910  0.98000  0.50180  Biso   1.000  H
  H277     1.0000 0.77000  0.55910  0.75180  Biso   1.000  H
  H278     1.0000 0.19090  0.02000  0.00180  Biso   1.000  H
  H279     1.0000 0.23000  0.94090  0.75180  Biso   1.000  H
  H280     1.0000 0.80910  0.48000  0.00180  Biso   1.000  H
  H281     1.0000 0.73000  0.94090  0.74820  Biso   1.000  H
  H282     1.0000 0.80910  0.98000  0.99820  Biso   1.000  H
  H283     1.0000 0.27000  0.55910  0.74820  Biso   1.000  H
  H284     1.0000 0.19090  0.52000  0.99820  Biso   1.000  H
  H285     1.0000 0.23000  0.44090  0.24820  Biso   1.000  H
  H286     1.0000 0.30910  0.48000  0.49820  Biso   1.000  H
  H287     1.0000 0.77000  0.05910  0.24820  Biso   1.000  H
  H288     1.0000 0.69090  0.02000  0.49820  Biso   1.000  H
  N273     1.0000 0.33034  0.30662  0.94880  Biso   1.000  N
  N274     1.0000 0.44338  0.58034  0.19880  Biso   1.000  N
  N275     1.0000 0.66966  0.19338  0.94880  Biso   1.000  N
  N276     1.0000 0.55662  0.91966  0.19880  Biso   1.000  N
  N277     1.0000 0.83034  0.80662  0.44880  Biso   1.000  N
  N278     1.0000 0.94338  0.08034  0.69880  Biso   1.000  N
  N279     1.0000 0.16966  0.69338  0.44880  Biso   1.000  N
  N280     1.0000 0.05662  0.41966  0.69880  Biso   1.000  N
  N281     1.0000 0.66966  0.69338  0.05120  Biso   1.000  N
  N282     1.0000 0.05662  0.91966  0.30120  Biso   1.000  N
  N283     1.0000 0.33034  0.80662  0.05120  Biso   1.000  N
  N284     1.0000 0.94338  0.58034  0.30120  Biso   1.000  N
  N285     1.0000 0.16966  0.19338  0.55120  Biso   1.000  N
  N286     1.0000 0.55662  0.41966  0.80120  Biso   1.000  N
  N287     1.0000 0.83034  0.30662  0.55120  Biso   1.000  N
  N288     1.0000 0.44338  0.08034  0.80120  Biso   1.000  N
  C257     1.0000 0.33579  0.13390  0.81510  Biso   1.000  C
  C258     1.0000 0.61610  0.58579  0.06510  Biso   1.000  C
  C259     1.0000 0.66421  0.36610  0.81510  Biso   1.000  C
  C260     1.0000 0.38390  0.91421  0.06510  Biso   1.000  C
  C261     1.0000 0.83579  0.63390  0.31510  Biso   1.000  C
  C262     1.0000 0.11610  0.08579  0.56510  Biso   1.000  C
  C263     1.0000 0.16421  0.86610  0.31510  Biso   1.000  C
  C264     1.0000 0.88390  0.41421  0.56510  Biso   1.000  C
  C265     1.0000 0.66421  0.86610  0.18490  Biso   1.000  C
  C266     1.0000 0.88390  0.91421  0.43490  Biso   1.000  C
  C267     1.0000 0.33579  0.63390  0.18490  Biso   1.000  C
  C268     1.0000 0.11610  0.58579  0.43490  Biso   1.000  C
  C269     1.0000 0.16421  0.36610  0.68490  Biso   1.000  C
  C270     1.0000 0.38390  0.41421  0.93490  Biso   1.000  C
  C271     1.0000 0.83579  0.13390  0.68490  Biso   1.000  C
  C272     1.0000 0.61610  0.08579  0.93490  Biso   1.000  C
  H289     1.0000 0.33930  0.12640  0.76360  Biso   1.000  H
  H290     1.0000 0.62360  0.58930  0.01360  Biso   1.000  H
  H291     1.0000 0.66070  0.37360  0.76360  Biso   1.000  H
  H292     1.0000 0.37640  0.91070  0.01360  Biso   1.000  H
  H293     1.0000 0.83930  0.62640  0.26360  Biso   1.000  H
  H294     1.0000 0.12360  0.08930  0.51360  Biso   1.000  H
  H295     1.0000 0.16070  0.87360  0.26360  Biso   1.000  H
  H296     1.0000 0.87640  0.41070  0.51360  Biso   1.000  H
  H297     1.0000 0.66070  0.87360  0.23640  Biso   1.000  H
  H298     1.0000 0.87640  0.91070  0.48640  Biso   1.000  H
  H299     1.0000 0.33930  0.62640  0.23640  Biso   1.000  H
  H300     1.0000 0.12360  0.58930  0.48640  Biso   1.000  H
  H301     1.0000 0.16070  0.37360  0.73640  Biso   1.000  H
  H302     1.0000 0.37640  0.41070  0.98640  Biso   1.000  H
  H303     1.0000 0.83930  0.12640  0.73640  Biso   1.000  H
  H304     1.0000 0.62360  0.08930  0.98640  Biso   1.000  H
  C273     1.0000 0.17996  0.12215  0.31880  Biso   1.000  C
  C274     1.0000 0.62785  0.42996  0.56880  Biso   1.000  C
  C275     1.0000 0.82004  0.37785  0.31880  Biso   1.000  C
  C276     1.0000 0.37215  0.07004  0.56880  Biso   1.000  C
  C277     1.0000 0.67996  0.62215  0.81880  Biso   1.000  C
  C278     1.0000 0.12785  0.92996  0.06880  Biso   1.000  C
  C279     1.0000 0.32004  0.87785  0.81880  Biso   1.000  C
  C280     1.0000 0.87215  0.57004  0.06880  Biso   1.000  C
  C281     1.0000 0.82004  0.87785  0.68120  Biso   1.000  C
  C282     1.0000 0.87215  0.07004  0.93120  Biso   1.000  C
  C283     1.0000 0.17996  0.62215  0.68120  Biso   1.000  C
  C284     1.0000 0.12785  0.42996  0.93120  Biso   1.000  C
  C285     1.0000 0.32004  0.37785  0.18120  Biso   1.000  C
  C286     1.0000 0.37215  0.57004  0.43120  Biso   1.000  C
  C287     1.0000 0.67996  0.12215  0.18120  Biso   1.000  C
  C288     1.0000 0.62785  0.92996  0.43120  Biso   1.000  C
  H305     1.0000 0.16620  0.11620  0.27540  Biso   1.000  H
  H306     1.0000 0.63380  0.41620  0.52540  Biso   1.000  H
  H307     1.0000 0.83380  0.38380  0.27540  Biso   1.000  H
  H308     1.0000 0.36620  0.08380  0.52540  Biso   1.000  H
  H309     1.0000 0.66620  0.61620  0.77540  Biso   1.000  H
  H310     1.0000 0.13380  0.91620  0.02540  Biso   1.000  H
  H311     1.0000 0.33380  0.88380  0.77540  Biso   1.000  H
  H312     1.0000 0.86620  0.58380  0.02540  Biso   1.000  H
  H313     1.0000 0.83380  0.88380  0.72460  Biso   1.000  H
  H314     1.0000 0.86620  0.08380  0.97460  Biso   1.000  H
  H315     1.0000 0.16620  0.61620  0.72460  Biso   1.000  H
  H316     1.0000 0.13380  0.41620  0.97460  Biso   1.000  H
  H317     1.0000 0.33380  0.38380  0.22460  Biso   1.000  H
  H318     1.0000 0.36620  0.58380  0.47460  Biso   1.000  H
  H319     1.0000 0.66620  0.11620  0.22460  Biso   1.000  H
  H320     1.0000 0.63380  0.91620  0.47460  Biso   1.000  H
  C289     1.0000 0.07569  0.25759  0.10540  Biso   1.000  C
  C290     1.0000 0.49241  0.32569  0.35540  Biso   1.000  C
  C291     1.0000 0.92431  0.24241  0.10540  Biso   1.000  C
  C292     1.0000 0.50759  0.17431  0.35540  Biso   1.000  C
  C293     1.0000 0.57569  0.75759  0.60540  Biso   1.000  C
  C294     1.0000 0.99241  0.82569  0.85540  Biso   1.000  C
  C295     1.0000 0.42431  0.74241  0.60540  Biso   1.000  C
  C296     1.0000 0.00759  0.67431  0.85540  Biso   1.000  C
  C297     1.0000 0.92431  0.74241  0.89460  Biso   1.000  C
  C298     1.0000 0.00759  0.17431  0.14460  Biso   1.000  C
  C299     1.0000 0.07569  0.75759  0.89460  Biso   1.000  C
  C300     1.0000 0.99241  0.32569  0.14460  Biso   1.000  C
  C301     1.0000 0.42431  0.24241  0.39460  Biso   1.000  C
  C302     1.0000 0.50759  0.67431  0.64460  Biso   1.000  C
  C303     1.0000 0.57569  0.25759  0.39460  Biso   1.000  C
  C304     1.0000 0.49241  0.82569  0.64460  Biso   1.000  C
  H321     1.0000 0.07190  0.27190  0.14900  Biso   1.000  H
  H322     1.0000 0.47810  0.32190  0.39900  Biso   1.000  H
  H323     1.0000 0.92810  0.22810  0.14900  Biso   1.000  H
  H324     1.0000 0.52190  0.17810  0.39900  Biso   1.000  H
  H325     1.0000 0.57190  0.77190  0.64900  Biso   1.000  H
  H326     1.0000 0.97810  0.82190  0.89900  Biso   1.000  H
  H327     1.0000 0.42810  0.72810  0.64900  Biso   1.000  H
  H328     1.0000 0.02190  0.67810  0.89900  Biso   1.000  H
  H329     1.0000 0.92810  0.72810  0.85100  Biso   1.000  H
  H330     1.0000 0.02190  0.17810  0.10100  Biso   1.000  H
  H331     1.0000 0.07190  0.77190  0.85100  Biso   1.000  H
  H332     1.0000 0.97810  0.32190  0.10100  Biso   1.000  H
  H333     1.0000 0.42810  0.22810  0.35100  Biso   1.000  H
  H334     1.0000 0.52190  0.67810  0.60100  Biso   1.000  H
  H335     1.0000 0.57190  0.27190  0.35100  Biso   1.000  H
  H336     1.0000 0.47810  0.82190  0.60100  Biso   1.000  H
  C305     1.0000 0.32717  0.26313  0.04990  Biso   1.000  C
  C306     1.0000 0.48687  0.57717  0.29990  Biso   1.000  C
  C307     1.0000 0.67283  0.23687  0.04990  Biso   1.000  C
  C308     1.0000 0.51313  0.92283  0.29990  Biso   1.000  C
  C309     1.0000 0.82717  0.76313  0.54990  Biso   1.000  C
  C310     1.0000 0.98687  0.07717  0.79990  Biso   1.000  C
  C311     1.0000 0.17283  0.73687  0.54990  Biso   1.000  C
  C312     1.0000 0.01313  0.42283  0.79990  Biso   1.000  C
  C313     1.0000 0.67283  0.73687  0.95010  Biso   1.000  C
  C314     1.0000 0.01313  0.92283  0.20010  Biso   1.000  C
  C315     1.0000 0.32717  0.76313  0.95010  Biso   1.000  C
  C316     1.0000 0.98687  0.57717  0.20010  Biso   1.000  C
  C317     1.0000 0.17283  0.23687  0.45010  Biso   1.000  C
  C318     1.0000 0.51313  0.42283  0.70010  Biso   1.000  C
  C319     1.0000 0.82717  0.26313  0.45010  Biso   1.000  C
  C320     1.0000 0.48687  0.07717  0.70010  Biso   1.000  C
  H337     1.0000 0.33650  0.25400  0.09630  Biso   1.000  H
  H338     1.0000 0.49600  0.58650  0.34630  Biso   1.000  H
  H339     1.0000 0.66350  0.24600  0.09630  Biso   1.000  H
  H340     1.0000 0.50400  0.91350  0.34630  Biso   1.000  H
  H341     1.0000 0.83650  0.75400  0.59630  Biso   1.000  H
  H342     1.0000 0.99600  0.08650  0.84630  Biso   1.000  H
  H343     1.0000 0.16350  0.74600  0.59630  Biso   1.000  H
  H344     1.0000 0.00400  0.41350  0.84630  Biso   1.000  H
  H345     1.0000 0.66350  0.74600  0.90370  Biso   1.000  H
  H346     1.0000 0.00400  0.91350  0.15370  Biso   1.000  H
  H347     1.0000 0.33650  0.75400  0.90370  Biso   1.000  H
  H348     1.0000 0.99600  0.58650  0.15370  Biso   1.000  H
  H349     1.0000 0.16350  0.24600  0.40370  Biso   1.000  H
  H350     1.0000 0.50400  0.41350  0.65370  Biso   1.000  H
  H351     1.0000 0.83650  0.25400  0.40370  Biso   1.000  H
  H352     1.0000 0.49600  0.08650  0.65370  Biso   1.000  H
  C321     1.0000 0.08758  0.21698  0.97780  Biso   1.000  C
  C322     1.0000 0.53302  0.33758  0.22780  Biso   1.000  C
  C323     1.0000 0.91242  0.28302  0.97780  Biso   1.000  C
  C324     1.0000 0.46698  0.16242  0.22780  Biso   1.000  C
  C325     1.0000 0.58758  0.71698  0.47780  Biso   1.000  C
  C326     1.0000 0.03302  0.83758  0.72780  Biso   1.000  C
  C327     1.0000 0.41242  0.78302  0.47780  Biso   1.000  C
  C328     1.0000 0.96698  0.66242  0.72780  Biso   1.000  C
  C329     1.0000 0.91242  0.78302  0.02220  Biso   1.000  C
  C330     1.0000 0.96698  0.16242  0.27220  Biso   1.000  C
  C331     1.0000 0.08758  0.71698  0.02220  Biso   1.000  C
  C332     1.0000 0.03302  0.33758  0.27220  Biso   1.000  C
  C333     1.0000 0.41242  0.28302  0.52220  Biso   1.000  C
  C334     1.0000 0.46698  0.66242  0.77220  Biso   1.000  C
  C335     1.0000 0.58758  0.21698  0.52220  Biso   1.000  C
  C336     1.0000 0.53302  0.83758  0.77220  Biso   1.000  C
  H353     1.0000 0.09050  0.20330  0.93280  Biso   1.000  H
  H354     1.0000 0.54670  0.34050  0.18280  Biso   1.000  H
  H355     1.0000 0.90950  0.29670  0.93280  Biso   1.000  H
  H356     1.0000 0.45330  0.15950  0.18280  Biso   1.000  H
  H357     1.0000 0.59050  0.70330  0.43280  Biso   1.000  H
  H358     1.0000 0.04670  0.84050  0.68280  Biso   1.000  H
  H359     1.0000 0.40950  0.79670  0.43280  Biso   1.000  H
  H360     1.0000 0.95330  0.65950  0.68280  Biso   1.000  H
  H361     1.0000 0.90950  0.79670  0.06720  Biso   1.000  H
  H362     1.0000 0.95330  0.15950  0.31720  Biso   1.000  H
  H363     1.0000 0.09050  0.70330  0.06720  Biso   1.000  H
  H364     1.0000 0.04670  0.34050  0.31720  Biso   1.000  H
  H365     1.0000 0.40950  0.29670  0.56720  Biso   1.000  H
  H366     1.0000 0.45330  0.65950  0.81720  Biso   1.000  H
  H367     1.0000 0.59050  0.20330  0.56720  Biso   1.000  H
  H368     1.0000 0.54670  0.84050  0.81720  Biso   1.000  H
  C337     1.0000 0.11356  0.18497  0.24570  Biso   1.000  C
  C338     1.0000 0.56503  0.36356  0.49570  Biso   1.000  C
  C339     1.0000 0.88644  0.31503  0.24570  Biso   1.000  C
  C340     1.0000 0.43497  0.13644  0.49570  Biso   1.000  C
  C341     1.0000 0.61356  0.68497  0.74570  Biso   1.000  C
  C342     1.0000 0.06503  0.86356  0.99570  Biso   1.000  C
  C343     1.0000 0.38644  0.81503  0.74570  Biso   1.000  C
  C344     1.0000 0.93497  0.63644  0.99570  Biso   1.000  C
  C345     1.0000 0.88644  0.81503  0.75430  Biso   1.000  C
  C346     1.0000 0.93497  0.13644  0.00430  Biso   1.000  C
  C347     1.0000 0.11356  0.68497  0.75430  Biso   1.000  C
  C348     1.0000 0.06503  0.36356  0.00430  Biso   1.000  C
  C349     1.0000 0.38644  0.31503  0.25430  Biso   1.000  C
  C350     1.0000 0.43497  0.63644  0.50430  Biso   1.000  C
  C351     1.0000 0.61356  0.18497  0.25430  Biso   1.000  C
  C352     1.0000 0.56503  0.86356  0.50430  Biso   1.000  C
  C353     1.0000 0.22999  0.08486  0.88150  Biso   1.000  C
  C354     1.0000 0.66514  0.47999  0.13150  Biso   1.000  C
  C355     1.0000 0.77001  0.41514  0.88150  Biso   1.000  C
  C356     1.0000 0.33486  0.02001  0.13150  Biso   1.000  C
  C357     1.0000 0.72999  0.58486  0.38150  Biso   1.000  C
  C358     1.0000 0.16514  0.97999  0.63150  Biso   1.000  C
  C359     1.0000 0.27001  0.91514  0.38150  Biso   1.000  C
  C360     1.0000 0.83486  0.52001  0.63150  Biso   1.000  C
  C361     1.0000 0.77001  0.91514  0.11850  Biso   1.000  C
  C362     1.0000 0.83486  0.02001  0.36850  Biso   1.000  C
  C363     1.0000 0.22999  0.58486  0.11850  Biso   1.000  C
  C364     1.0000 0.16514  0.47999  0.36850  Biso   1.000  C
  C365     1.0000 0.27001  0.41514  0.61850  Biso   1.000  C
  C366     1.0000 0.33486  0.52001  0.86850  Biso   1.000  C
  C367     1.0000 0.72999  0.08486  0.61850  Biso   1.000  C
  C368     1.0000 0.66514  0.97999  0.86850  Biso   1.000  C
  H369     1.0000 0.20760  0.09060  0.86360  Biso   1.000  H
  H370     1.0000 0.65940  0.45760  0.11360  Biso   1.000  H
  H371     1.0000 0.79240  0.40940  0.86360  Biso   1.000  H
  H372     1.0000 0.34060  0.04240  0.11360  Biso   1.000  H
  H373     1.0000 0.70760  0.59060  0.36360  Biso   1.000  H
  H374     1.0000 0.15940  0.95760  0.61360  Biso   1.000  H
  H375     1.0000 0.29240  0.90940  0.36360  Biso   1.000  H
  H376     1.0000 0.84060  0.54240  0.61360  Biso   1.000  H
  H377     1.0000 0.79240  0.90940  0.13640  Biso   1.000  H
  H378     1.0000 0.84060  0.04240  0.38640  Biso   1.000  H
  H379     1.0000 0.20760  0.59060  0.13640  Biso   1.000  H
  H380     1.0000 0.15940  0.45760  0.38640  Biso   1.000  H
  H381     1.0000 0.29240  0.40940  0.63640  Biso   1.000  H
  H382     1.0000 0.34060  0.54240  0.88640  Biso   1.000  H
  H383     1.0000 0.70760  0.09060  0.63640  Biso   1.000  H
  H384     1.0000 0.65940  0.95760  0.88640  Biso   1.000  H
  C369     1.0000 0.19177  0.29406  0.99780  Biso   1.000  C
  C370     1.0000 0.45594  0.44177  0.24780  Biso   1.000  C
  C371     1.0000 0.80823  0.20594  0.99780  Biso   1.000  C
  C372     1.0000 0.54406  0.05823  0.24780  Biso   1.000  C
  C373     1.0000 0.69177  0.79406  0.49780  Biso   1.000  C
  C374     1.0000 0.95594  0.94177  0.74780  Biso   1.000  C
  C375     1.0000 0.30823  0.70594  0.49780  Biso   1.000  C
  C376     1.0000 0.04406  0.55823  0.74780  Biso   1.000  C
  C377     1.0000 0.80823  0.70594  0.00220  Biso   1.000  C
  C378     1.0000 0.04406  0.05823  0.25220  Biso   1.000  C
  C379     1.0000 0.19177  0.79406  0.00220  Biso   1.000  C
  C380     1.0000 0.95594  0.44177  0.25220  Biso   1.000  C
  C381     1.0000 0.30823  0.20594  0.50220  Biso   1.000  C
  C382     1.0000 0.54406  0.55823  0.75220  Biso   1.000  C
  C383     1.0000 0.69177  0.29406  0.50220  Biso   1.000  C
  C384     1.0000 0.45594  0.94177  0.75220  Biso   1.000  C
  C385     1.0000 0.19191  0.32959  0.01780  Biso   1.000  C
  C386     1.0000 0.42041  0.44191  0.26780  Biso   1.000  C
  C387     1.0000 0.80809  0.17041  0.01780  Biso   1.000  C
  C388     1.0000 0.57959  0.05809  0.26780  Biso   1.000  C
  C389     1.0000 0.69191  0.82959  0.51780  Biso   1.000  C
  C390     1.0000 0.92041  0.94191  0.76780  Biso   1.000  C
  C391     1.0000 0.30809  0.67041  0.51780  Biso   1.000  C
  C392     1.0000 0.07959  0.55809  0.76780  Biso   1.000  C
  C393     1.0000 0.80809  0.67041  0.98220  Biso   1.000  C
  C394     1.0000 0.07959  0.05809  0.23220  Biso   1.000  C
  C395     1.0000 0.19191  0.82959  0.98220  Biso   1.000  C
  C396     1.0000 0.92041  0.44191  0.23220  Biso   1.000  C
  C397     1.0000 0.30809  0.17041  0.48220  Biso   1.000  C
  C398     1.0000 0.57959  0.55809  0.73220  Biso   1.000  C
  C399     1.0000 0.69191  0.32959  0.48220  Biso   1.000  C
  C400     1.0000 0.42041  0.94191  0.73220  Biso   1.000  C
  H385     1.0000 0.19180  0.33670  0.07030  Biso   1.000  H
  H386     1.0000 0.41330  0.44180  0.32030  Biso   1.000  H
  H387     1.0000 0.80820  0.16330  0.07030  Biso   1.000  H
  H388     1.0000 0.58670  0.05820  0.32030  Biso   1.000  H
  H389     1.0000 0.69180  0.83670  0.57030  Biso   1.000  H
  H390     1.0000 0.91330  0.94180  0.82030  Biso   1.000  H
  H391     1.0000 0.30820  0.66330  0.57030  Biso   1.000  H
  H392     1.0000 0.08670  0.55820  0.82030  Biso   1.000  H
  H393     1.0000 0.80820  0.66330  0.92970  Biso   1.000  H
  H394     1.0000 0.08670  0.05820  0.17970  Biso   1.000  H
  H395     1.0000 0.19180  0.83670  0.92970  Biso   1.000  H
  H396     1.0000 0.91330  0.44180  0.17970  Biso   1.000  H
  H397     1.0000 0.30820  0.16330  0.42970  Biso   1.000  H
  H398     1.0000 0.58670  0.55820  0.67970  Biso   1.000  H
  H399     1.0000 0.69180  0.33670  0.42970  Biso   1.000  H
  H400     1.0000 0.41330  0.94180  0.67970  Biso   1.000  H
  C401     1.0000 0.35517  0.13872  0.94250  Biso   1.000  C
  C402     1.0000 0.61128  0.60517  0.19250  Biso   1.000  C
  C403     1.0000 0.64483  0.36128  0.94250  Biso   1.000  C
  C404     1.0000 0.38872  0.89483  0.19250  Biso   1.000  C
  C405     1.0000 0.85517  0.63872  0.44250  Biso   1.000  C
  C406     1.0000 0.11128  0.10517  0.69250  Biso   1.000  C
  C407     1.0000 0.14483  0.86128  0.44250  Biso   1.000  C
  C408     1.0000 0.88872  0.39483  0.69250  Biso   1.000  C
  C409     1.0000 0.64483  0.86128  0.05750  Biso   1.000  C
  C410     1.0000 0.88872  0.89483  0.30750  Biso   1.000  C
  C411     1.0000 0.35517  0.63872  0.05750  Biso   1.000  C
  C412     1.0000 0.11128  0.60517  0.30750  Biso   1.000  C
  C413     1.0000 0.14483  0.36128  0.55750  Biso   1.000  C
  C414     1.0000 0.38872  0.39483  0.80750  Biso   1.000  C
  C415     1.0000 0.85517  0.13872  0.55750  Biso   1.000  C
  C416     1.0000 0.61128  0.10517  0.80750  Biso   1.000  C
  H401     1.0000 0.37240  0.13450  0.98030  Biso   1.000  H
  H402     1.0000 0.61550  0.62240  0.23030  Biso   1.000  H
  H403     1.0000 0.62760  0.36550  0.98030  Biso   1.000  H
  H404     1.0000 0.38450  0.87760  0.23030  Biso   1.000  H
  H405     1.0000 0.87240  0.63450  0.48030  Biso   1.000  H
  H406     1.0000 0.11550  0.12240  0.73030  Biso   1.000  H
  H407     1.0000 0.12760  0.86550  0.48030  Biso   1.000  H
  H408     1.0000 0.88450  0.37760  0.73030  Biso   1.000  H
  H409     1.0000 0.62760  0.86550  0.01970  Biso   1.000  H
  H410     1.0000 0.88450  0.87760  0.26970  Biso   1.000  H
  H411     1.0000 0.37240  0.63450  0.01970  Biso   1.000  H
  H412     1.0000 0.11550  0.62240  0.26970  Biso   1.000  H
  H413     1.0000 0.12760  0.36550  0.51970  Biso   1.000  H
  H414     1.0000 0.38450  0.37760  0.76970  Biso   1.000  H
  H415     1.0000 0.87240  0.13450  0.51970  Biso   1.000  H
  H416     1.0000 0.61550  0.12240  0.76970  Biso   1.000  H
  C417     1.0000 0.29527  0.06683  0.92780  Biso   1.000  C
  C418     1.0000 0.68317  0.54527  0.17780  Biso   1.000  C
  C419     1.0000 0.70473  0.43317  0.92780  Biso   1.000  C
  C420     1.0000 0.31683  0.95473  0.17780  Biso   1.000  C
  C421     1.0000 0.79527  0.56683  0.42780  Biso   1.000  C
  C422     1.0000 0.18317  0.04527  0.67780  Biso   1.000  C
  C423     1.0000 0.20473  0.93317  0.42780  Biso   1.000  C
  C424     1.0000 0.81683  0.45473  0.67780  Biso   1.000  C
  C425     1.0000 0.70473  0.93317  0.07220  Biso   1.000  C
  C426     1.0000 0.81683  0.95473  0.32220  Biso   1.000  C
  C427     1.0000 0.29527  0.56683  0.07220  Biso   1.000  C
  C428     1.0000 0.18317  0.54527  0.32220  Biso   1.000  C
  C429     1.0000 0.20473  0.43317  0.57220  Biso   1.000  C
  C430     1.0000 0.31683  0.45473  0.82220  Biso   1.000  C
  C431     1.0000 0.79527  0.06683  0.57220  Biso   1.000  C
  C432     1.0000 0.68317  0.04527  0.82220  Biso   1.000  C
  H417     1.0000 0.31770  0.06050  0.94450  Biso   1.000  H
  H418     1.0000 0.68950  0.56770  0.19450  Biso   1.000  H
  H419     1.0000 0.68230  0.43950  0.94450  Biso   1.000  H
  H420     1.0000 0.31050  0.93230  0.19450  Biso   1.000  H
  H421     1.0000 0.81770  0.56050  0.44450  Biso   1.000  H
  H422     1.0000 0.18950  0.06770  0.69450  Biso   1.000  H
  H423     1.0000 0.18230  0.93950  0.44450  Biso   1.000  H
  H424     1.0000 0.81050  0.43230  0.69450  Biso   1.000  H
  H425     1.0000 0.68230  0.93950  0.05550  Biso   1.000  H
  H426     1.0000 0.81050  0.93230  0.30550  Biso   1.000  H
  H427     1.0000 0.31770  0.56050  0.05550  Biso   1.000  H
  H428     1.0000 0.18950  0.56770  0.30550  Biso   1.000  H
  H429     1.0000 0.18230  0.43950  0.55550  Biso   1.000  H
  H430     1.0000 0.31050  0.43230  0.80550  Biso   1.000  H
  H431     1.0000 0.81770  0.06050  0.55550  Biso   1.000  H
  H432     1.0000 0.68950  0.06770  0.80550  Biso   1.000  H
  C433     1.0000 0.05433  0.22615  0.00340  Biso   1.000  C
  C434     1.0000 0.52385  0.30433  0.25340  Biso   1.000  C
  C435     1.0000 0.94567  0.27385  0.00340  Biso   1.000  C
  C436     1.0000 0.47615  0.19567  0.25340  Biso   1.000  C
  C437     1.0000 0.55433  0.72615  0.50340  Biso   1.000  C
  C438     1.0000 0.02385  0.80433  0.75340  Biso   1.000  C
  C439     1.0000 0.44567  0.77385  0.50340  Biso   1.000  C
  C440     1.0000 0.97615  0.69567  0.75340  Biso   1.000  C
  C441     1.0000 0.94567  0.77385  0.99660  Biso   1.000  C
  C442     1.0000 0.97615  0.19567  0.24660  Biso   1.000  C
  C443     1.0000 0.05433  0.72615  0.99660  Biso   1.000  C
  C444     1.0000 0.02385  0.30433  0.24660  Biso   1.000  C
  C445     1.0000 0.44567  0.27385  0.49660  Biso   1.000  C
  C446     1.0000 0.47615  0.69567  0.74660  Biso   1.000  C
  C447     1.0000 0.55433  0.22615  0.49660  Biso   1.000  C
  C448     1.0000 0.52385  0.80433  0.74660  Biso   1.000  C
  H433     1.0000 0.03520  0.21800  0.97430  Biso   1.000  H
  H434     1.0000 0.53200  0.28520  0.22430  Biso   1.000  H
  H435     1.0000 0.96480  0.28200  0.97430  Biso   1.000  H
  H436     1.0000 0.46800  0.21480  0.22430  Biso   1.000  H
  H437     1.0000 0.53520  0.71800  0.47430  Biso   1.000  H
  H438     1.0000 0.03200  0.78520  0.72430  Biso   1.000  H
  H439     1.0000 0.46480  0.78200  0.47430  Biso   1.000  H
  H440     1.0000 0.96800  0.71480  0.72430  Biso   1.000  H
  H441     1.0000 0.96480  0.78200  0.02570  Biso   1.000  H
  H442     1.0000 0.96800  0.21480  0.27570  Biso   1.000  H
  H443     1.0000 0.03520  0.71800  0.02570  Biso   1.000  H
  H444     1.0000 0.03200  0.28520  0.27570  Biso   1.000  H
  H445     1.0000 0.46480  0.28200  0.52570  Biso   1.000  H
  H446     1.0000 0.46800  0.71480  0.77570  Biso   1.000  H
  H447     1.0000 0.53520  0.21800  0.52570  Biso   1.000  H
  H448     1.0000 0.53200  0.78520  0.77570  Biso   1.000  H
  C449     1.0000 0.30152  0.29191  0.91690  Biso   1.000  C
  C450     1.0000 0.45809  0.55152  0.16690  Biso   1.000  C
  C451     1.0000 0.69848  0.20809  0.91690  Biso   1.000  C
  C452     1.0000 0.54191  0.94848  0.16690  Biso   1.000  C
  C453     1.0000 0.80152  0.79191  0.41690  Biso   1.000  C
  C454     1.0000 0.95809  0.05152  0.66690  Biso   1.000  C
  C455     1.0000 0.19848  0.70809  0.41690  Biso   1.000  C
  C456     1.0000 0.04191  0.44848  0.66690  Biso   1.000  C
  C457     1.0000 0.69848  0.70809  0.08310  Biso   1.000  C
  C458     1.0000 0.04191  0.94848  0.33310  Biso   1.000  C
  C459     1.0000 0.30152  0.79191  0.08310  Biso   1.000  C
  C460     1.0000 0.95809  0.55152  0.33310  Biso   1.000  C
  C461     1.0000 0.19848  0.20809  0.58310  Biso   1.000  C
  C462     1.0000 0.54191  0.44848  0.83310  Biso   1.000  C
  C463     1.0000 0.80152  0.29191  0.58310  Biso   1.000  C
  C464     1.0000 0.45809  0.05152  0.83310  Biso   1.000  C
  H449     1.0000 0.29250  0.30190  0.87110  Biso   1.000  H
  H450     1.0000 0.44810  0.54250  0.12110  Biso   1.000  H
  H451     1.0000 0.70750  0.19810  0.87110  Biso   1.000  H
  H452     1.0000 0.55190  0.95750  0.12110  Biso   1.000  H
  H453     1.0000 0.79250  0.80190  0.37110  Biso   1.000  H
  H454     1.0000 0.94810  0.04250  0.62110  Biso   1.000  H
  H455     1.0000 0.20750  0.69810  0.37110  Biso   1.000  H
  H456     1.0000 0.05190  0.45750  0.62110  Biso   1.000  H
  H457     1.0000 0.70750  0.69810  0.12890  Biso   1.000  H
  H458     1.0000 0.05190  0.95750  0.37890  Biso   1.000  H
  H459     1.0000 0.29250  0.80190  0.12890  Biso   1.000  H
  H460     1.0000 0.94810  0.54250  0.37890  Biso   1.000  H
  H461     1.0000 0.20750  0.19810  0.62890  Biso   1.000  H
  H462     1.0000 0.55190  0.45750  0.87890  Biso   1.000  H
  H463     1.0000 0.79250  0.30190  0.62890  Biso   1.000  H
  H464     1.0000 0.44810  0.04250  0.87890  Biso   1.000  H
  C465     1.0000 0.34258  0.29176  0.01510  Biso   1.000  C
  C466     1.0000 0.45824  0.59258  0.26510  Biso   1.000  C
  C467     1.0000 0.65742  0.20824  0.01510  Biso   1.000  C
  C468     1.0000 0.54176  0.90742  0.26510  Biso   1.000  C
  C469     1.0000 0.84258  0.79176  0.51510  Biso   1.000  C
  C470     1.0000 0.95824  0.09258  0.76510  Biso   1.000  C
  C471     1.0000 0.15742  0.70824  0.51510  Biso   1.000  C
  C472     1.0000 0.04176  0.40742  0.76510  Biso   1.000  C
  C473     1.0000 0.65742  0.70824  0.98490  Biso   1.000  C
  C474     1.0000 0.04176  0.90742  0.23490  Biso   1.000  C
  C475     1.0000 0.34258  0.79176  0.98490  Biso   1.000  C
  C476     1.0000 0.95824  0.59258  0.23490  Biso   1.000  C
  C477     1.0000 0.15742  0.20824  0.48490  Biso   1.000  C
  C478     1.0000 0.54176  0.40742  0.73490  Biso   1.000  C
  C479     1.0000 0.84258  0.29176  0.48490  Biso   1.000  C
  C480     1.0000 0.45824  0.09258  0.73490  Biso   1.000  C
  H465     1.0000 0.36250  0.30140  0.03860  Biso   1.000  H
  H466     1.0000 0.44860  0.61250  0.28860  Biso   1.000  H
  H467     1.0000 0.63750  0.19860  0.03860  Biso   1.000  H
  H468     1.0000 0.55140  0.88750  0.28860  Biso   1.000  H
  H469     1.0000 0.86250  0.80140  0.53860  Biso   1.000  H
  H470     1.0000 0.94860  0.11250  0.78860  Biso   1.000  H
  H471     1.0000 0.13750  0.69860  0.53860  Biso   1.000  H
  H472     1.0000 0.05140  0.38750  0.78860  Biso   1.000  H
  H473     1.0000 0.63750  0.69860  0.96140  Biso   1.000  H
  H474     1.0000 0.05140  0.88750  0.21140  Biso   1.000  H
  H475     1.0000 0.36250  0.80140  0.96140  Biso   1.000  H
  H476     1.0000 0.94860  0.61250  0.21140  Biso   1.000  H
  H477     1.0000 0.13750  0.19860  0.46140  Biso   1.000  H
  H478     1.0000 0.55140  0.38750  0.71140  Biso   1.000  H
  H479     1.0000 0.86250  0.30140  0.46140  Biso   1.000  H
  H480     1.0000 0.44860  0.11250  0.71140  Biso   1.000  H
  C481     1.0000 0.18200  0.09981  0.38290  Biso   1.000  C
  C482     1.0000 0.65019  0.43200  0.63290  Biso   1.000  C
  C483     1.0000 0.81800  0.40019  0.38290  Biso   1.000  C
  C484     1.0000 0.34981  0.06800  0.63290  Biso   1.000  C
  C485     1.0000 0.68200  0.59981  0.88290  Biso   1.000  C
  C486     1.0000 0.15019  0.93200  0.13290  Biso   1.000  C
  C487     1.0000 0.31800  0.90019  0.88290  Biso   1.000  C
  C488     1.0000 0.84981  0.56800  0.13290  Biso   1.000  C
  C489     1.0000 0.81800  0.90019  0.61710  Biso   1.000  C
  C490     1.0000 0.84981  0.06800  0.86710  Biso   1.000  C
  C491     1.0000 0.18200  0.59981  0.61710  Biso   1.000  C
  C492     1.0000 0.15019  0.43200  0.86710  Biso   1.000  C
  C493     1.0000 0.31800  0.40019  0.11710  Biso   1.000  C
  C494     1.0000 0.34981  0.56800  0.36710  Biso   1.000  C
  C495     1.0000 0.68200  0.09981  0.11710  Biso   1.000  C
  C496     1.0000 0.65019  0.93200  0.36710  Biso   1.000  C
  H481     1.0000 0.16920  0.07900  0.38090  Biso   1.000  H
  H482     1.0000 0.67100  0.41920  0.63090  Biso   1.000  H
  H483     1.0000 0.83080  0.42100  0.38090  Biso   1.000  H
  H484     1.0000 0.32900  0.08080  0.63090  Biso   1.000  H
  H485     1.0000 0.66920  0.57900  0.88090  Biso   1.000  H
  H486     1.0000 0.17100  0.91920  0.13090  Biso   1.000  H
  H487     1.0000 0.33080  0.92100  0.88090  Biso   1.000  H
  H488     1.0000 0.82900  0.58080  0.13090  Biso   1.000  H
  H489     1.0000 0.83080  0.92100  0.61910  Biso   1.000  H
  H490     1.0000 0.82900  0.08080  0.86910  Biso   1.000  H
  H491     1.0000 0.16920  0.57900  0.61910  Biso   1.000  H
  H492     1.0000 0.17100  0.41920  0.86910  Biso   1.000  H
  H493     1.0000 0.33080  0.42100  0.11910  Biso   1.000  H
  H494     1.0000 0.32900  0.58080  0.36910  Biso   1.000  H
  H495     1.0000 0.66920  0.07900  0.11910  Biso   1.000  H
  H496     1.0000 0.67100  0.91920  0.36910  Biso   1.000  H
  C497     1.0000 0.12055  0.21801  0.27560  Biso   1.000  C
  C498     1.0000 0.53199  0.37055  0.52560  Biso   1.000  C
  C499     1.0000 0.87945  0.28199  0.27560  Biso   1.000  C
  C500     1.0000 0.46801  0.12945  0.52560  Biso   1.000  C
  C501     1.0000 0.62055  0.71801  0.77560  Biso   1.000  C
  C502     1.0000 0.03199  0.87055  0.02560  Biso   1.000  C
  C503     1.0000 0.37945  0.78199  0.77560  Biso   1.000  C
  C504     1.0000 0.96801  0.62945  0.02560  Biso   1.000  C
  C505     1.0000 0.87945  0.78199  0.72440  Biso   1.000  C
  C506     1.0000 0.96801  0.12945  0.97440  Biso   1.000  C
  C507     1.0000 0.12055  0.71801  0.72440  Biso   1.000  C
  C508     1.0000 0.03199  0.37055  0.97440  Biso   1.000  C
  C509     1.0000 0.37945  0.28199  0.22440  Biso   1.000  C
  C510     1.0000 0.46801  0.62945  0.47440  Biso   1.000  C
  C511     1.0000 0.62055  0.21801  0.22440  Biso   1.000  C
  C512     1.0000 0.53199  0.87055  0.47440  Biso   1.000  C
  H497     1.0000 0.14080  0.23010  0.26120  Biso   1.000  H
  H498     1.0000 0.51990  0.39080  0.51120  Biso   1.000  H
  H499     1.0000 0.85920  0.26990  0.26120  Biso   1.000  H
  H500     1.0000 0.48010  0.10920  0.51120  Biso   1.000  H
  H501     1.0000 0.64080  0.73010  0.76120  Biso   1.000  H
  H502     1.0000 0.01990  0.89080  0.01120  Biso   1.000  H
  H503     1.0000 0.35920  0.76990  0.76120  Biso   1.000  H
  H504     1.0000 0.98010  0.60920  0.01120  Biso   1.000  H
  H505     1.0000 0.85920  0.76990  0.73880  Biso   1.000  H
  H506     1.0000 0.98010  0.10920  0.98880  Biso   1.000  H
  H507     1.0000 0.14080  0.73010  0.73880  Biso   1.000  H
  H508     1.0000 0.01990  0.39080  0.98880  Biso   1.000  H
  H509     1.0000 0.35920  0.26990  0.23880  Biso   1.000  H
  H510     1.0000 0.48010  0.60920  0.48880  Biso   1.000  H
  H511     1.0000 0.64080  0.23010  0.23880  Biso   1.000  H
  H512     1.0000 0.51990  0.89080  0.48880  Biso   1.000  H
  C513     1.0000 0.23379  0.02073  0.26050  Biso   1.000  C
  C514     1.0000 0.72927  0.48379  0.51050  Biso   1.000  C
  C515     1.0000 0.76621  0.47927  0.26050  Biso   1.000  C
  C516     1.0000 0.27073  0.01621  0.51050  Biso   1.000  C
  C517     1.0000 0.73379  0.52073  0.76050  Biso   1.000  C
  C518     1.0000 0.22927  0.98379  0.01050  Biso   1.000  C
  C519     1.0000 0.26621  0.97927  0.76050  Biso   1.000  C
  C520     1.0000 0.77073  0.51621  0.01050  Biso   1.000  C
  C521     1.0000 0.76621  0.97927  0.73950  Biso   1.000  C
  C522     1.0000 0.77073  0.01621  0.98950  Biso   1.000  C
  C523     1.0000 0.23379  0.52073  0.73950  Biso   1.000  C
  C524     1.0000 0.22927  0.48379  0.98950  Biso   1.000  C
  C525     1.0000 0.26621  0.47927  0.23950  Biso   1.000  C
  C526     1.0000 0.27073  0.51621  0.48950  Biso   1.000  C
  C527     1.0000 0.73379  0.02073  0.23950  Biso   1.000  C
  C528     1.0000 0.72927  0.98379  0.48950  Biso   1.000  C
  H513     1.0000 0.24630  0.00790  0.29790  Biso   1.000  H
  H514     1.0000 0.74210  0.49630  0.54790  Biso   1.000  H
  H515     1.0000 0.75370  0.49210  0.29790  Biso   1.000  H
  H516     1.0000 0.25790  0.00370  0.54790  Biso   1.000  H
  H517     1.0000 0.74630  0.50790  0.79790  Biso   1.000  H
  H518     1.0000 0.24210  0.99630  0.04790  Biso   1.000  H
  H519     1.0000 0.25370  0.99210  0.79790  Biso   1.000  H
  H520     1.0000 0.75790  0.50370  0.04790  Biso   1.000  H
  H521     1.0000 0.75370  0.99210  0.70210  Biso   1.000  H
  H522     1.0000 0.75790  0.00370  0.95210  Biso   1.000  H
  H523     1.0000 0.24630  0.50790  0.70210  Biso   1.000  H
  H524     1.0000 0.24210  0.49630  0.95210  Biso   1.000  H
  H525     1.0000 0.25370  0.49210  0.20210  Biso   1.000  H
  H526     1.0000 0.25790  0.50370  0.45210  Biso   1.000  H
  H527     1.0000 0.74630  0.00790  0.20210  Biso   1.000  H
  H528     1.0000 0.74210  0.99630  0.45210  Biso   1.000  H
  C529     1.0000 0.28457  0.26307  0.94750  Biso   1.000  C
  C530     1.0000 0.48693  0.53457  0.19750  Biso   1.000  C
  C531     1.0000 0.71543  0.23693  0.94750  Biso   1.000  C
  C532     1.0000 0.51307  0.96543  0.19750  Biso   1.000  C
  C533     1.0000 0.78457  0.76307  0.44750  Biso   1.000  C
  C534     1.0000 0.98693  0.03457  0.69750  Biso   1.000  C
  C535     1.0000 0.21543  0.73693  0.44750  Biso   1.000  C
  C536     1.0000 0.01307  0.46543  0.69750  Biso   1.000  C
  C537     1.0000 0.71543  0.73693  0.05250  Biso   1.000  C
  C538     1.0000 0.01307  0.96543  0.30250  Biso   1.000  C
  C539     1.0000 0.28457  0.76307  0.05250  Biso   1.000  C
  C540     1.0000 0.98693  0.53457  0.30250  Biso   1.000  C
  C541     1.0000 0.21543  0.23693  0.55250  Biso   1.000  C
  C542     1.0000 0.51307  0.46543  0.80250  Biso   1.000  C
  C543     1.0000 0.78457  0.26307  0.55250  Biso   1.000  C
  C544     1.0000 0.48693  0.03457  0.80250  Biso   1.000  C
  H529     1.0000 0.26470  0.25390  0.92300  Biso   1.000  H
  H530     1.0000 0.49610  0.51470  0.17300  Biso   1.000  H
  H531     1.0000 0.73530  0.24610  0.92300  Biso   1.000  H
  H532     1.0000 0.50390  0.98530  0.17300  Biso   1.000  H
  H533     1.0000 0.76470  0.75390  0.42300  Biso   1.000  H
  H534     1.0000 0.99610  0.01470  0.67300  Biso   1.000  H
  H535     1.0000 0.23530  0.74610  0.42300  Biso   1.000  H
  H536     1.0000 0.00390  0.48530  0.67300  Biso   1.000  H
  H537     1.0000 0.73530  0.74610  0.07700  Biso   1.000  H
  H538     1.0000 0.00390  0.98530  0.32700  Biso   1.000  H
  H539     1.0000 0.26470  0.75390  0.07700  Biso   1.000  H
  H540     1.0000 0.99610  0.51470  0.32700  Biso   1.000  H
  H541     1.0000 0.23530  0.24610  0.57700  Biso   1.000  H
  H542     1.0000 0.50390  0.48530  0.82700  Biso   1.000  H
  H543     1.0000 0.76470  0.25390  0.57700  Biso   1.000  H
  H544     1.0000 0.49610  0.01470  0.82700  Biso   1.000  H
  C545     1.0000 0.19185  0.28602  0.92000  Biso   1.000  C
  C546     1.0000 0.46398  0.44185  0.17000  Biso   1.000  C
  C547     1.0000 0.80815  0.21398  0.92000  Biso   1.000  C
  C548     1.0000 0.53602  0.05815  0.17000  Biso   1.000  C
  C549     1.0000 0.69185  0.78602  0.42000  Biso   1.000  C
  C550     1.0000 0.96398  0.94185  0.67000  Biso   1.000  C
  C551     1.0000 0.30815  0.71398  0.42000  Biso   1.000  C
  C552     1.0000 0.03602  0.55815  0.67000  Biso   1.000  C
  C553     1.0000 0.80815  0.71398  0.08000  Biso   1.000  C
  C554     1.0000 0.03602  0.05815  0.33000  Biso   1.000  C
  C555     1.0000 0.19185  0.78602  0.08000  Biso   1.000  C
  C556     1.0000 0.96398  0.44185  0.33000  Biso   1.000  C
  C557     1.0000 0.30815  0.21398  0.58000  Biso   1.000  C
  C558     1.0000 0.53602  0.55815  0.83000  Biso   1.000  C
  C559     1.0000 0.69185  0.28602  0.58000  Biso   1.000  C
  C560     1.0000 0.46398  0.94185  0.83000  Biso   1.000  C
  H545     1.0000 0.19140  0.26270  0.90360  Biso   1.000  H
  H546     1.0000 0.48730  0.44140  0.15360  Biso   1.000  H
  H547     1.0000 0.80860  0.23730  0.90360  Biso   1.000  H
  H548     1.0000 0.51270  0.05860  0.15360  Biso   1.000  H
  H549     1.0000 0.69140  0.76270  0.40360  Biso   1.000  H
  H550     1.0000 0.98730  0.94140  0.65360  Biso   1.000  H
  H551     1.0000 0.30860  0.73730  0.40360  Biso   1.000  H
  H552     1.0000 0.01270  0.55860  0.65360  Biso   1.000  H
  H553     1.0000 0.80860  0.73730  0.09640  Biso   1.000  H
  H554     1.0000 0.01270  0.05860  0.34640  Biso   1.000  H
  H555     1.0000 0.19140  0.76270  0.09640  Biso   1.000  H
  H556     1.0000 0.98730  0.44140  0.34640  Biso   1.000  H
  H557     1.0000 0.30860  0.23730  0.59640  Biso   1.000  H
  H558     1.0000 0.51270  0.55860  0.84640  Biso   1.000  H
  H559     1.0000 0.69140  0.26270  0.59640  Biso   1.000  H
  H560     1.0000 0.48730  0.94140  0.84640  Biso   1.000  H
  C561     1.0000 0.09634  0.23268  0.32770  Biso   1.000  C
  C562     1.0000 0.51732  0.34634  0.57770  Biso   1.000  C
  C563     1.0000 0.90366  0.26732  0.32770  Biso   1.000  C
  C564     1.0000 0.48268  0.15366  0.57770  Biso   1.000  C
  C565     1.0000 0.59634  0.73268  0.82770  Biso   1.000  C
  C566     1.0000 0.01732  0.84634  0.07770  Biso   1.000  C
  C567     1.0000 0.40366  0.76732  0.82770  Biso   1.000  C
  C568     1.0000 0.98268  0.65366  0.07770  Biso   1.000  C
  C569     1.0000 0.90366  0.76732  0.67230  Biso   1.000  C
  C570     1.0000 0.98268  0.15366  0.92230  Biso   1.000  C
  C571     1.0000 0.09634  0.73268  0.67230  Biso   1.000  C
  C572     1.0000 0.01732  0.34634  0.92230  Biso   1.000  C
  C573     1.0000 0.40366  0.26732  0.17230  Biso   1.000  C
  C574     1.0000 0.48268  0.65366  0.42230  Biso   1.000  C
  C575     1.0000 0.59634  0.23268  0.17230  Biso   1.000  C
  C576     1.0000 0.51732  0.84634  0.42230  Biso   1.000  C
  H561     1.0000 0.10120  0.25500  0.34740  Biso   1.000  H
  H562     1.0000 0.49500  0.35120  0.59740  Biso   1.000  H
  H563     1.0000 0.89880  0.24500  0.34740  Biso   1.000  H
  H564     1.0000 0.50500  0.14880  0.59740  Biso   1.000  H
  H565     1.0000 0.60120  0.75500  0.84740  Biso   1.000  H
  H566     1.0000 0.99500  0.85120  0.09740  Biso   1.000  H
  H567     1.0000 0.39880  0.74500  0.84740  Biso   1.000  H
  H568     1.0000 0.00500  0.64880  0.09740  Biso   1.000  H
  H569     1.0000 0.89880  0.74500  0.65260  Biso   1.000  H
  H570     1.0000 0.00500  0.14880  0.90260  Biso   1.000  H
  H571     1.0000 0.10120  0.75500  0.65260  Biso   1.000  H
  H572     1.0000 0.99500  0.35120  0.90260  Biso   1.000  H
  H573     1.0000 0.39880  0.24500  0.15260  Biso   1.000  H
  H574     1.0000 0.50500  0.64880  0.40260  Biso   1.000  H
  H575     1.0000 0.60120  0.25500  0.15260  Biso   1.000  H
  H576     1.0000 0.49500  0.85120  0.40260  Biso   1.000  H
  N289     1.0000 0.19302  0.34703  0.88310  Biso   1.000  N
  N290     1.0000 0.40297  0.44302  0.13310  Biso   1.000  N
  N291     1.0000 0.80698  0.15297  0.88310  Biso   1.000  N
  N292     1.0000 0.59703  0.05698  0.13310  Biso   1.000  N
  N293     1.0000 0.69302  0.84703  0.38310  Biso   1.000  N
  N294     1.0000 0.90297  0.94302  0.63310  Biso   1.000  N
  N295     1.0000 0.30698  0.65297  0.38310  Biso   1.000  N
  N296     1.0000 0.09703  0.55698  0.63310  Biso   1.000  N
  N297     1.0000 0.80698  0.65297  0.11690  Biso   1.000  N
  N298     1.0000 0.09703  0.05698  0.36690  Biso   1.000  N
  N299     1.0000 0.19302  0.84703  0.11690  Biso   1.000  N
  N300     1.0000 0.90297  0.44302  0.36690  Biso   1.000  N
  N301     1.0000 0.30698  0.15297  0.61690  Biso   1.000  N
  N302     1.0000 0.59703  0.55698  0.86690  Biso   1.000  N
  N303     1.0000 0.69302  0.34703  0.61690  Biso   1.000  N
  N304     1.0000 0.40297  0.94302  0.86690  Biso   1.000  N
  C577     1.0000 0.19260  0.31296  0.86520  Biso   1.000  C
  C578     1.0000 0.43704  0.44260  0.11520  Biso   1.000  C
  C579     1.0000 0.80740  0.18704  0.86520  Biso   1.000  C
  C580     1.0000 0.56296  0.05740  0.11520  Biso   1.000  C
  C581     1.0000 0.69260  0.81296  0.36520  Biso   1.000  C
  C582     1.0000 0.93704  0.94260  0.61520  Biso   1.000  C
  C583     1.0000 0.30740  0.68704  0.36520  Biso   1.000  C
  C584     1.0000 0.06296  0.55740  0.61520  Biso   1.000  C
  C585     1.0000 0.80740  0.68704  0.13480  Biso   1.000  C
  C586     1.0000 0.06296  0.05740  0.38480  Biso   1.000  C
  C587     1.0000 0.19260  0.81296  0.13480  Biso   1.000  C
  C588     1.0000 0.93704  0.44260  0.38480  Biso   1.000  C
  C589     1.0000 0.30740  0.18704  0.63480  Biso   1.000  C
  C590     1.0000 0.56296  0.55740  0.88480  Biso   1.000  C
  C591     1.0000 0.69260  0.31296  0.63480  Biso   1.000  C
  C592     1.0000 0.43704  0.94260  0.88480  Biso   1.000  C
  H577     1.0000 0.19280  0.30680  0.81210  Biso   1.000  H
  H578     1.0000 0.44320  0.44280  0.06210  Biso   1.000  H
  H579     1.0000 0.80720  0.19320  0.81210  Biso   1.000  H
  H580     1.0000 0.55680  0.05720  0.06210  Biso   1.000  H
  H581     1.0000 0.69280  0.80680  0.31210  Biso   1.000  H
  H582     1.0000 0.94320  0.94280  0.56210  Biso   1.000  H
  H583     1.0000 0.30720  0.69320  0.31210  Biso   1.000  H
  H584     1.0000 0.05680  0.55720  0.56210  Biso   1.000  H
  H585     1.0000 0.80720  0.69320  0.18790  Biso   1.000  H
  H586     1.0000 0.05680  0.05720  0.43790  Biso   1.000  H
  H587     1.0000 0.19280  0.80680  0.18790  Biso   1.000  H
  H588     1.0000 0.94320  0.44280  0.43790  Biso   1.000  H
  H589     1.0000 0.30720  0.19320  0.68790  Biso   1.000  H
  H590     1.0000 0.55680  0.55720  0.93790  Biso   1.000  H
  H591     1.0000 0.69280  0.30680  0.68790  Biso   1.000  H
  H592     1.0000 0.44320  0.94280  0.93790  Biso   1.000  H
  C593     1.0000 0.19217  0.35404  0.95760  Biso   1.000  C
  C594     1.0000 0.39596  0.44217  0.20760  Biso   1.000  C
  C595     1.0000 0.80783  0.14596  0.95760  Biso   1.000  C
  C596     1.0000 0.60404  0.05783  0.20760  Biso   1.000  C
  C597     1.0000 0.69217  0.85404  0.45760  Biso   1.000  C
  C598     1.0000 0.89596  0.94217  0.70760  Biso   1.000  C
  C599     1.0000 0.30783  0.64596  0.45760  Biso   1.000  C
  C600     1.0000 0.10404  0.55783  0.70760  Biso   1.000  C
  C601     1.0000 0.80783  0.64596  0.04240  Biso   1.000  C
  C602     1.0000 0.10404  0.05783  0.29240  Biso   1.000  C
  C603     1.0000 0.19217  0.85404  0.04240  Biso   1.000  C
  C604     1.0000 0.89596  0.44217  0.29240  Biso   1.000  C
  C605     1.0000 0.30783  0.14596  0.54240  Biso   1.000  C
  C606     1.0000 0.60404  0.55783  0.79240  Biso   1.000  C
  C607     1.0000 0.69217  0.35404  0.54240  Biso   1.000  C
  C608     1.0000 0.39596  0.94217  0.79240  Biso   1.000  C
  H593     1.0000 0.19170  0.37770  0.97200  Biso   1.000  H
  H594     1.0000 0.37230  0.44170  0.22200  Biso   1.000  H
  H595     1.0000 0.80830  0.12230  0.97200  Biso   1.000  H
  H596     1.0000 0.62770  0.05830  0.22200  Biso   1.000  H
  H597     1.0000 0.69170  0.87770  0.47200  Biso   1.000  H
  H598     1.0000 0.87230  0.94170  0.72200  Biso   1.000  H
  H599     1.0000 0.30830  0.62230  0.47200  Biso   1.000  H
  H600     1.0000 0.12770  0.55830  0.72200  Biso   1.000  H
  H601     1.0000 0.80830  0.62230  0.02800  Biso   1.000  H
  H602     1.0000 0.12770  0.05830  0.27800  Biso   1.000  H
  H603     1.0000 0.19170  0.87770  0.02800  Biso   1.000  H
  H604     1.0000 0.87230  0.44170  0.27800  Biso   1.000  H
  H605     1.0000 0.30830  0.12230  0.52800  Biso   1.000  H
  H606     1.0000 0.62770  0.55830  0.77800  Biso   1.000  H
  H607     1.0000 0.69170  0.37770  0.52800  Biso   1.000  H
  H608     1.0000 0.37230  0.94170  0.77800  Biso   1.000  H
  C609     1.0000 0.08283  0.16773  0.27050  Biso   1.000  C
  C610     1.0000 0.58227  0.33283  0.52050  Biso   1.000  C
  C611     1.0000 0.91717  0.33227  0.27050  Biso   1.000  C
  C612     1.0000 0.41773  0.16717  0.52050  Biso   1.000  C
  C613     1.0000 0.58283  0.66773  0.77050  Biso   1.000  C
  C614     1.0000 0.08227  0.83283  0.02050  Biso   1.000  C
  C615     1.0000 0.41717  0.83227  0.77050  Biso   1.000  C
  C616     1.0000 0.91773  0.66717  0.02050  Biso   1.000  C
  C617     1.0000 0.91717  0.83227  0.72950  Biso   1.000  C
  C618     1.0000 0.91773  0.16717  0.97950  Biso   1.000  C
  C619     1.0000 0.08283  0.66773  0.72950  Biso   1.000  C
  C620     1.0000 0.08227  0.33283  0.97950  Biso   1.000  C
  C621     1.0000 0.41717  0.33227  0.22950  Biso   1.000  C
  C622     1.0000 0.41773  0.66717  0.47950  Biso   1.000  C
  C623     1.0000 0.58283  0.16773  0.22950  Biso   1.000  C
  C624     1.0000 0.58227  0.83283  0.47950  Biso   1.000  C
  H609     1.0000 0.07740  0.14530  0.25250  Biso   1.000  H
  H610     1.0000 0.60470  0.32740  0.50250  Biso   1.000  H
  H611     1.0000 0.92260  0.35470  0.25250  Biso   1.000  H
  H612     1.0000 0.39530  0.17260  0.50250  Biso   1.000  H
  H613     1.0000 0.57740  0.64530  0.75250  Biso   1.000  H
  H614     1.0000 0.10470  0.82740  0.00250  Biso   1.000  H
  H615     1.0000 0.42260  0.85470  0.75250  Biso   1.000  H
  H616     1.0000 0.89530  0.67260  0.00250  Biso   1.000  H
  H617     1.0000 0.92260  0.85470  0.74750  Biso   1.000  H
  H618     1.0000 0.89530  0.17260  0.99750  Biso   1.000  H
  H619     1.0000 0.07740  0.64530  0.74750  Biso   1.000  H
  H620     1.0000 0.10470  0.32740  0.99750  Biso   1.000  H
  H621     1.0000 0.42260  0.35470  0.24750  Biso   1.000  H
  H622     1.0000 0.39530  0.67260  0.49750  Biso   1.000  H
  H623     1.0000 0.57740  0.14530  0.24750  Biso   1.000  H
  H624     1.0000 0.60470  0.82740  0.49750  Biso   1.000  H
  C625     1.0000 0.06122  0.18500  0.32180  Biso   1.000  C
  C626     1.0000 0.56500  0.31122  0.57180  Biso   1.000  C
  C627     1.0000 0.93878  0.31500  0.32180  Biso   1.000  C
  C628     1.0000 0.43500  0.18878  0.57180  Biso   1.000  C
  C629     1.0000 0.56122  0.68500  0.82180  Biso   1.000  C
  C630     1.0000 0.06500  0.81122  0.07180  Biso   1.000  C
  C631     1.0000 0.43878  0.81500  0.82180  Biso   1.000  C
  C632     1.0000 0.93500  0.68878  0.07180  Biso   1.000  C
  C633     1.0000 0.93878  0.81500  0.67820  Biso   1.000  C
  C634     1.0000 0.93500  0.18878  0.92820  Biso   1.000  C
  C635     1.0000 0.06122  0.68500  0.67820  Biso   1.000  C
  C636     1.0000 0.06500  0.31122  0.92820  Biso   1.000  C
  C637     1.0000 0.43878  0.31500  0.17820  Biso   1.000  C
  C638     1.0000 0.43500  0.68878  0.42820  Biso   1.000  C
  C639     1.0000 0.56122  0.18500  0.17820  Biso   1.000  C
  C640     1.0000 0.56500  0.81122  0.42820  Biso   1.000  C
  H625     1.0000 0.04080  0.17350  0.33760  Biso   1.000  H
  H626     1.0000 0.57650  0.29080  0.58760  Biso   1.000  H
  H627     1.0000 0.95920  0.32650  0.33760  Biso   1.000  H
  H628     1.0000 0.42350  0.20920  0.58760  Biso   1.000  H
  H629     1.0000 0.54080  0.67350  0.83760  Biso   1.000  H
  H630     1.0000 0.07650  0.79080  0.08760  Biso   1.000  H
  H631     1.0000 0.45920  0.82650  0.83760  Biso   1.000  H
  H632     1.0000 0.92350  0.70920  0.08760  Biso   1.000  H
  H633     1.0000 0.95920  0.82650  0.66240  Biso   1.000  H
  H634     1.0000 0.92350  0.20920  0.91240  Biso   1.000  H
  H635     1.0000 0.04080  0.67350  0.66240  Biso   1.000  H
  H636     1.0000 0.07650  0.29080  0.91240  Biso   1.000  H
  H637     1.0000 0.45920  0.32650  0.16240  Biso   1.000  H
  H638     1.0000 0.42350  0.70920  0.41240  Biso   1.000  H
  H639     1.0000 0.54080  0.17350  0.16240  Biso   1.000  H
  H640     1.0000 0.57650  0.79080  0.41240  Biso   1.000  H
  N305     1.0000 0.06725  0.21730  0.35120  Biso   1.000  N
  N306     1.0000 0.53270  0.31725  0.60120  Biso   1.000  N
  N307     1.0000 0.93275  0.28270  0.35120  Biso   1.000  N
  N308     1.0000 0.46730  0.18275  0.60120  Biso   1.000  N
  N309     1.0000 0.56725  0.71730  0.85120  Biso   1.000  N
  N310     1.0000 0.03270  0.81725  0.10120  Biso   1.000  N
  N311     1.0000 0.43275  0.78270  0.85120  Biso   1.000  N
  N312     1.0000 0.96730  0.68275  0.10120  Biso   1.000  N
  N313     1.0000 0.93275  0.78270  0.64880  Biso   1.000  N
  N314     1.0000 0.96730  0.18275  0.89880  Biso   1.000  N
  N315     1.0000 0.06725  0.71730  0.64880  Biso   1.000  N
  N316     1.0000 0.03270  0.31725  0.89880  Biso   1.000  N
  N317     1.0000 0.43275  0.28270  0.14880  Biso   1.000  N
  N318     1.0000 0.46730  0.68275  0.39880  Biso   1.000  N
  N319     1.0000 0.56725  0.21730  0.14880  Biso   1.000  N
  N320     1.0000 0.53270  0.81725  0.39880  Biso   1.000  N
