data_image0
_cell_length_a       25.734
_cell_length_b       25.734
_cell_length_c       15.573
_cell_angle_alpha    90
_cell_angle_beta     90
_cell_angle_gamma    120

_symmetry_space_group_name_H-M    "P 1"
_symmetry_int_tables_number       1

loop_
  _symmetry_equiv_pos_as_xyz
  'x, y, z'

loop_
  _atom_site_label
  _atom_site_occupancy
  _atom_site_fract_x
  _atom_site_fract_y
  _atom_site_fract_z
  _atom_site_thermal_displace_type
  _atom_site_B_iso_or_equiv
  _atom_site_type_symbol
  Cu1      1.0000 0.07066  0.33396  0.82530  Biso   1.000  Cu
  Cu2      1.0000 0.92934  0.66604  0.32530  Biso   1.000  Cu
  Cu3      1.0000 0.66604  0.73670  0.49197  Biso   1.000  Cu
  Cu4      1.0000 0.26330  0.92934  0.15863  Biso   1.000  Cu
  Cu5      1.0000 0.73670  0.07066  0.65863  Biso   1.000  Cu
  Cu6      1.0000 0.33396  0.26330  0.99197  Biso   1.000  Cu
  Cu7      1.0000 0.85174  0.20716  0.73492  Biso   1.000  Cu
  Cu8      1.0000 0.14826  0.79284  0.23492  Biso   1.000  Cu
  Cu9      1.0000 0.79284  0.64458  0.40159  Biso   1.000  Cu
  Cu10     1.0000 0.35542  0.14826  0.06825  Biso   1.000  Cu
  Cu11     1.0000 0.64458  0.85174  0.56825  Biso   1.000  Cu
  Cu12     1.0000 0.20716  0.35542  0.90159  Biso   1.000  Cu
  P1       1.0000 0.07501  0.39175  0.93760  Biso   1.000  P
  P2       1.0000 0.92499  0.60825  0.43760  Biso   1.000  P
  P3       1.0000 0.60825  0.68326  0.60427  Biso   1.000  P
  P4       1.0000 0.31674  0.92499  0.27093  Biso   1.000  P
  P5       1.0000 0.68326  0.07501  0.77093  Biso   1.000  P
  P6       1.0000 0.39175  0.31674  0.10427  Biso   1.000  P
  P7       1.0000 0.18912  0.39881  0.01418  Biso   1.000  P
  P8       1.0000 0.81088  0.60119  0.51418  Biso   1.000  P
  P9       1.0000 0.60119  0.79031  0.68085  Biso   1.000  P
  P10      1.0000 0.20969  0.81088  0.34751  Biso   1.000  P
  P11      1.0000 0.79031  0.18912  0.84751  Biso   1.000  P
  P12      1.0000 0.39881  0.20969  0.18085  Biso   1.000  P
  P13      1.0000 0.12445  0.39152  0.71302  Biso   1.000  P
  P14      1.0000 0.87555  0.60848  0.21302  Biso   1.000  P
  P15      1.0000 0.60848  0.73293  0.37969  Biso   1.000  P
  P16      1.0000 0.26707  0.87555  0.04635  Biso   1.000  P
  P17      1.0000 0.73293  0.12445  0.54635  Biso   1.000  P
  P18      1.0000 0.39152  0.26707  0.87969  Biso   1.000  P
  P19      1.0000 0.24690  0.41633  0.78573  Biso   1.000  P
  P20      1.0000 0.75310  0.58367  0.28573  Biso   1.000  P
  P21      1.0000 0.58367  0.83057  0.45240  Biso   1.000  P
  P22      1.0000 0.16943  0.75310  0.11906  Biso   1.000  P
  P23      1.0000 0.83057  0.24690  0.61906  Biso   1.000  P
  P24      1.0000 0.41633  0.16943  0.95240  Biso   1.000  P
  C1       1.0000 0.93640  0.25700  0.77000  Biso   1.000  C
  C2       1.0000 0.06360  0.74300  0.27000  Biso   1.000  C
  C3       1.0000 0.74300  0.67940  0.43667  Biso   1.000  C
  C4       1.0000 0.32060  0.06360  0.10333  Biso   1.000  C
  C5       1.0000 0.67940  0.93640  0.60333  Biso   1.000  C
  C6       1.0000 0.25700  0.32060  0.93667  Biso   1.000  C
  N1       1.0000 0.98600  0.28450  0.79080  Biso   1.000  N
  N2       1.0000 0.01400  0.71550  0.29080  Biso   1.000  N
  N3       1.0000 0.71550  0.70150  0.45747  Biso   1.000  N
  N4       1.0000 0.29850  0.01400  0.12413  Biso   1.000  N
  N5       1.0000 0.70150  0.98600  0.62413  Biso   1.000  N
  N6       1.0000 0.28450  0.29850  0.95747  Biso   1.000  N
  C7       1.0000 0.09750  0.27130  0.85580  Biso   1.000  C
  C8       1.0000 0.90250  0.72870  0.35580  Biso   1.000  C
  C9       1.0000 0.72870  0.82620  0.52247  Biso   1.000  C
  C10      1.0000 0.17380  0.90250  0.18913  Biso   1.000  C
  C11      1.0000 0.82620  0.09750  0.68913  Biso   1.000  C
  C12      1.0000 0.27130  0.17380  0.02247  Biso   1.000  C
  N7       1.0000 0.12510  0.25840  0.87010  Biso   1.000  N
  N8       1.0000 0.87490  0.74160  0.37010  Biso   1.000  N
  N9       1.0000 0.74160  0.86670  0.53677  Biso   1.000  N
  N10      1.0000 0.13330  0.87490  0.20343  Biso   1.000  N
  N11      1.0000 0.86670  0.12510  0.70343  Biso   1.000  N
  N12      1.0000 0.25840  0.13330  0.03677  Biso   1.000  N
  C13      1.0000 0.05420  0.44800  0.90790  Biso   1.000  C
  C14      1.0000 0.94580  0.55200  0.40790  Biso   1.000  C
  C15      1.0000 0.55200  0.60620  0.57457  Biso   1.000  C
  C16      1.0000 0.39380  0.94580  0.24123  Biso   1.000  C
  C17      1.0000 0.60620  0.05420  0.74123  Biso   1.000  C
  C18      1.0000 0.44800  0.39380  0.07457  Biso   1.000  C
  C19      1.0000 0.08630  0.50830  0.93260  Biso   1.000  C
  C20      1.0000 0.91370  0.49170  0.43260  Biso   1.000  C
  C21      1.0000 0.49170  0.57800  0.59927  Biso   1.000  C
  C22      1.0000 0.42200  0.91370  0.26593  Biso   1.000  C
  C23      1.0000 0.57800  0.08630  0.76593  Biso   1.000  C
  C24      1.0000 0.50830  0.42200  0.09927  Biso   1.000  C
  H1       1.0000 0.12000  0.52100  0.96720  Biso   1.000  H
  H2       1.0000 0.88000  0.47900  0.46720  Biso   1.000  H
  H3       1.0000 0.47900  0.59900  0.63387  Biso   1.000  H
  H4       1.0000 0.40100  0.88000  0.30053  Biso   1.000  H
  H5       1.0000 0.59900  0.12000  0.80053  Biso   1.000  H
  H6       1.0000 0.52100  0.40100  0.13387  Biso   1.000  H
  C25      1.0000 0.07050  0.54840  0.90860  Biso   1.000  C
  C26      1.0000 0.92950  0.45160  0.40860  Biso   1.000  C
  C27      1.0000 0.45160  0.52210  0.57527  Biso   1.000  C
  C28      1.0000 0.47790  0.92950  0.24193  Biso   1.000  C
  C29      1.0000 0.52210  0.07050  0.74193  Biso   1.000  C
  C30      1.0000 0.54840  0.47790  0.07527  Biso   1.000  C
  H7       1.0000 0.09360  0.58810  0.92630  Biso   1.000  H
  H8       1.0000 0.90640  0.41190  0.42630  Biso   1.000  H
  H9       1.0000 0.41190  0.50550  0.59297  Biso   1.000  H
  H10      1.0000 0.49450  0.90640  0.25963  Biso   1.000  H
  H11      1.0000 0.50550  0.09360  0.75963  Biso   1.000  H
  H12      1.0000 0.58810  0.49450  0.09297  Biso   1.000  H
  C31      1.0000 0.02240  0.53270  0.85980  Biso   1.000  C
  C32      1.0000 0.97760  0.46730  0.35980  Biso   1.000  C
  C33      1.0000 0.46730  0.48970  0.52647  Biso   1.000  C
  C34      1.0000 0.51030  0.97760  0.19313  Biso   1.000  C
  C35      1.0000 0.48970  0.02240  0.69313  Biso   1.000  C
  C36      1.0000 0.53270  0.51030  0.02647  Biso   1.000  C
  H13      1.0000 0.01130  0.56080  0.84430  Biso   1.000  H
  H14      1.0000 0.98870  0.43920  0.34430  Biso   1.000  H
  H15      1.0000 0.43920  0.45050  0.51097  Biso   1.000  H
  H16      1.0000 0.54950  0.98870  0.17763  Biso   1.000  H
  H17      1.0000 0.45050  0.01130  0.67763  Biso   1.000  H
  H18      1.0000 0.56080  0.54950  0.01097  Biso   1.000  H
  C37      1.0000 0.98890  0.47320  0.83250  Biso   1.000  C
  C38      1.0000 0.01110  0.52680  0.33250  Biso   1.000  C
  C39      1.0000 0.52680  0.51570  0.49917  Biso   1.000  C
  C40      1.0000 0.48430  0.01110  0.16583  Biso   1.000  C
  C41      1.0000 0.51570  0.98890  0.66583  Biso   1.000  C
  C42      1.0000 0.47320  0.48430  0.99917  Biso   1.000  C
  H19      1.0000 0.95390  0.45990  0.80070  Biso   1.000  H
  H20      1.0000 0.04610  0.54010  0.30070  Biso   1.000  H
  H21      1.0000 0.54010  0.49400  0.46737  Biso   1.000  H
  H22      1.0000 0.50600  0.04610  0.13403  Biso   1.000  H
  H23      1.0000 0.49400  0.95390  0.63403  Biso   1.000  H
  H24      1.0000 0.45990  0.50600  0.96737  Biso   1.000  H
  C43      1.0000 0.01010  0.43350  0.85490  Biso   1.000  C
  C44      1.0000 0.98990  0.56650  0.35490  Biso   1.000  C
  C45      1.0000 0.56650  0.57660  0.52157  Biso   1.000  C
  C46      1.0000 0.42340  0.98990  0.18823  Biso   1.000  C
  C47      1.0000 0.57660  0.01010  0.68823  Biso   1.000  C
  C48      1.0000 0.43350  0.42340  0.02157  Biso   1.000  C
  H25      1.0000 0.99150  0.39540  0.83040  Biso   1.000  H
  H26      1.0000 0.00850  0.60460  0.33040  Biso   1.000  H
  H27      1.0000 0.60460  0.59610  0.49707  Biso   1.000  H
  H28      1.0000 0.40390  0.00850  0.16373  Biso   1.000  H
  H29      1.0000 0.59610  0.99150  0.66373  Biso   1.000  H
  H30      1.0000 0.39540  0.40390  0.99707  Biso   1.000  H
  C49      1.0000 0.02170  0.35140  0.02410  Biso   1.000  C
  C50      1.0000 0.97830  0.64860  0.52410  Biso   1.000  C
  C51      1.0000 0.64860  0.67030  0.69077  Biso   1.000  C
  C52      1.0000 0.32970  0.97830  0.35743  Biso   1.000  C
  C53      1.0000 0.67030  0.02170  0.85743  Biso   1.000  C
  C54      1.0000 0.35140  0.32970  0.19077  Biso   1.000  C
  C55      1.0000 0.01100  0.38220  0.09070  Biso   1.000  C
  C56      1.0000 0.98900  0.61780  0.59070  Biso   1.000  C
  C57      1.0000 0.61780  0.62880  0.75737  Biso   1.000  C
  C58      1.0000 0.37120  0.98900  0.42403  Biso   1.000  C
  C59      1.0000 0.62880  0.01100  0.92403  Biso   1.000  C
  C60      1.0000 0.38220  0.37120  0.25737  Biso   1.000  C
  H31      1.0000 0.03210  0.42390  0.09190  Biso   1.000  H
  H32      1.0000 0.96790  0.57610  0.59190  Biso   1.000  H
  H33      1.0000 0.57610  0.60820  0.75857  Biso   1.000  H
  H34      1.0000 0.39180  0.96790  0.42523  Biso   1.000  H
  H35      1.0000 0.60820  0.03210  0.92523  Biso   1.000  H
  H36      1.0000 0.42390  0.39180  0.25857  Biso   1.000  H
  C61      1.0000 0.97020  0.35120  0.15290  Biso   1.000  C
  C62      1.0000 0.02980  0.64880  0.65290  Biso   1.000  C
  C63      1.0000 0.64880  0.61900  0.81957  Biso   1.000  C
  C64      1.0000 0.38100  0.02980  0.48623  Biso   1.000  C
  C65      1.0000 0.61900  0.97020  0.98623  Biso   1.000  C
  C66      1.0000 0.35120  0.38100  0.31957  Biso   1.000  C
  H37      1.0000 0.96340  0.37180  0.19670  Biso   1.000  H
  H38      1.0000 0.03660  0.62820  0.69670  Biso   1.000  H
  H39      1.0000 0.62820  0.59160  0.86337  Biso   1.000  H
  H40      1.0000 0.40840  0.03660  0.53003  Biso   1.000  H
  H41      1.0000 0.59160  0.96340  0.03003  Biso   1.000  H
  H42      1.0000 0.37180  0.40840  0.36337  Biso   1.000  H
  C67      1.0000 0.93850  0.28910  0.15130  Biso   1.000  C
  C68      1.0000 0.06150  0.71090  0.65130  Biso   1.000  C
  C69      1.0000 0.71090  0.64940  0.81797  Biso   1.000  C
  C70      1.0000 0.35060  0.06150  0.48463  Biso   1.000  C
  C71      1.0000 0.64940  0.93850  0.98463  Biso   1.000  C
  C72      1.0000 0.28910  0.35060  0.31797  Biso   1.000  C
  H43      1.0000 0.91030  0.26820  0.19390  Biso   1.000  H
  H44      1.0000 0.08970  0.73180  0.69390  Biso   1.000  H
  H45      1.0000 0.73180  0.64210  0.86057  Biso   1.000  H
  H46      1.0000 0.35790  0.08970  0.52723  Biso   1.000  H
  H47      1.0000 0.64210  0.91030  0.02723  Biso   1.000  H
  H48      1.0000 0.26820  0.35790  0.36057  Biso   1.000  H
  C73      1.0000 0.94810  0.25770  0.08730  Biso   1.000  C
  C74      1.0000 0.05190  0.74230  0.58730  Biso   1.000  C
  C75      1.0000 0.74230  0.69040  0.75397  Biso   1.000  C
  C76      1.0000 0.30960  0.05190  0.42063  Biso   1.000  C
  C77      1.0000 0.69040  0.94810  0.92063  Biso   1.000  C
  C78      1.0000 0.25770  0.30960  0.25397  Biso   1.000  C
  H49      1.0000 0.92660  0.21600  0.08650  Biso   1.000  H
  H50      1.0000 0.07340  0.78400  0.58650  Biso   1.000  H
  H51      1.0000 0.78400  0.71060  0.75317  Biso   1.000  H
  H52      1.0000 0.28940  0.07340  0.41983  Biso   1.000  H
  H53      1.0000 0.71060  0.92660  0.91983  Biso   1.000  H
  H54      1.0000 0.21600  0.28940  0.25317  Biso   1.000  H
  C79      1.0000 0.99040  0.28940  0.02430  Biso   1.000  C
  C80      1.0000 0.00960  0.71060  0.52430  Biso   1.000  C
  C81      1.0000 0.71060  0.70100  0.69097  Biso   1.000  C
  C82      1.0000 0.29900  0.00960  0.35763  Biso   1.000  C
  C83      1.0000 0.70100  0.99040  0.85763  Biso   1.000  C
  C84      1.0000 0.28940  0.29900  0.19097  Biso   1.000  C
  H55      1.0000 0.99780  0.26870  0.98160  Biso   1.000  H
  H56      1.0000 0.00220  0.73130  0.48160  Biso   1.000  H
  H57      1.0000 0.73130  0.72910  0.64827  Biso   1.000  H
  H58      1.0000 0.27090  0.00220  0.31493  Biso   1.000  H
  H59      1.0000 0.72910  0.99780  0.81493  Biso   1.000  H
  H60      1.0000 0.26870  0.27090  0.14827  Biso   1.000  H
  C85      1.0000 0.14780  0.43890  0.99090  Biso   1.000  C
  C86      1.0000 0.85220  0.56110  0.49090  Biso   1.000  C
  C87      1.0000 0.56110  0.70890  0.65757  Biso   1.000  C
  C88      1.0000 0.29110  0.85220  0.32423  Biso   1.000  C
  C89      1.0000 0.70890  0.14780  0.82423  Biso   1.000  C
  C90      1.0000 0.43890  0.29110  0.15757  Biso   1.000  C
  H61      1.0000 0.14100  0.45400  0.04430  Biso   1.000  H
  H62      1.0000 0.85900  0.54600  0.54430  Biso   1.000  H
  H63      1.0000 0.54600  0.68700  0.71097  Biso   1.000  H
  H64      1.0000 0.31300  0.85900  0.37763  Biso   1.000  H
  H65      1.0000 0.68700  0.14100  0.87763  Biso   1.000  H
  H66      1.0000 0.45400  0.31300  0.21097  Biso   1.000  H
  H67      1.0000 0.17240  0.47310  0.95450  Biso   1.000  H
  H68      1.0000 0.82760  0.52690  0.45450  Biso   1.000  H
  H69      1.0000 0.52690  0.69930  0.62117  Biso   1.000  H
  H70      1.0000 0.30070  0.82760  0.28783  Biso   1.000  H
  H71      1.0000 0.69930  0.17240  0.78783  Biso   1.000  H
  H72      1.0000 0.47310  0.30070  0.12117  Biso   1.000  H
  C91      1.0000 0.14840  0.34980  0.10430  Biso   1.000  C
  C92      1.0000 0.85160  0.65020  0.60430  Biso   1.000  C
  C93      1.0000 0.65020  0.79860  0.77097  Biso   1.000  C
  C94      1.0000 0.20140  0.85160  0.43763  Biso   1.000  C
  C95      1.0000 0.79860  0.14840  0.93763  Biso   1.000  C
  C96      1.0000 0.34980  0.20140  0.27097  Biso   1.000  C
  C97      1.0000 0.13710  0.37360  0.17970  Biso   1.000  C
  C98      1.0000 0.86290  0.62640  0.67970  Biso   1.000  C
  C99      1.0000 0.62640  0.76350  0.84637  Biso   1.000  C
  C100     1.0000 0.23650  0.86290  0.51303  Biso   1.000  C
  C101     1.0000 0.76350  0.13710  0.01303  Biso   1.000  C
  C102     1.0000 0.37360  0.23650  0.34637  Biso   1.000  C
  H73      1.0000 0.15170  0.41470  0.18430  Biso   1.000  H
  H74      1.0000 0.84830  0.58530  0.68430  Biso   1.000  H
  H75      1.0000 0.58530  0.73700  0.85097  Biso   1.000  H
  H76      1.0000 0.26300  0.84830  0.51763  Biso   1.000  H
  H77      1.0000 0.73700  0.15170  0.01763  Biso   1.000  H
  H78      1.0000 0.41470  0.26300  0.35097  Biso   1.000  H
  C103     1.0000 0.10520  0.33670  0.24480  Biso   1.000  C
  C104     1.0000 0.89480  0.66330  0.74480  Biso   1.000  C
  C105     1.0000 0.66330  0.76850  0.91147  Biso   1.000  C
  C106     1.0000 0.23150  0.89480  0.57813  Biso   1.000  C
  C107     1.0000 0.76850  0.10520  0.07813  Biso   1.000  C
  C108     1.0000 0.33670  0.23150  0.41147  Biso   1.000  C
  H79      1.0000 0.09820  0.35270  0.29410  Biso   1.000  H
  H80      1.0000 0.90180  0.64730  0.79410  Biso   1.000  H
  H81      1.0000 0.64730  0.74550  0.96077  Biso   1.000  H
  H82      1.0000 0.25450  0.90180  0.62743  Biso   1.000  H
  H83      1.0000 0.74550  0.09820  0.12743  Biso   1.000  H
  H84      1.0000 0.35270  0.25450  0.46077  Biso   1.000  H
  C109     1.0000 0.08270  0.27560  0.23970  Biso   1.000  C
  C110     1.0000 0.91730  0.72440  0.73970  Biso   1.000  C
  C111     1.0000 0.72440  0.80710  0.90637  Biso   1.000  C
  C112     1.0000 0.19290  0.91730  0.57303  Biso   1.000  C
  C113     1.0000 0.80710  0.08270  0.07303  Biso   1.000  C
  C114     1.0000 0.27560  0.19290  0.40637  Biso   1.000  C
  H85      1.0000 0.06010  0.25080  0.28470  Biso   1.000  H
  H86      1.0000 0.93990  0.74920  0.78470  Biso   1.000  H
  H87      1.0000 0.74920  0.80930  0.95137  Biso   1.000  H
  H88      1.0000 0.19070  0.93990  0.61803  Biso   1.000  H
  H89      1.0000 0.80930  0.06010  0.11803  Biso   1.000  H
  H90      1.0000 0.25080  0.19070  0.45137  Biso   1.000  H
  C115     1.0000 0.09390  0.25020  0.16520  Biso   1.000  C
  C116     1.0000 0.90610  0.74980  0.66520  Biso   1.000  C
  C117     1.0000 0.74980  0.84370  0.83187  Biso   1.000  C
  C118     1.0000 0.15630  0.90610  0.49853  Biso   1.000  C
  C119     1.0000 0.84370  0.09390  0.99853  Biso   1.000  C
  C120     1.0000 0.25020  0.15630  0.33187  Biso   1.000  C
  H91      1.0000 0.08060  0.20940  0.16070  Biso   1.000  H
  H92      1.0000 0.91940  0.79060  0.66070  Biso   1.000  H
  H93      1.0000 0.79060  0.87120  0.82737  Biso   1.000  H
  H94      1.0000 0.12880  0.91940  0.49403  Biso   1.000  H
  H95      1.0000 0.87120  0.08060  0.99403  Biso   1.000  H
  H96      1.0000 0.20940  0.12880  0.32737  Biso   1.000  H
  C121     1.0000 0.12580  0.29030  0.10010  Biso   1.000  C
  C122     1.0000 0.87420  0.70970  0.60010  Biso   1.000  C
  C123     1.0000 0.70970  0.83550  0.76677  Biso   1.000  C
  C124     1.0000 0.16450  0.87420  0.43343  Biso   1.000  C
  C125     1.0000 0.83550  0.12580  0.93343  Biso   1.000  C
  C126     1.0000 0.29030  0.16450  0.26677  Biso   1.000  C
  H97      1.0000 0.13210  0.27480  0.04980  Biso   1.000  H
  H98      1.0000 0.86790  0.72520  0.54980  Biso   1.000  H
  H99      1.0000 0.72520  0.85730  0.71647  Biso   1.000  H
  H100     1.0000 0.14270  0.86790  0.38313  Biso   1.000  H
  H101     1.0000 0.85730  0.13210  0.88313  Biso   1.000  H
  H102     1.0000 0.27480  0.14270  0.21647  Biso   1.000  H
  C127     1.0000 0.25730  0.45790  0.06530  Biso   1.000  C
  C128     1.0000 0.74270  0.54210  0.56530  Biso   1.000  C
  C129     1.0000 0.54210  0.79940  0.73197  Biso   1.000  C
  C130     1.0000 0.20060  0.74270  0.39863  Biso   1.000  C
  C131     1.0000 0.79940  0.25730  0.89863  Biso   1.000  C
  C132     1.0000 0.45790  0.20060  0.23197  Biso   1.000  C
  C133     1.0000 0.27690  0.51790  0.05700  Biso   1.000  C
  C134     1.0000 0.72310  0.48210  0.55700  Biso   1.000  C
  C135     1.0000 0.48210  0.75900  0.72367  Biso   1.000  C
  C136     1.0000 0.24100  0.72310  0.39033  Biso   1.000  C
  C137     1.0000 0.75900  0.27690  0.89033  Biso   1.000  C
  C138     1.0000 0.51790  0.24100  0.22367  Biso   1.000  C
  H103     1.0000 0.25300  0.52990  0.02800  Biso   1.000  H
  H104     1.0000 0.74700  0.47010  0.52800  Biso   1.000  H
  H105     1.0000 0.47010  0.72310  0.69467  Biso   1.000  H
  H106     1.0000 0.27690  0.74700  0.36133  Biso   1.000  H
  H107     1.0000 0.72310  0.25300  0.86133  Biso   1.000  H
  H108     1.0000 0.52990  0.27690  0.19467  Biso   1.000  H
  C139     1.0000 0.33110  0.56110  0.09050  Biso   1.000  C
  C140     1.0000 0.66890  0.43890  0.59050  Biso   1.000  C
  C141     1.0000 0.43890  0.77000  0.75717  Biso   1.000  C
  C142     1.0000 0.23000  0.66890  0.42383  Biso   1.000  C
  C143     1.0000 0.77000  0.33110  0.92383  Biso   1.000  C
  C144     1.0000 0.56110  0.23000  0.25717  Biso   1.000  C
  H109     1.0000 0.34380  0.60160  0.08390  Biso   1.000  H
  H110     1.0000 0.65620  0.39840  0.58390  Biso   1.000  H
  H111     1.0000 0.39840  0.74220  0.75057  Biso   1.000  H
  H112     1.0000 0.25780  0.65620  0.41723  Biso   1.000  H
  H113     1.0000 0.74220  0.34380  0.91723  Biso   1.000  H
  H114     1.0000 0.60160  0.25780  0.25057  Biso   1.000  H
  C145     1.0000 0.36710  0.54260  0.13550  Biso   1.000  C
  C146     1.0000 0.63290  0.45740  0.63550  Biso   1.000  C
  C147     1.0000 0.45740  0.82450  0.80217  Biso   1.000  C
  C148     1.0000 0.17550  0.63290  0.46883  Biso   1.000  C
  C149     1.0000 0.82450  0.36710  0.96883  Biso   1.000  C
  C150     1.0000 0.54260  0.17550  0.30217  Biso   1.000  C
  H115     1.0000 0.40330  0.57050  0.16060  Biso   1.000  H
  H116     1.0000 0.59670  0.42950  0.66060  Biso   1.000  H
  H117     1.0000 0.42950  0.83280  0.82727  Biso   1.000  H
  H118     1.0000 0.16720  0.59670  0.49393  Biso   1.000  H
  H119     1.0000 0.83280  0.40330  0.99393  Biso   1.000  H
  H120     1.0000 0.57050  0.16720  0.32727  Biso   1.000  H
  C151     1.0000 0.34740  0.48390  0.14040  Biso   1.000  C
  C152     1.0000 0.65260  0.51610  0.64040  Biso   1.000  C
  C153     1.0000 0.51610  0.86350  0.80707  Biso   1.000  C
  C154     1.0000 0.13650  0.65260  0.47373  Biso   1.000  C
  C155     1.0000 0.86350  0.34740  0.97373  Biso   1.000  C
  C156     1.0000 0.48390  0.13650  0.30707  Biso   1.000  C
  H121     1.0000 0.37070  0.47130  0.16950  Biso   1.000  H
  H122     1.0000 0.62930  0.52870  0.66950  Biso   1.000  H
  H123     1.0000 0.52870  0.89940  0.83617  Biso   1.000  H
  H124     1.0000 0.10060  0.62930  0.50283  Biso   1.000  H
  H125     1.0000 0.89940  0.37070  0.00283  Biso   1.000  H
  H126     1.0000 0.47130  0.10060  0.33617  Biso   1.000  H
  C157     1.0000 0.29430  0.44110  0.10460  Biso   1.000  C
  C158     1.0000 0.70570  0.55890  0.60460  Biso   1.000  C
  C159     1.0000 0.55890  0.85320  0.77127  Biso   1.000  C
  C160     1.0000 0.14680  0.70570  0.43793  Biso   1.000  C
  C161     1.0000 0.85320  0.29430  0.93793  Biso   1.000  C
  C162     1.0000 0.44110  0.14680  0.27127  Biso   1.000  C
  H127     1.0000 0.28350  0.40080  0.10700  Biso   1.000  H
  H128     1.0000 0.71650  0.59920  0.60700  Biso   1.000  H
  H129     1.0000 0.59920  0.88270  0.77367  Biso   1.000  H
  H130     1.0000 0.11730  0.71650  0.44033  Biso   1.000  H
  H131     1.0000 0.88270  0.28350  0.94033  Biso   1.000  H
  H132     1.0000 0.40080  0.11730  0.27367  Biso   1.000  H
  C163     1.0000 0.09540  0.43757  0.66640  Biso   1.000  C
  C164     1.0000 0.90460  0.56243  0.16640  Biso   1.000  C
  C165     1.0000 0.56243  0.65783  0.33307  Biso   1.000  C
  C166     1.0000 0.34217  0.90460  0.99973  Biso   1.000  C
  C167     1.0000 0.65783  0.09540  0.49973  Biso   1.000  C
  C168     1.0000 0.43757  0.34217  0.83307  Biso   1.000  C
  C169     1.0000 0.12107  0.49904  0.67890  Biso   1.000  C
  C170     1.0000 0.87893  0.50096  0.17890  Biso   1.000  C
  C171     1.0000 0.50096  0.62203  0.34557  Biso   1.000  C
  C172     1.0000 0.37797  0.87893  0.01223  Biso   1.000  C
  C173     1.0000 0.62203  0.12107  0.51223  Biso   1.000  C
  C174     1.0000 0.49904  0.37797  0.84557  Biso   1.000  C
  H133     1.0000 0.15580  0.51960  0.71170  Biso   1.000  H
  H134     1.0000 0.84420  0.48040  0.21170  Biso   1.000  H
  H135     1.0000 0.48040  0.63620  0.37837  Biso   1.000  H
  H136     1.0000 0.36380  0.84420  0.04503  Biso   1.000  H
  H137     1.0000 0.63620  0.15580  0.54503  Biso   1.000  H
  H138     1.0000 0.51960  0.36380  0.87837  Biso   1.000  H
  C175     1.0000 0.09490  0.52977  0.64250  Biso   1.000  C
  C176     1.0000 0.90510  0.47023  0.14250  Biso   1.000  C
  C177     1.0000 0.47023  0.56513  0.30917  Biso   1.000  C
  C178     1.0000 0.43487  0.90510  0.97583  Biso   1.000  C
  C179     1.0000 0.56513  0.09490  0.47583  Biso   1.000  C
  C180     1.0000 0.52977  0.43487  0.80917  Biso   1.000  C
  H139     1.0000 0.11210  0.57090  0.65090  Biso   1.000  H
  H140     1.0000 0.88790  0.42910  0.15090  Biso   1.000  H
  H141     1.0000 0.42910  0.54120  0.31757  Biso   1.000  H
  H142     1.0000 0.45880  0.88790  0.98423  Biso   1.000  H
  H143     1.0000 0.54120  0.11210  0.48423  Biso   1.000  H
  H144     1.0000 0.57090  0.45880  0.81757  Biso   1.000  H
  C181     1.0000 0.04310  0.49900  0.59350  Biso   1.000  C
  C182     1.0000 0.95690  0.50100  0.09350  Biso   1.000  C
  C183     1.0000 0.50100  0.54410  0.26017  Biso   1.000  C
  C184     1.0000 0.45590  0.95690  0.92683  Biso   1.000  C
  C185     1.0000 0.54410  0.04310  0.42683  Biso   1.000  C
  C186     1.0000 0.49900  0.45590  0.76017  Biso   1.000  C
  H145     1.0000 0.02560  0.51960  0.56920  Biso   1.000  H
  H146     1.0000 0.97440  0.48040  0.06920  Biso   1.000  H
  H147     1.0000 0.48040  0.50600  0.23587  Biso   1.000  H
  H148     1.0000 0.49400  0.97440  0.90253  Biso   1.000  H
  H149     1.0000 0.50600  0.02560  0.40253  Biso   1.000  H
  H150     1.0000 0.51960  0.49400  0.73587  Biso   1.000  H
  C187     1.0000 0.01740  0.43760  0.58100  Biso   1.000  C
  C188     1.0000 0.98260  0.56240  0.08100  Biso   1.000  C
  C189     1.0000 0.56240  0.57980  0.24767  Biso   1.000  C
  C190     1.0000 0.42020  0.98260  0.91433  Biso   1.000  C
  C191     1.0000 0.57980  0.01740  0.41433  Biso   1.000  C
  C192     1.0000 0.43760  0.42020  0.74767  Biso   1.000  C
  H151     1.0000 0.98270  0.41700  0.54820  Biso   1.000  H
  H152     1.0000 0.01730  0.58300  0.04820  Biso   1.000  H
  H153     1.0000 0.58300  0.56570  0.21487  Biso   1.000  H
  H154     1.0000 0.43430  0.01730  0.88153  Biso   1.000  H
  H155     1.0000 0.56570  0.98270  0.38153  Biso   1.000  H
  H156     1.0000 0.41700  0.43430  0.71487  Biso   1.000  H
  C193     1.0000 0.04350  0.40682  0.61740  Biso   1.000  C
  C194     1.0000 0.95650  0.59318  0.11740  Biso   1.000  C
  C195     1.0000 0.59318  0.63668  0.28407  Biso   1.000  C
  C196     1.0000 0.36332  0.95650  0.95073  Biso   1.000  C
  C197     1.0000 0.63668  0.04350  0.45073  Biso   1.000  C
  C198     1.0000 0.40682  0.36332  0.78407  Biso   1.000  C
  H157     1.0000 0.02640  0.36570  0.60900  Biso   1.000  H
  H158     1.0000 0.97360  0.63430  0.10900  Biso   1.000  H
  H159     1.0000 0.63430  0.66070  0.27567  Biso   1.000  H
  H160     1.0000 0.33930  0.97360  0.94233  Biso   1.000  H
  H161     1.0000 0.66070  0.02640  0.44233  Biso   1.000  H
  H162     1.0000 0.36570  0.33930  0.77567  Biso   1.000  H
  C199     1.0000 0.12960  0.35200  0.61730  Biso   1.000  C
  C200     1.0000 0.87040  0.64800  0.11730  Biso   1.000  C
  C201     1.0000 0.64800  0.77760  0.28397  Biso   1.000  C
  C202     1.0000 0.22240  0.87040  0.95063  Biso   1.000  C
  C203     1.0000 0.77760  0.12960  0.45063  Biso   1.000  C
  C204     1.0000 0.35200  0.22240  0.78397  Biso   1.000  C
  C205     1.0000 0.15130  0.38240  0.53940  Biso   1.000  C
  C206     1.0000 0.84870  0.61760  0.03940  Biso   1.000  C
  C207     1.0000 0.61760  0.76890  0.20607  Biso   1.000  C
  C208     1.0000 0.23110  0.84870  0.87273  Biso   1.000  C
  C209     1.0000 0.76890  0.15130  0.37273  Biso   1.000  C
  C210     1.0000 0.38240  0.23110  0.70607  Biso   1.000  C
  H163     1.0000 0.16300  0.42290  0.53610  Biso   1.000  H
  H164     1.0000 0.83700  0.57710  0.03610  Biso   1.000  H
  H165     1.0000 0.57710  0.74010  0.20277  Biso   1.000  H
  H166     1.0000 0.25990  0.83700  0.86943  Biso   1.000  H
  H167     1.0000 0.74010  0.16300  0.36943  Biso   1.000  H
  H168     1.0000 0.42290  0.25990  0.70277  Biso   1.000  H
  C211     1.0000 0.15580  0.35410  0.46860  Biso   1.000  C
  C212     1.0000 0.84420  0.64590  0.96860  Biso   1.000  C
  C213     1.0000 0.64590  0.80170  0.13527  Biso   1.000  C
  C214     1.0000 0.19830  0.84420  0.80193  Biso   1.000  C
  C215     1.0000 0.80170  0.15580  0.30193  Biso   1.000  C
  C216     1.0000 0.35410  0.19830  0.63527  Biso   1.000  C
  H169     1.0000 0.16870  0.37430  0.41650  Biso   1.000  H
  H170     1.0000 0.83130  0.62570  0.91650  Biso   1.000  H
  H171     1.0000 0.62570  0.79440  0.08317  Biso   1.000  H
  H172     1.0000 0.20560  0.83130  0.74983  Biso   1.000  H
  H173     1.0000 0.79440  0.16870  0.24983  Biso   1.000  H
  H174     1.0000 0.37430  0.20560  0.58317  Biso   1.000  H
  C217     1.0000 0.14050  0.29430  0.47600  Biso   1.000  C
  C218     1.0000 0.85950  0.70570  0.97600  Biso   1.000  C
  C219     1.0000 0.70570  0.84620  0.14267  Biso   1.000  C
  C220     1.0000 0.15380  0.85950  0.80933  Biso   1.000  C
  C221     1.0000 0.84620  0.14050  0.30933  Biso   1.000  C
  C222     1.0000 0.29430  0.15380  0.64267  Biso   1.000  C
  H175     1.0000 0.14520  0.27480  0.42900  Biso   1.000  H
  H176     1.0000 0.85480  0.72520  0.92900  Biso   1.000  H
  H177     1.0000 0.72520  0.87040  0.09567  Biso   1.000  H
  H178     1.0000 0.12960  0.85480  0.76233  Biso   1.000  H
  H179     1.0000 0.87040  0.14520  0.26233  Biso   1.000  H
  H180     1.0000 0.27480  0.12960  0.59567  Biso   1.000  H
  C223     1.0000 0.11870  0.26390  0.55070  Biso   1.000  C
  C224     1.0000 0.88130  0.73610  0.05070  Biso   1.000  C
  C225     1.0000 0.73610  0.85480  0.21737  Biso   1.000  C
  C226     1.0000 0.14520  0.88130  0.88403  Biso   1.000  C
  C227     1.0000 0.85480  0.11870  0.38403  Biso   1.000  C
  C228     1.0000 0.26390  0.14520  0.71737  Biso   1.000  C
  H181     1.0000 0.10820  0.22380  0.55370  Biso   1.000  H
  H182     1.0000 0.89180  0.77620  0.05370  Biso   1.000  H
  H183     1.0000 0.77620  0.88440  0.22037  Biso   1.000  H
  H184     1.0000 0.11560  0.89180  0.88703  Biso   1.000  H
  H185     1.0000 0.88440  0.10820  0.38703  Biso   1.000  H
  H186     1.0000 0.22380  0.11560  0.72037  Biso   1.000  H
  C229     1.0000 0.11190  0.29200  0.62310  Biso   1.000  C
  C230     1.0000 0.88810  0.70800  0.12310  Biso   1.000  C
  C231     1.0000 0.70800  0.81990  0.28977  Biso   1.000  C
  C232     1.0000 0.18010  0.88810  0.95643  Biso   1.000  C
  C233     1.0000 0.81990  0.11190  0.45643  Biso   1.000  C
  C234     1.0000 0.29200  0.18010  0.78977  Biso   1.000  C
  H187     1.0000 0.09580  0.27080  0.67370  Biso   1.000  H
  H188     1.0000 0.90420  0.72920  0.17370  Biso   1.000  H
  H189     1.0000 0.72920  0.82500  0.34037  Biso   1.000  H
  H190     1.0000 0.17500  0.90420  0.00703  Biso   1.000  H
  H191     1.0000 0.82500  0.09580  0.50703  Biso   1.000  H
  H192     1.0000 0.27080  0.17500  0.84037  Biso   1.000  H
  C235     1.0000 0.20340  0.44770  0.73560  Biso   1.000  C
  C236     1.0000 0.79660  0.55230  0.23560  Biso   1.000  C
  C237     1.0000 0.55230  0.75570  0.40227  Biso   1.000  C
  C238     1.0000 0.24430  0.79660  0.06893  Biso   1.000  C
  C239     1.0000 0.75570  0.20340  0.56893  Biso   1.000  C
  C240     1.0000 0.44770  0.24430  0.90227  Biso   1.000  C
  H193     1.0000 0.20430  0.47810  0.77340  Biso   1.000  H
  H194     1.0000 0.79570  0.52190  0.27340  Biso   1.000  H
  H195     1.0000 0.52190  0.72620  0.44007  Biso   1.000  H
  H196     1.0000 0.27380  0.79570  0.10673  Biso   1.000  H
  H197     1.0000 0.72620  0.20430  0.60673  Biso   1.000  H
  H198     1.0000 0.47810  0.27380  0.94007  Biso   1.000  H
  H199     1.0000 0.22270  0.46720  0.68220  Biso   1.000  H
  H200     1.0000 0.77730  0.53280  0.18220  Biso   1.000  H
  H201     1.0000 0.53280  0.75550  0.34887  Biso   1.000  H
  H202     1.0000 0.24450  0.77730  0.01553  Biso   1.000  H
  H203     1.0000 0.75550  0.22270  0.51553  Biso   1.000  H
  H204     1.0000 0.46720  0.24450  0.84887  Biso   1.000  H
  C241     1.0000 0.26630  0.38260  0.69540  Biso   1.000  C
  C242     1.0000 0.73370  0.61740  0.19540  Biso   1.000  C
  C243     1.0000 0.61740  0.88370  0.36207  Biso   1.000  C
  C244     1.0000 0.11630  0.73370  0.02873  Biso   1.000  C
  C245     1.0000 0.88370  0.26630  0.52873  Biso   1.000  C
  C246     1.0000 0.38260  0.11630  0.86207  Biso   1.000  C
  C247     1.0000 0.28760  0.41240  0.61910  Biso   1.000  C
  C248     1.0000 0.71240  0.58760  0.11910  Biso   1.000  C
  C249     1.0000 0.58760  0.87520  0.28577  Biso   1.000  C
  C250     1.0000 0.12480  0.71240  0.95243  Biso   1.000  C
  C251     1.0000 0.87520  0.28760  0.45243  Biso   1.000  C
  C252     1.0000 0.41240  0.12480  0.78577  Biso   1.000  C
  H205     1.0000 0.29250  0.45050  0.61190  Biso   1.000  H
  H206     1.0000 0.70750  0.54950  0.11190  Biso   1.000  H
  H207     1.0000 0.54950  0.84200  0.27857  Biso   1.000  H
  H208     1.0000 0.15800  0.70750  0.94523  Biso   1.000  H
  H209     1.0000 0.84200  0.29250  0.44523  Biso   1.000  H
  H210     1.0000 0.45050  0.15800  0.77857  Biso   1.000  H
  C253     1.0000 0.30190  0.38560  0.55270  Biso   1.000  C
  C254     1.0000 0.69810  0.61440  0.05270  Biso   1.000  C
  C255     1.0000 0.61440  0.91630  0.21937  Biso   1.000  C
  C256     1.0000 0.08370  0.69810  0.88603  Biso   1.000  C
  C257     1.0000 0.91630  0.30190  0.38603  Biso   1.000  C
  C258     1.0000 0.38560  0.08370  0.71937  Biso   1.000  C
  H211     1.0000 0.31560  0.40560  0.50060  Biso   1.000  H
  H212     1.0000 0.68440  0.59440  0.00060  Biso   1.000  H
  H213     1.0000 0.59440  0.91000  0.16727  Biso   1.000  H
  H214     1.0000 0.09000  0.68440  0.83393  Biso   1.000  H
  H215     1.0000 0.91000  0.31560  0.33393  Biso   1.000  H
  H216     1.0000 0.40560  0.09000  0.66727  Biso   1.000  H
  C259     1.0000 0.29580  0.32990  0.56340  Biso   1.000  C
  C260     1.0000 0.70420  0.67010  0.06340  Biso   1.000  C
  C261     1.0000 0.67010  0.96590  0.23007  Biso   1.000  C
  C262     1.0000 0.03410  0.70420  0.89673  Biso   1.000  C
  C263     1.0000 0.96590  0.29580  0.39673  Biso   1.000  C
  C264     1.0000 0.32990  0.03410  0.73007  Biso   1.000  C
  H217     1.0000 0.30670  0.31250  0.51970  Biso   1.000  H
  H218     1.0000 0.69330  0.68750  0.01970  Biso   1.000  H
  H219     1.0000 0.68750  0.99420  0.18637  Biso   1.000  H
  H220     1.0000 0.00580  0.69330  0.85303  Biso   1.000  H
  H221     1.0000 0.99420  0.30670  0.35303  Biso   1.000  H
  H222     1.0000 0.31250  0.00580  0.68637  Biso   1.000  H
  C265     1.0000 0.27340  0.30000  0.64040  Biso   1.000  C
  C266     1.0000 0.72660  0.70000  0.14040  Biso   1.000  C
  C267     1.0000 0.70000  0.97340  0.30707  Biso   1.000  C
  C268     1.0000 0.02660  0.72660  0.97373  Biso   1.000  C
  C269     1.0000 0.97340  0.27340  0.47373  Biso   1.000  C
  C270     1.0000 0.30000  0.02660  0.80707  Biso   1.000  C
  H223     1.0000 0.26770  0.26160  0.64760  Biso   1.000  H
  H224     1.0000 0.73230  0.73840  0.14760  Biso   1.000  H
  H225     1.0000 0.73840  0.00610  0.31427  Biso   1.000  H
  H226     1.0000 0.99390  0.73230  0.98093  Biso   1.000  H
  H227     1.0000 0.00610  0.26770  0.48093  Biso   1.000  H
  H228     1.0000 0.26160  0.99390  0.81427  Biso   1.000  H
  C271     1.0000 0.25960  0.32680  0.70630  Biso   1.000  C
  C272     1.0000 0.74040  0.67320  0.20630  Biso   1.000  C
  C273     1.0000 0.67320  0.93280  0.37297  Biso   1.000  C
  C274     1.0000 0.06720  0.74040  0.03963  Biso   1.000  C
  C275     1.0000 0.93280  0.25960  0.53963  Biso   1.000  C
  C276     1.0000 0.32680  0.06720  0.87297  Biso   1.000  C
  H229     1.0000 0.24570  0.30680  0.75840  Biso   1.000  H
  H230     1.0000 0.75430  0.69320  0.25840  Biso   1.000  H
  H231     1.0000 0.69320  0.93890  0.42507  Biso   1.000  H
  H232     1.0000 0.06110  0.75430  0.09173  Biso   1.000  H
  H233     1.0000 0.93890  0.24570  0.59173  Biso   1.000  H
  H234     1.0000 0.30680  0.06110  0.92507  Biso   1.000  H
  C277     1.0000 0.31780  0.48770  0.80750  Biso   1.000  C
  C278     1.0000 0.68220  0.51230  0.30750  Biso   1.000  C
  C279     1.0000 0.51230  0.83010  0.47417  Biso   1.000  C
  C280     1.0000 0.16990  0.68220  0.14083  Biso   1.000  C
  C281     1.0000 0.83010  0.31780  0.64083  Biso   1.000  C
  C282     1.0000 0.48770  0.16990  0.97417  Biso   1.000  C
  C283     1.0000 0.34660  0.49250  0.88500  Biso   1.000  C
  C284     1.0000 0.65340  0.50750  0.38500  Biso   1.000  C
  C285     1.0000 0.50750  0.85410  0.55167  Biso   1.000  C
  C286     1.0000 0.14590  0.65340  0.21833  Biso   1.000  C
  C287     1.0000 0.85410  0.34660  0.71833  Biso   1.000  C
  C288     1.0000 0.49250  0.14590  0.05167  Biso   1.000  C
  H235     1.0000 0.33160  0.45990  0.92220  Biso   1.000  H
  H236     1.0000 0.66840  0.54010  0.42220  Biso   1.000  H
  H237     1.0000 0.54010  0.87170  0.58887  Biso   1.000  H
  H238     1.0000 0.12830  0.66840  0.25553  Biso   1.000  H
  H239     1.0000 0.87170  0.33160  0.75553  Biso   1.000  H
  H240     1.0000 0.45990  0.12830  0.08887  Biso   1.000  H
  C289     1.0000 0.39770  0.54600  0.90700  Biso   1.000  C
  C290     1.0000 0.60230  0.45400  0.40700  Biso   1.000  C
  C291     1.0000 0.45400  0.85170  0.57367  Biso   1.000  C
  C292     1.0000 0.14830  0.60230  0.24033  Biso   1.000  C
  C293     1.0000 0.85170  0.39770  0.74033  Biso   1.000  C
  C294     1.0000 0.54600  0.14830  0.07367  Biso   1.000  C
  H241     1.0000 0.41690  0.54920  0.95890  Biso   1.000  H
  H242     1.0000 0.58310  0.45080  0.45890  Biso   1.000  H
  H243     1.0000 0.45080  0.86770  0.62557  Biso   1.000  H
  H244     1.0000 0.13230  0.58310  0.29223  Biso   1.000  H
  H245     1.0000 0.86770  0.41690  0.79223  Biso   1.000  H
  H246     1.0000 0.54920  0.13230  0.12557  Biso   1.000  H
  C295     1.0000 0.42000  0.59470  0.85140  Biso   1.000  C
  C296     1.0000 0.58000  0.40530  0.35140  Biso   1.000  C
  C297     1.0000 0.40530  0.82530  0.51807  Biso   1.000  C
  C298     1.0000 0.17470  0.58000  0.18473  Biso   1.000  C
  C299     1.0000 0.82530  0.42000  0.68473  Biso   1.000  C
  C300     1.0000 0.59470  0.17470  0.01807  Biso   1.000  C
  H247     1.0000 0.45420  0.63050  0.86610  Biso   1.000  H
  H248     1.0000 0.54580  0.36950  0.36610  Biso   1.000  H
  H249     1.0000 0.36950  0.82370  0.53277  Biso   1.000  H
  H250     1.0000 0.17630  0.54580  0.19943  Biso   1.000  H
  H251     1.0000 0.82370  0.45420  0.69943  Biso   1.000  H
  H252     1.0000 0.63050  0.17630  0.03277  Biso   1.000  H
  C301     1.0000 0.39120  0.58990  0.77380  Biso   1.000  C
  C302     1.0000 0.60880  0.41010  0.27380  Biso   1.000  C
  C303     1.0000 0.41010  0.80130  0.44047  Biso   1.000  C
  C304     1.0000 0.19870  0.60880  0.10713  Biso   1.000  C
  C305     1.0000 0.80130  0.39120  0.60713  Biso   1.000  C
  C306     1.0000 0.58990  0.19870  0.94047  Biso   1.000  C
  H253     1.0000 0.40620  0.62250  0.73660  Biso   1.000  H
  H254     1.0000 0.59380  0.37750  0.23660  Biso   1.000  H
  H255     1.0000 0.37750  0.78370  0.40327  Biso   1.000  H
  H256     1.0000 0.21630  0.59380  0.06993  Biso   1.000  H
  H257     1.0000 0.78370  0.40620  0.56993  Biso   1.000  H
  H258     1.0000 0.62250  0.21630  0.90327  Biso   1.000  H
  C307     1.0000 0.34010  0.53640  0.75190  Biso   1.000  C
  C308     1.0000 0.65990  0.46360  0.25190  Biso   1.000  C
  C309     1.0000 0.46360  0.80370  0.41857  Biso   1.000  C
  C310     1.0000 0.19630  0.65990  0.08523  Biso   1.000  C
  C311     1.0000 0.80370  0.34010  0.58523  Biso   1.000  C
  C312     1.0000 0.53640  0.19630  0.91857  Biso   1.000  C
  H259     1.0000 0.32080  0.53320  0.70000  Biso   1.000  H
  H260     1.0000 0.67920  0.46680  0.20000  Biso   1.000  H
  H261     1.0000 0.46680  0.78760  0.36667  Biso   1.000  H
  H262     1.0000 0.21240  0.67920  0.03333  Biso   1.000  H
  H263     1.0000 0.78760  0.32080  0.53333  Biso   1.000  H
  H264     1.0000 0.53320  0.21240  0.86667  Biso   1.000  H
  C313     1.0000 0.32230  0.48350  0.80520  Biso   1.000  C
  C314     1.0000 0.67770  0.51650  0.30520  Biso   1.000  C
  C315     1.0000 0.51650  0.83880  0.47187  Biso   1.000  C
  C316     1.0000 0.16120  0.67770  0.13853  Biso   1.000  C
  C317     1.0000 0.83880  0.32230  0.63853  Biso   1.000  C
  C318     1.0000 0.48350  0.16120  0.97187  Biso   1.000  C
  C319     1.0000 0.37050  0.47470  0.82110  Biso   1.000  C
  C320     1.0000 0.62950  0.52530  0.32110  Biso   1.000  C
  C321     1.0000 0.52530  0.89580  0.48777  Biso   1.000  C
  C322     1.0000 0.10420  0.62950  0.15443  Biso   1.000  C
  C323     1.0000 0.89580  0.37050  0.65443  Biso   1.000  C
  C324     1.0000 0.47470  0.10420  0.98777  Biso   1.000  C
  H265     1.0000 0.36460  0.43610  0.82380  Biso   1.000  H
  H266     1.0000 0.63540  0.56390  0.32380  Biso   1.000  H
  H267     1.0000 0.56390  0.92850  0.49047  Biso   1.000  H
  H268     1.0000 0.07150  0.63540  0.15713  Biso   1.000  H
  H269     1.0000 0.92850  0.36460  0.65713  Biso   1.000  H
  H270     1.0000 0.43610  0.07150  0.99047  Biso   1.000  H
  C325     1.0000 0.42760  0.52380  0.83310  Biso   1.000  C
  C326     1.0000 0.57240  0.47620  0.33310  Biso   1.000  C
  C327     1.0000 0.47620  0.90380  0.49977  Biso   1.000  C
  C328     1.0000 0.09620  0.57240  0.16643  Biso   1.000  C
  C329     1.0000 0.90380  0.42760  0.66643  Biso   1.000  C
  C330     1.0000 0.52380  0.09620  0.99977  Biso   1.000  C
  H271     1.0000 0.45980  0.51800  0.84380  Biso   1.000  H
  H272     1.0000 0.54020  0.48200  0.34380  Biso   1.000  H
  H273     1.0000 0.48200  0.94180  0.51047  Biso   1.000  H
  H274     1.0000 0.05820  0.54020  0.17713  Biso   1.000  H
  H275     1.0000 0.94180  0.45980  0.67713  Biso   1.000  H
  H276     1.0000 0.51800  0.05820  0.01047  Biso   1.000  H
  C331     1.0000 0.43640  0.58170  0.82910  Biso   1.000  C
  C332     1.0000 0.56360  0.41830  0.32910  Biso   1.000  C
  C333     1.0000 0.41830  0.85470  0.49577  Biso   1.000  C
  C334     1.0000 0.14530  0.56360  0.16243  Biso   1.000  C
  C335     1.0000 0.85470  0.43640  0.66243  Biso   1.000  C
  C336     1.0000 0.58170  0.14530  0.99577  Biso   1.000  C
  H277     1.0000 0.47460  0.61450  0.83700  Biso   1.000  H
  H278     1.0000 0.52540  0.38550  0.33700  Biso   1.000  H
  H279     1.0000 0.38550  0.86010  0.50367  Biso   1.000  H
  H280     1.0000 0.13990  0.52540  0.17033  Biso   1.000  H
  H281     1.0000 0.86010  0.47460  0.67033  Biso   1.000  H
  H282     1.0000 0.61450  0.13990  0.00367  Biso   1.000  H
  C337     1.0000 0.38820  0.59040  0.81310  Biso   1.000  C
  C338     1.0000 0.61180  0.40960  0.31310  Biso   1.000  C
  C339     1.0000 0.40960  0.79780  0.47977  Biso   1.000  C
  C340     1.0000 0.20220  0.61180  0.14643  Biso   1.000  C
  C341     1.0000 0.79780  0.38820  0.64643  Biso   1.000  C
  C342     1.0000 0.59040  0.20220  0.97977  Biso   1.000  C
  H283     1.0000 0.39410  0.62910  0.81040  Biso   1.000  H
  H284     1.0000 0.60590  0.37090  0.31040  Biso   1.000  H
  H285     1.0000 0.37090  0.76500  0.47707  Biso   1.000  H
  H286     1.0000 0.23500  0.60590  0.14373  Biso   1.000  H
  H287     1.0000 0.76500  0.39410  0.64373  Biso   1.000  H
  H288     1.0000 0.62910  0.23500  0.97707  Biso   1.000  H
  C343     1.0000 0.33110  0.54130  0.80120  Biso   1.000  C
  C344     1.0000 0.66890  0.45870  0.30120  Biso   1.000  C
  C345     1.0000 0.45870  0.78980  0.46787  Biso   1.000  C
  C346     1.0000 0.21020  0.66890  0.13453  Biso   1.000  C
  C347     1.0000 0.78980  0.33110  0.63453  Biso   1.000  C
  C348     1.0000 0.54130  0.21020  0.96787  Biso   1.000  C
  H289     1.0000 0.29880  0.54720  0.79050  Biso   1.000  H
  H290     1.0000 0.70120  0.45280  0.29050  Biso   1.000  H
  H291     1.0000 0.45280  0.75160  0.45717  Biso   1.000  H
  H292     1.0000 0.24840  0.70120  0.12383  Biso   1.000  H
  H293     1.0000 0.75160  0.29880  0.62383  Biso   1.000  H
  H294     1.0000 0.54720  0.24840  0.95717  Biso   1.000  H
