data_image0
_cell_length_a       25.825
_cell_length_b       25.825
_cell_length_c       15.677
_cell_angle_alpha    90
_cell_angle_beta     90
_cell_angle_gamma    120

_symmetry_space_group_name_H-M    "P 1"
_symmetry_int_tables_number       1

loop_
  _symmetry_equiv_pos_as_xyz
  'x, y, z'

loop_
  _atom_site_label
  _atom_site_occupancy
  _atom_site_fract_x
  _atom_site_fract_y
  _atom_site_fract_z
  _atom_site_thermal_displace_type
  _atom_site_B_iso_or_equiv
  _atom_site_type_symbol
  Cu1      1.0000 0.07025  0.33425  0.82430  Biso   1.000  Cu
  Cu2      1.0000 0.92975  0.66575  0.32430  Biso   1.000  Cu
  Cu3      1.0000 0.66575  0.73600  0.49097  Biso   1.000  Cu
  Cu4      1.0000 0.26400  0.92975  0.15763  Biso   1.000  Cu
  Cu5      1.0000 0.73600  0.07025  0.65763  Biso   1.000  Cu
  Cu6      1.0000 0.33425  0.26400  0.99097  Biso   1.000  Cu
  Cu7      1.0000 0.85214  0.20706  0.73410  Biso   1.000  Cu
  Cu8      1.0000 0.14786  0.79294  0.23410  Biso   1.000  Cu
  Cu9      1.0000 0.79294  0.64508  0.40077  Biso   1.000  Cu
  Cu10     1.0000 0.35492  0.14786  0.06743  Biso   1.000  Cu
  Cu11     1.0000 0.64508  0.85214  0.56743  Biso   1.000  Cu
  Cu12     1.0000 0.20706  0.35492  0.90077  Biso   1.000  Cu
  P1       1.0000 0.07510  0.39209  0.93660  Biso   1.000  P
  P2       1.0000 0.92490  0.60791  0.43660  Biso   1.000  P
  P3       1.0000 0.60791  0.68301  0.60327  Biso   1.000  P
  P4       1.0000 0.31699  0.92490  0.26993  Biso   1.000  P
  P5       1.0000 0.68301  0.07510  0.76993  Biso   1.000  P
  P6       1.0000 0.39209  0.31699  0.10327  Biso   1.000  P
  P7       1.0000 0.18899  0.39861  0.01330  Biso   1.000  P
  P8       1.0000 0.81101  0.60139  0.51330  Biso   1.000  P
  P9       1.0000 0.60139  0.79038  0.67997  Biso   1.000  P
  P10      1.0000 0.20962  0.81101  0.34663  Biso   1.000  P
  P11      1.0000 0.79038  0.18899  0.84663  Biso   1.000  P
  P12      1.0000 0.39861  0.20962  0.17997  Biso   1.000  P
  P13      1.0000 0.12460  0.39162  0.71290  Biso   1.000  P
  P14      1.0000 0.87540  0.60838  0.21290  Biso   1.000  P
  P15      1.0000 0.60838  0.73298  0.37957  Biso   1.000  P
  P16      1.0000 0.26702  0.87540  0.04623  Biso   1.000  P
  P17      1.0000 0.73298  0.12460  0.54623  Biso   1.000  P
  P18      1.0000 0.39162  0.26702  0.87957  Biso   1.000  P
  P19      1.0000 0.24669  0.41545  0.78550  Biso   1.000  P
  P20      1.0000 0.75331  0.58455  0.28550  Biso   1.000  P
  P21      1.0000 0.58455  0.83124  0.45217  Biso   1.000  P
  P22      1.0000 0.16876  0.75331  0.11883  Biso   1.000  P
  P23      1.0000 0.83124  0.24669  0.61883  Biso   1.000  P
  P24      1.0000 0.41545  0.16876  0.95217  Biso   1.000  P
  C1       1.0000 0.93660  0.25750  0.76960  Biso   1.000  C
  C2       1.0000 0.06340  0.74250  0.26960  Biso   1.000  C
  C3       1.0000 0.74250  0.67910  0.43627  Biso   1.000  C
  C4       1.0000 0.32090  0.06340  0.10293  Biso   1.000  C
  C5       1.0000 0.67910  0.93660  0.60293  Biso   1.000  C
  C6       1.0000 0.25750  0.32090  0.93627  Biso   1.000  C
  N1       1.0000 0.98660  0.28530  0.79000  Biso   1.000  N
  N2       1.0000 0.01340  0.71470  0.29000  Biso   1.000  N
  N3       1.0000 0.71470  0.70130  0.45667  Biso   1.000  N
  N4       1.0000 0.29870  0.01340  0.12333  Biso   1.000  N
  N5       1.0000 0.70130  0.98660  0.62333  Biso   1.000  N
  N6       1.0000 0.28530  0.29870  0.95667  Biso   1.000  N
  C7       1.0000 0.09530  0.26990  0.85530  Biso   1.000  C
  C8       1.0000 0.90470  0.73010  0.35530  Biso   1.000  C
  C9       1.0000 0.73010  0.82540  0.52197  Biso   1.000  C
  C10      1.0000 0.17460  0.90470  0.18863  Biso   1.000  C
  C11      1.0000 0.82540  0.09530  0.68863  Biso   1.000  C
  C12      1.0000 0.26990  0.17460  0.02197  Biso   1.000  C
  N7       1.0000 0.12490  0.26110  0.87020  Biso   1.000  N
  N8       1.0000 0.87510  0.73890  0.37020  Biso   1.000  N
  N9       1.0000 0.73890  0.86380  0.53687  Biso   1.000  N
  N10      1.0000 0.13620  0.87510  0.20353  Biso   1.000  N
  N11      1.0000 0.86380  0.12490  0.70353  Biso   1.000  N
  N12      1.0000 0.26110  0.13620  0.03687  Biso   1.000  N
  C13      1.0000 0.05590  0.44880  0.90870  Biso   1.000  C
  C14      1.0000 0.94410  0.55120  0.40870  Biso   1.000  C
  C15      1.0000 0.55120  0.60710  0.57537  Biso   1.000  C
  C16      1.0000 0.39290  0.94410  0.24203  Biso   1.000  C
  C17      1.0000 0.60710  0.05590  0.74203  Biso   1.000  C
  C18      1.0000 0.44880  0.39290  0.07537  Biso   1.000  C
  C19      1.0000 0.08770  0.50810  0.93780  Biso   1.000  C
  C20      1.0000 0.91230  0.49190  0.43780  Biso   1.000  C
  C21      1.0000 0.49190  0.57960  0.60447  Biso   1.000  C
  C22      1.0000 0.42040  0.91230  0.27113  Biso   1.000  C
  C23      1.0000 0.57960  0.08770  0.77113  Biso   1.000  C
  C24      1.0000 0.50810  0.42040  0.10447  Biso   1.000  C
  H1       1.0000 0.11950  0.52030  0.97550  Biso   1.000  H
  H2       1.0000 0.88050  0.47970  0.47550  Biso   1.000  H
  H3       1.0000 0.47970  0.59920  0.64217  Biso   1.000  H
  H4       1.0000 0.40080  0.88050  0.30883  Biso   1.000  H
  H5       1.0000 0.59920  0.11950  0.80883  Biso   1.000  H
  H6       1.0000 0.52030  0.40080  0.14217  Biso   1.000  H
  C25      1.0000 0.07040  0.54840  0.90870  Biso   1.000  C
  C26      1.0000 0.92960  0.45160  0.40870  Biso   1.000  C
  C27      1.0000 0.45160  0.52200  0.57537  Biso   1.000  C
  C28      1.0000 0.47800  0.92960  0.24203  Biso   1.000  C
  C29      1.0000 0.52200  0.07040  0.74203  Biso   1.000  C
  C30      1.0000 0.54840  0.47800  0.07537  Biso   1.000  C
  H7       1.0000 0.09350  0.58820  0.92510  Biso   1.000  H
  H8       1.0000 0.90650  0.41180  0.42510  Biso   1.000  H
  H9       1.0000 0.41180  0.50530  0.59177  Biso   1.000  H
  H10      1.0000 0.49470  0.90650  0.25843  Biso   1.000  H
  H11      1.0000 0.50530  0.09350  0.75843  Biso   1.000  H
  H12      1.0000 0.58820  0.49470  0.09177  Biso   1.000  H
  C31      1.0000 0.02460  0.53420  0.86070  Biso   1.000  C
  C32      1.0000 0.97540  0.46580  0.36070  Biso   1.000  C
  C33      1.0000 0.46580  0.49040  0.52737  Biso   1.000  C
  C34      1.0000 0.50960  0.97540  0.19403  Biso   1.000  C
  C35      1.0000 0.49040  0.02460  0.69403  Biso   1.000  C
  C36      1.0000 0.53420  0.50960  0.02737  Biso   1.000  C
  H13      1.0000 0.01310  0.56210  0.84770  Biso   1.000  H
  H14      1.0000 0.98690  0.43790  0.34770  Biso   1.000  H
  H15      1.0000 0.43790  0.45100  0.51437  Biso   1.000  H
  H16      1.0000 0.54900  0.98690  0.18103  Biso   1.000  H
  H17      1.0000 0.45100  0.01310  0.68103  Biso   1.000  H
  H18      1.0000 0.56210  0.54900  0.01437  Biso   1.000  H
  C37      1.0000 0.99280  0.47640  0.82880  Biso   1.000  C
  C38      1.0000 0.00720  0.52360  0.32880  Biso   1.000  C
  C39      1.0000 0.52360  0.51640  0.49547  Biso   1.000  C
  C40      1.0000 0.48360  0.00720  0.16213  Biso   1.000  C
  C41      1.0000 0.51640  0.99280  0.66213  Biso   1.000  C
  C42      1.0000 0.47640  0.48360  0.99547  Biso   1.000  C
  H19      1.0000 0.96080  0.46550  0.79190  Biso   1.000  H
  H20      1.0000 0.03920  0.53450  0.29190  Biso   1.000  H
  H21      1.0000 0.53450  0.49530  0.45857  Biso   1.000  H
  H22      1.0000 0.50470  0.03920  0.12523  Biso   1.000  H
  H23      1.0000 0.49530  0.96080  0.62523  Biso   1.000  H
  H24      1.0000 0.46550  0.50470  0.95857  Biso   1.000  H
  C43      1.0000 0.01010  0.43320  0.85390  Biso   1.000  C
  C44      1.0000 0.98990  0.56680  0.35390  Biso   1.000  C
  C45      1.0000 0.56680  0.57690  0.52057  Biso   1.000  C
  C46      1.0000 0.42310  0.98990  0.18723  Biso   1.000  C
  C47      1.0000 0.57690  0.01010  0.68723  Biso   1.000  C
  C48      1.0000 0.43320  0.42310  0.02057  Biso   1.000  C
  H25      1.0000 0.98960  0.39460  0.83210  Biso   1.000  H
  H26      1.0000 0.01040  0.60540  0.33210  Biso   1.000  H
  H27      1.0000 0.60540  0.59500  0.49877  Biso   1.000  H
  H28      1.0000 0.40500  0.01040  0.16543  Biso   1.000  H
  H29      1.0000 0.59500  0.98960  0.66543  Biso   1.000  H
  H30      1.0000 0.39460  0.40500  0.99877  Biso   1.000  H
  C49      1.0000 0.02230  0.35200  0.02370  Biso   1.000  C
  C50      1.0000 0.97770  0.64800  0.52370  Biso   1.000  C
  C51      1.0000 0.64800  0.67030  0.69037  Biso   1.000  C
  C52      1.0000 0.32970  0.97770  0.35703  Biso   1.000  C
  C53      1.0000 0.67030  0.02230  0.85703  Biso   1.000  C
  C54      1.0000 0.35200  0.32970  0.19037  Biso   1.000  C
  C55      1.0000 0.01290  0.38380  0.08930  Biso   1.000  C
  C56      1.0000 0.98710  0.61620  0.58930  Biso   1.000  C
  C57      1.0000 0.61620  0.62910  0.75597  Biso   1.000  C
  C58      1.0000 0.37090  0.98710  0.42263  Biso   1.000  C
  C59      1.0000 0.62910  0.01290  0.92263  Biso   1.000  C
  C60      1.0000 0.38380  0.37090  0.25597  Biso   1.000  C
  H31      1.0000 0.03360  0.42540  0.09000  Biso   1.000  H
  H32      1.0000 0.96640  0.57460  0.59000  Biso   1.000  H
  H33      1.0000 0.57460  0.60820  0.75667  Biso   1.000  H
  H34      1.0000 0.39180  0.96640  0.42333  Biso   1.000  H
  H35      1.0000 0.60820  0.03360  0.92333  Biso   1.000  H
  H36      1.0000 0.42540  0.39180  0.25667  Biso   1.000  H
  C61      1.0000 0.97210  0.35150  0.15250  Biso   1.000  C
  C62      1.0000 0.02790  0.64850  0.65250  Biso   1.000  C
  C63      1.0000 0.64850  0.62060  0.81917  Biso   1.000  C
  C64      1.0000 0.37940  0.02790  0.48583  Biso   1.000  C
  C65      1.0000 0.62060  0.97210  0.98583  Biso   1.000  C
  C66      1.0000 0.35150  0.37940  0.31917  Biso   1.000  C
  H37      1.0000 0.96590  0.37170  0.19680  Biso   1.000  H
  H38      1.0000 0.03410  0.62830  0.69680  Biso   1.000  H
  H39      1.0000 0.62830  0.59420  0.86347  Biso   1.000  H
  H40      1.0000 0.40580  0.03410  0.53013  Biso   1.000  H
  H41      1.0000 0.59420  0.96590  0.03013  Biso   1.000  H
  H42      1.0000 0.37170  0.40580  0.36347  Biso   1.000  H
  C67      1.0000 0.94040  0.29000  0.15160  Biso   1.000  C
  C68      1.0000 0.05960  0.71000  0.65160  Biso   1.000  C
  C69      1.0000 0.71000  0.65040  0.81827  Biso   1.000  C
  C70      1.0000 0.34960  0.05960  0.48493  Biso   1.000  C
  C71      1.0000 0.65040  0.94040  0.98493  Biso   1.000  C
  C72      1.0000 0.29000  0.34960  0.31827  Biso   1.000  C
  H43      1.0000 0.91260  0.26960  0.19450  Biso   1.000  H
  H44      1.0000 0.08740  0.73040  0.69450  Biso   1.000  H
  H45      1.0000 0.73040  0.64300  0.86117  Biso   1.000  H
  H46      1.0000 0.35700  0.08740  0.52783  Biso   1.000  H
  H47      1.0000 0.64300  0.91260  0.02783  Biso   1.000  H
  H48      1.0000 0.26960  0.35700  0.36117  Biso   1.000  H
  C73      1.0000 0.94930  0.25740  0.08660  Biso   1.000  C
  C74      1.0000 0.05070  0.74260  0.58660  Biso   1.000  C
  C75      1.0000 0.74260  0.69190  0.75327  Biso   1.000  C
  C76      1.0000 0.30810  0.05070  0.41993  Biso   1.000  C
  C77      1.0000 0.69190  0.94930  0.91993  Biso   1.000  C
  C78      1.0000 0.25740  0.30810  0.25327  Biso   1.000  C
  H49      1.0000 0.92830  0.21590  0.08610  Biso   1.000  H
  H50      1.0000 0.07170  0.78410  0.58610  Biso   1.000  H
  H51      1.0000 0.78410  0.71240  0.75277  Biso   1.000  H
  H52      1.0000 0.28760  0.07170  0.41943  Biso   1.000  H
  H53      1.0000 0.71240  0.92830  0.91943  Biso   1.000  H
  H54      1.0000 0.21590  0.28760  0.25277  Biso   1.000  H
  C79      1.0000 0.99050  0.28980  0.02380  Biso   1.000  C
  C80      1.0000 0.00950  0.71020  0.52380  Biso   1.000  C
  C81      1.0000 0.71020  0.70070  0.69047  Biso   1.000  C
  C82      1.0000 0.29930  0.00950  0.35713  Biso   1.000  C
  C83      1.0000 0.70070  0.99050  0.85713  Biso   1.000  C
  C84      1.0000 0.28980  0.29930  0.19047  Biso   1.000  C
  H55      1.0000 0.99720  0.26940  0.98020  Biso   1.000  H
  H56      1.0000 0.00280  0.73060  0.48020  Biso   1.000  H
  H57      1.0000 0.73060  0.72780  0.64687  Biso   1.000  H
  H58      1.0000 0.27220  0.00280  0.31353  Biso   1.000  H
  H59      1.0000 0.72780  0.99720  0.81353  Biso   1.000  H
  H60      1.0000 0.26940  0.27220  0.14687  Biso   1.000  H
  C85      1.0000 0.14860  0.43890  0.99110  Biso   1.000  C
  C86      1.0000 0.85140  0.56110  0.49110  Biso   1.000  C
  C87      1.0000 0.56110  0.70970  0.65777  Biso   1.000  C
  C88      1.0000 0.29030  0.85140  0.32443  Biso   1.000  C
  C89      1.0000 0.70970  0.14860  0.82443  Biso   1.000  C
  C90      1.0000 0.43890  0.29030  0.15777  Biso   1.000  C
  H61      1.0000 0.17350  0.47330  0.95550  Biso   1.000  H
  H62      1.0000 0.82650  0.52670  0.45550  Biso   1.000  H
  H63      1.0000 0.52670  0.70020  0.62217  Biso   1.000  H
  H64      1.0000 0.29980  0.82650  0.28883  Biso   1.000  H
  H65      1.0000 0.70020  0.17350  0.78883  Biso   1.000  H
  H66      1.0000 0.47330  0.29980  0.12217  Biso   1.000  H
  H67      1.0000 0.14180  0.45360  0.04440  Biso   1.000  H
  H68      1.0000 0.85820  0.54640  0.54440  Biso   1.000  H
  H69      1.0000 0.54640  0.68820  0.71107  Biso   1.000  H
  H70      1.0000 0.31180  0.85820  0.37773  Biso   1.000  H
  H71      1.0000 0.68820  0.14180  0.87773  Biso   1.000  H
  H72      1.0000 0.45360  0.31180  0.21107  Biso   1.000  H
  C91      1.0000 0.14860  0.35040  0.10340  Biso   1.000  C
  C92      1.0000 0.85140  0.64960  0.60340  Biso   1.000  C
  C93      1.0000 0.64960  0.79820  0.77007  Biso   1.000  C
  C94      1.0000 0.20180  0.85140  0.43673  Biso   1.000  C
  C95      1.0000 0.79820  0.14860  0.93673  Biso   1.000  C
  C96      1.0000 0.35040  0.20180  0.27007  Biso   1.000  C
  C97      1.0000 0.13770  0.37370  0.17780  Biso   1.000  C
  C98      1.0000 0.86230  0.62630  0.67780  Biso   1.000  C
  C99      1.0000 0.62630  0.76400  0.84447  Biso   1.000  C
  C100     1.0000 0.23600  0.86230  0.51113  Biso   1.000  C
  C101     1.0000 0.76400  0.13770  0.01113  Biso   1.000  C
  C102     1.0000 0.37370  0.23600  0.34447  Biso   1.000  C
  H73      1.0000 0.15220  0.41460  0.18300  Biso   1.000  H
  H74      1.0000 0.84780  0.58540  0.68300  Biso   1.000  H
  H75      1.0000 0.58540  0.73760  0.84967  Biso   1.000  H
  H76      1.0000 0.26240  0.84780  0.51633  Biso   1.000  H
  H77      1.0000 0.73760  0.15220  0.01633  Biso   1.000  H
  H78      1.0000 0.41460  0.26240  0.34967  Biso   1.000  H
  C103     1.0000 0.10550  0.33570  0.24270  Biso   1.000  C
  C104     1.0000 0.89450  0.66430  0.74270  Biso   1.000  C
  C105     1.0000 0.66430  0.76980  0.90937  Biso   1.000  C
  C106     1.0000 0.23020  0.89450  0.57603  Biso   1.000  C
  C107     1.0000 0.76980  0.10550  0.07603  Biso   1.000  C
  C108     1.0000 0.33570  0.23020  0.40937  Biso   1.000  C
  H79      1.0000 0.09830  0.35140  0.29170  Biso   1.000  H
  H80      1.0000 0.90170  0.64860  0.79170  Biso   1.000  H
  H81      1.0000 0.64860  0.74690  0.95837  Biso   1.000  H
  H82      1.0000 0.25310  0.90170  0.62503  Biso   1.000  H
  H83      1.0000 0.74690  0.09830  0.12503  Biso   1.000  H
  H84      1.0000 0.35140  0.25310  0.45837  Biso   1.000  H
  C109     1.0000 0.08420  0.27690  0.23800  Biso   1.000  C
  C110     1.0000 0.91580  0.72310  0.73800  Biso   1.000  C
  C111     1.0000 0.72310  0.80730  0.90467  Biso   1.000  C
  C112     1.0000 0.19270  0.91580  0.57133  Biso   1.000  C
  C113     1.0000 0.80730  0.08420  0.07133  Biso   1.000  C
  C114     1.0000 0.27690  0.19270  0.40467  Biso   1.000  C
  H85      1.0000 0.06210  0.25270  0.28340  Biso   1.000  H
  H86      1.0000 0.93790  0.74730  0.78340  Biso   1.000  H
  H87      1.0000 0.74730  0.80940  0.95007  Biso   1.000  H
  H88      1.0000 0.19060  0.93790  0.61673  Biso   1.000  H
  H89      1.0000 0.80940  0.06210  0.11673  Biso   1.000  H
  H90      1.0000 0.25270  0.19060  0.45007  Biso   1.000  H
  C115     1.0000 0.09430  0.25080  0.16620  Biso   1.000  C
  C116     1.0000 0.90570  0.74920  0.66620  Biso   1.000  C
  C117     1.0000 0.74920  0.84350  0.83287  Biso   1.000  C
  C118     1.0000 0.15650  0.90570  0.49953  Biso   1.000  C
  C119     1.0000 0.84350  0.09430  0.99953  Biso   1.000  C
  C120     1.0000 0.25080  0.15650  0.33287  Biso   1.000  C
  H91      1.0000 0.08020  0.20990  0.16280  Biso   1.000  H
  H92      1.0000 0.91980  0.79010  0.66280  Biso   1.000  H
  H93      1.0000 0.79010  0.87030  0.82947  Biso   1.000  H
  H94      1.0000 0.12970  0.91980  0.49613  Biso   1.000  H
  H95      1.0000 0.87030  0.08020  0.99613  Biso   1.000  H
  H96      1.0000 0.20990  0.12970  0.32947  Biso   1.000  H
  C121     1.0000 0.12700  0.29020  0.10010  Biso   1.000  C
  C122     1.0000 0.87300  0.70980  0.60010  Biso   1.000  C
  C123     1.0000 0.70980  0.83680  0.76677  Biso   1.000  C
  C124     1.0000 0.16320  0.87300  0.43343  Biso   1.000  C
  C125     1.0000 0.83680  0.12700  0.93343  Biso   1.000  C
  C126     1.0000 0.29020  0.16320  0.26677  Biso   1.000  C
  H97      1.0000 0.13450  0.27450  0.05130  Biso   1.000  H
  H98      1.0000 0.86550  0.72550  0.55130  Biso   1.000  H
  H99      1.0000 0.72550  0.86000  0.71797  Biso   1.000  H
  H100     1.0000 0.14000  0.86550  0.38463  Biso   1.000  H
  H101     1.0000 0.86000  0.13450  0.88463  Biso   1.000  H
  H102     1.0000 0.27450  0.14000  0.21797  Biso   1.000  H
  C127     1.0000 0.25710  0.45760  0.06440  Biso   1.000  C
  C128     1.0000 0.74290  0.54240  0.56440  Biso   1.000  C
  C129     1.0000 0.54240  0.79950  0.73107  Biso   1.000  C
  C130     1.0000 0.20050  0.74290  0.39773  Biso   1.000  C
  C131     1.0000 0.79950  0.25710  0.89773  Biso   1.000  C
  C132     1.0000 0.45760  0.20050  0.23107  Biso   1.000  C
  C133     1.0000 0.27550  0.51660  0.05850  Biso   1.000  C
  C134     1.0000 0.72450  0.48340  0.55850  Biso   1.000  C
  C135     1.0000 0.48340  0.75890  0.72517  Biso   1.000  C
  C136     1.0000 0.24110  0.72450  0.39183  Biso   1.000  C
  C137     1.0000 0.75890  0.27550  0.89183  Biso   1.000  C
  C138     1.0000 0.51660  0.24110  0.22517  Biso   1.000  C
  H103     1.0000 0.25120  0.52840  0.03060  Biso   1.000  H
  H104     1.0000 0.74880  0.47160  0.53060  Biso   1.000  H
  H105     1.0000 0.47160  0.72280  0.69727  Biso   1.000  H
  H106     1.0000 0.27720  0.74880  0.36393  Biso   1.000  H
  H107     1.0000 0.72280  0.25120  0.86393  Biso   1.000  H
  H108     1.0000 0.52840  0.27720  0.19727  Biso   1.000  H
  C139     1.0000 0.32800  0.55910  0.09230  Biso   1.000  C
  C140     1.0000 0.67200  0.44090  0.59230  Biso   1.000  C
  C141     1.0000 0.44090  0.76890  0.75897  Biso   1.000  C
  C142     1.0000 0.23110  0.67200  0.42563  Biso   1.000  C
  C143     1.0000 0.76890  0.32800  0.92563  Biso   1.000  C
  C144     1.0000 0.55910  0.23110  0.25897  Biso   1.000  C
  H109     1.0000 0.33880  0.59920  0.08790  Biso   1.000  H
  H110     1.0000 0.66120  0.40080  0.58790  Biso   1.000  H
  H111     1.0000 0.40080  0.73960  0.75457  Biso   1.000  H
  H112     1.0000 0.26040  0.66120  0.42123  Biso   1.000  H
  H113     1.0000 0.73960  0.33880  0.92123  Biso   1.000  H
  H114     1.0000 0.59920  0.26040  0.25457  Biso   1.000  H
  C145     1.0000 0.36690  0.54330  0.13420  Biso   1.000  C
  C146     1.0000 0.63310  0.45670  0.63420  Biso   1.000  C
  C147     1.0000 0.45670  0.82360  0.80087  Biso   1.000  C
  C148     1.0000 0.17640  0.63310  0.46753  Biso   1.000  C
  C149     1.0000 0.82360  0.36690  0.96753  Biso   1.000  C
  C150     1.0000 0.54330  0.17640  0.30087  Biso   1.000  C
  H115     1.0000 0.40350  0.57200  0.15680  Biso   1.000  H
  H116     1.0000 0.59650  0.42800  0.65680  Biso   1.000  H
  H117     1.0000 0.42800  0.83150  0.82347  Biso   1.000  H
  H118     1.0000 0.16850  0.59650  0.49013  Biso   1.000  H
  H119     1.0000 0.83150  0.40350  0.99013  Biso   1.000  H
  H120     1.0000 0.57200  0.16850  0.32347  Biso   1.000  H
  C151     1.0000 0.34770  0.48410  0.13920  Biso   1.000  C
  C152     1.0000 0.65230  0.51590  0.63920  Biso   1.000  C
  C153     1.0000 0.51590  0.86360  0.80587  Biso   1.000  C
  C154     1.0000 0.13640  0.65230  0.47253  Biso   1.000  C
  C155     1.0000 0.86360  0.34770  0.97253  Biso   1.000  C
  C156     1.0000 0.48410  0.13640  0.30587  Biso   1.000  C
  H121     1.0000 0.37170  0.47200  0.16690  Biso   1.000  H
  H122     1.0000 0.62830  0.52800  0.66690  Biso   1.000  H
  H123     1.0000 0.52800  0.89970  0.83357  Biso   1.000  H
  H124     1.0000 0.10030  0.62830  0.50023  Biso   1.000  H
  H125     1.0000 0.89970  0.37170  0.00023  Biso   1.000  H
  H126     1.0000 0.47200  0.10030  0.33357  Biso   1.000  H
  C157     1.0000 0.29300  0.44020  0.10450  Biso   1.000  C
  C158     1.0000 0.70700  0.55980  0.60450  Biso   1.000  C
  C159     1.0000 0.55980  0.85280  0.77117  Biso   1.000  C
  C160     1.0000 0.14720  0.70700  0.43783  Biso   1.000  C
  C161     1.0000 0.85280  0.29300  0.93783  Biso   1.000  C
  C162     1.0000 0.44020  0.14720  0.27117  Biso   1.000  C
  H127     1.0000 0.28130  0.39990  0.10870  Biso   1.000  H
  H128     1.0000 0.71870  0.60010  0.60870  Biso   1.000  H
  H129     1.0000 0.60010  0.88140  0.77537  Biso   1.000  H
  H130     1.0000 0.11860  0.71870  0.44203  Biso   1.000  H
  H131     1.0000 0.88140  0.28130  0.94203  Biso   1.000  H
  H132     1.0000 0.39990  0.11860  0.27537  Biso   1.000  H
  C163     1.0000 0.09620  0.43770  0.66720  Biso   1.000  C
  C164     1.0000 0.90380  0.56230  0.16720  Biso   1.000  C
  C165     1.0000 0.56230  0.65850  0.33387  Biso   1.000  C
  C166     1.0000 0.34150  0.90380  0.00053  Biso   1.000  C
  C167     1.0000 0.65850  0.09620  0.50053  Biso   1.000  C
  C168     1.0000 0.43770  0.34150  0.83387  Biso   1.000  C
  C169     1.0000 0.12050  0.49870  0.67760  Biso   1.000  C
  C170     1.0000 0.87950  0.50130  0.17760  Biso   1.000  C
  C171     1.0000 0.50130  0.62180  0.34427  Biso   1.000  C
  C172     1.0000 0.37820  0.87950  0.01093  Biso   1.000  C
  C173     1.0000 0.62180  0.12050  0.51093  Biso   1.000  C
  C174     1.0000 0.49870  0.37820  0.84427  Biso   1.000  C
  H133     1.0000 0.15560  0.52040  0.70860  Biso   1.000  H
  H134     1.0000 0.84440  0.47960  0.20860  Biso   1.000  H
  H135     1.0000 0.47960  0.63520  0.37527  Biso   1.000  H
  H136     1.0000 0.36480  0.84440  0.04193  Biso   1.000  H
  H137     1.0000 0.63520  0.15560  0.54193  Biso   1.000  H
  H138     1.0000 0.52040  0.36480  0.87527  Biso   1.000  H
  C175     1.0000 0.09250  0.52790  0.64200  Biso   1.000  C
  C176     1.0000 0.90750  0.47210  0.14200  Biso   1.000  C
  C177     1.0000 0.47210  0.56460  0.30867  Biso   1.000  C
  C178     1.0000 0.43540  0.90750  0.97533  Biso   1.000  C
  C179     1.0000 0.56460  0.09250  0.47533  Biso   1.000  C
  C180     1.0000 0.52790  0.43540  0.80867  Biso   1.000  C
  H139     1.0000 0.10770  0.56840  0.65250  Biso   1.000  H
  H140     1.0000 0.89230  0.43160  0.15250  Biso   1.000  H
  H141     1.0000 0.43160  0.53930  0.31917  Biso   1.000  H
  H142     1.0000 0.46070  0.89230  0.98583  Biso   1.000  H
  H143     1.0000 0.53930  0.10770  0.48583  Biso   1.000  H
  H144     1.0000 0.56840  0.46070  0.81917  Biso   1.000  H
  C181     1.0000 0.04390  0.49810  0.59260  Biso   1.000  C
  C182     1.0000 0.95610  0.50190  0.09260  Biso   1.000  C
  C183     1.0000 0.50190  0.54580  0.25927  Biso   1.000  C
  C184     1.0000 0.45420  0.95610  0.92593  Biso   1.000  C
  C185     1.0000 0.54580  0.04390  0.42593  Biso   1.000  C
  C186     1.0000 0.49810  0.45420  0.75927  Biso   1.000  C
  H145     1.0000 0.02790  0.51900  0.56560  Biso   1.000  H
  H146     1.0000 0.97210  0.48100  0.06560  Biso   1.000  H
  H147     1.0000 0.48100  0.50890  0.23227  Biso   1.000  H
  H148     1.0000 0.49110  0.97210  0.89893  Biso   1.000  H
  H149     1.0000 0.50890  0.02790  0.39893  Biso   1.000  H
  H150     1.0000 0.51900  0.49110  0.73227  Biso   1.000  H
  C187     1.0000 0.01870  0.44020  0.58170  Biso   1.000  C
  C188     1.0000 0.98130  0.55980  0.08170  Biso   1.000  C
  C189     1.0000 0.55980  0.57850  0.24837  Biso   1.000  C
  C190     1.0000 0.42150  0.98130  0.91503  Biso   1.000  C
  C191     1.0000 0.57850  0.01870  0.41503  Biso   1.000  C
  C192     1.0000 0.44020  0.42150  0.74837  Biso   1.000  C
  H151     1.0000 0.98410  0.42020  0.54900  Biso   1.000  H
  H152     1.0000 0.01590  0.57980  0.04900  Biso   1.000  H
  H153     1.0000 0.57980  0.56390  0.21567  Biso   1.000  H
  H154     1.0000 0.43610  0.01590  0.88233  Biso   1.000  H
  H155     1.0000 0.56390  0.98410  0.38233  Biso   1.000  H
  H156     1.0000 0.42020  0.43610  0.71567  Biso   1.000  H
  C193     1.0000 0.04340  0.40890  0.61900  Biso   1.000  C
  C194     1.0000 0.95660  0.59110  0.11900  Biso   1.000  C
  C195     1.0000 0.59110  0.63450  0.28567  Biso   1.000  C
  C196     1.0000 0.36550  0.95660  0.95233  Biso   1.000  C
  C197     1.0000 0.63450  0.04340  0.45233  Biso   1.000  C
  C198     1.0000 0.40890  0.36550  0.78567  Biso   1.000  C
  H157     1.0000 0.02440  0.36760  0.61190  Biso   1.000  H
  H158     1.0000 0.97560  0.63240  0.11190  Biso   1.000  H
  H159     1.0000 0.63240  0.65680  0.27857  Biso   1.000  H
  H160     1.0000 0.34320  0.97560  0.94523  Biso   1.000  H
  H161     1.0000 0.65680  0.02440  0.44523  Biso   1.000  H
  H162     1.0000 0.36760  0.34320  0.77857  Biso   1.000  H
  C199     1.0000 0.12990  0.35360  0.61880  Biso   1.000  C
  C200     1.0000 0.87010  0.64640  0.11880  Biso   1.000  C
  C201     1.0000 0.64640  0.77630  0.28547  Biso   1.000  C
  C202     1.0000 0.22370  0.87010  0.95213  Biso   1.000  C
  C203     1.0000 0.77630  0.12990  0.45213  Biso   1.000  C
  C204     1.0000 0.35360  0.22370  0.78547  Biso   1.000  C
  C205     1.0000 0.15070  0.38220  0.54060  Biso   1.000  C
  C206     1.0000 0.84930  0.61780  0.04060  Biso   1.000  C
  C207     1.0000 0.61780  0.76850  0.20727  Biso   1.000  C
  C208     1.0000 0.23150  0.84930  0.87393  Biso   1.000  C
  C209     1.0000 0.76850  0.15070  0.37393  Biso   1.000  C
  C210     1.0000 0.38220  0.23150  0.70727  Biso   1.000  C
  H163     1.0000 0.16140  0.42220  0.53670  Biso   1.000  H
  H164     1.0000 0.83860  0.57780  0.03670  Biso   1.000  H
  H165     1.0000 0.57780  0.73920  0.20337  Biso   1.000  H
  H166     1.0000 0.26080  0.83860  0.87003  Biso   1.000  H
  H167     1.0000 0.73920  0.16140  0.37003  Biso   1.000  H
  H168     1.0000 0.42220  0.26080  0.70337  Biso   1.000  H
  C211     1.0000 0.15630  0.35500  0.46950  Biso   1.000  C
  C212     1.0000 0.84370  0.64500  0.96950  Biso   1.000  C
  C213     1.0000 0.64500  0.80130  0.13617  Biso   1.000  C
  C214     1.0000 0.19870  0.84370  0.80283  Biso   1.000  C
  C215     1.0000 0.80130  0.15630  0.30283  Biso   1.000  C
  C216     1.0000 0.35500  0.19870  0.63617  Biso   1.000  C
  H169     1.0000 0.17020  0.37560  0.41820  Biso   1.000  H
  H170     1.0000 0.82980  0.62440  0.91820  Biso   1.000  H
  H171     1.0000 0.62440  0.79460  0.08487  Biso   1.000  H
  H172     1.0000 0.20540  0.82980  0.75153  Biso   1.000  H
  H173     1.0000 0.79460  0.17020  0.25153  Biso   1.000  H
  H174     1.0000 0.37560  0.20540  0.58487  Biso   1.000  H
  C217     1.0000 0.14060  0.29580  0.47680  Biso   1.000  C
  C218     1.0000 0.85940  0.70420  0.97680  Biso   1.000  C
  C219     1.0000 0.70420  0.84480  0.14347  Biso   1.000  C
  C220     1.0000 0.15520  0.85940  0.81013  Biso   1.000  C
  C221     1.0000 0.84480  0.14060  0.31013  Biso   1.000  C
  C222     1.0000 0.29580  0.15520  0.64347  Biso   1.000  C
  H175     1.0000 0.14480  0.27630  0.42970  Biso   1.000  H
  H176     1.0000 0.85520  0.72370  0.92970  Biso   1.000  H
  H177     1.0000 0.72370  0.86850  0.09637  Biso   1.000  H
  H178     1.0000 0.13150  0.85520  0.76303  Biso   1.000  H
  H179     1.0000 0.86850  0.14480  0.26303  Biso   1.000  H
  H180     1.0000 0.27630  0.13150  0.59637  Biso   1.000  H
  C223     1.0000 0.11860  0.26440  0.55270  Biso   1.000  C
  C224     1.0000 0.88140  0.73560  0.05270  Biso   1.000  C
  C225     1.0000 0.73560  0.85420  0.21937  Biso   1.000  C
  C226     1.0000 0.14580  0.88140  0.88603  Biso   1.000  C
  C227     1.0000 0.85420  0.11860  0.38603  Biso   1.000  C
  C228     1.0000 0.26440  0.14580  0.71937  Biso   1.000  C
  H181     1.0000 0.10780  0.22430  0.55570  Biso   1.000  H
  H182     1.0000 0.89220  0.77570  0.05570  Biso   1.000  H
  H183     1.0000 0.77570  0.88350  0.22237  Biso   1.000  H
  H184     1.0000 0.11650  0.89220  0.88903  Biso   1.000  H
  H185     1.0000 0.88350  0.10780  0.38903  Biso   1.000  H
  H186     1.0000 0.22430  0.11650  0.72237  Biso   1.000  H
  C229     1.0000 0.11270  0.29290  0.62400  Biso   1.000  C
  C230     1.0000 0.88730  0.70710  0.12400  Biso   1.000  C
  C231     1.0000 0.70710  0.81980  0.29067  Biso   1.000  C
  C232     1.0000 0.18020  0.88730  0.95733  Biso   1.000  C
  C233     1.0000 0.81980  0.11270  0.45733  Biso   1.000  C
  C234     1.0000 0.29290  0.18020  0.79067  Biso   1.000  C
  H187     1.0000 0.09740  0.27190  0.67460  Biso   1.000  H
  H188     1.0000 0.90260  0.72810  0.17460  Biso   1.000  H
  H189     1.0000 0.72810  0.82550  0.34127  Biso   1.000  H
  H190     1.0000 0.17450  0.90260  0.00793  Biso   1.000  H
  H191     1.0000 0.82550  0.09740  0.50793  Biso   1.000  H
  H192     1.0000 0.27190  0.17450  0.84127  Biso   1.000  H
  C235     1.0000 0.20310  0.44660  0.73540  Biso   1.000  C
  C236     1.0000 0.79690  0.55340  0.23540  Biso   1.000  C
  C237     1.0000 0.55340  0.75650  0.40207  Biso   1.000  C
  C238     1.0000 0.24350  0.79690  0.06873  Biso   1.000  C
  C239     1.0000 0.75650  0.20310  0.56873  Biso   1.000  C
  C240     1.0000 0.44660  0.24350  0.90207  Biso   1.000  C
  H193     1.0000 0.20430  0.47710  0.77270  Biso   1.000  H
  H194     1.0000 0.79570  0.52290  0.27270  Biso   1.000  H
  H195     1.0000 0.52290  0.72720  0.43937  Biso   1.000  H
  H196     1.0000 0.27280  0.79570  0.10603  Biso   1.000  H
  H197     1.0000 0.72720  0.20430  0.60603  Biso   1.000  H
  H198     1.0000 0.47710  0.27280  0.93937  Biso   1.000  H
  H199     1.0000 0.22250  0.46590  0.68230  Biso   1.000  H
  H200     1.0000 0.77750  0.53410  0.18230  Biso   1.000  H
  H201     1.0000 0.53410  0.75660  0.34897  Biso   1.000  H
  H202     1.0000 0.24340  0.77750  0.01563  Biso   1.000  H
  H203     1.0000 0.75660  0.22250  0.51563  Biso   1.000  H
  H204     1.0000 0.46590  0.24340  0.84897  Biso   1.000  H
  C241     1.0000 0.26550  0.38220  0.69550  Biso   1.000  C
  C242     1.0000 0.73450  0.61780  0.19550  Biso   1.000  C
  C243     1.0000 0.61780  0.88330  0.36217  Biso   1.000  C
  C244     1.0000 0.11670  0.73450  0.02883  Biso   1.000  C
  C245     1.0000 0.88330  0.26550  0.52883  Biso   1.000  C
  C246     1.0000 0.38220  0.11670  0.86217  Biso   1.000  C
  C247     1.0000 0.28720  0.41070  0.61950  Biso   1.000  C
  C248     1.0000 0.71280  0.58930  0.11950  Biso   1.000  C
  C249     1.0000 0.58930  0.87650  0.28617  Biso   1.000  C
  C250     1.0000 0.12350  0.71280  0.95283  Biso   1.000  C
  C251     1.0000 0.87650  0.28720  0.45283  Biso   1.000  C
  C252     1.0000 0.41070  0.12350  0.78617  Biso   1.000  C
  H205     1.0000 0.29260  0.44890  0.61220  Biso   1.000  H
  H206     1.0000 0.70740  0.55110  0.11220  Biso   1.000  H
  H207     1.0000 0.55110  0.84370  0.27887  Biso   1.000  H
  H208     1.0000 0.15630  0.70740  0.94553  Biso   1.000  H
  H209     1.0000 0.84370  0.29260  0.44553  Biso   1.000  H
  H210     1.0000 0.44890  0.15630  0.77887  Biso   1.000  H
  C253     1.0000 0.30100  0.38540  0.55430  Biso   1.000  C
  C254     1.0000 0.69900  0.61460  0.05430  Biso   1.000  C
  C255     1.0000 0.61460  0.91560  0.22097  Biso   1.000  C
  C256     1.0000 0.08440  0.69900  0.88763  Biso   1.000  C
  C257     1.0000 0.91560  0.30100  0.38763  Biso   1.000  C
  C258     1.0000 0.38540  0.08440  0.72097  Biso   1.000  C
  H211     1.0000 0.31290  0.40490  0.50200  Biso   1.000  H
  H212     1.0000 0.68710  0.59510  0.00200  Biso   1.000  H
  H213     1.0000 0.59510  0.90800  0.16867  Biso   1.000  H
  H214     1.0000 0.09200  0.68710  0.83533  Biso   1.000  H
  H215     1.0000 0.90800  0.31290  0.33533  Biso   1.000  H
  H216     1.0000 0.40490  0.09200  0.66867  Biso   1.000  H
  C259     1.0000 0.29740  0.32970  0.56520  Biso   1.000  C
  C260     1.0000 0.70260  0.67030  0.06520  Biso   1.000  C
  C261     1.0000 0.67030  0.96770  0.23187  Biso   1.000  C
  C262     1.0000 0.03230  0.70260  0.89853  Biso   1.000  C
  C263     1.0000 0.96770  0.29740  0.39853  Biso   1.000  C
  C264     1.0000 0.32970  0.03230  0.73187  Biso   1.000  C
  H217     1.0000 0.31000  0.31320  0.52300  Biso   1.000  H
  H218     1.0000 0.69000  0.68680  0.02300  Biso   1.000  H
  H219     1.0000 0.68680  0.99680  0.18967  Biso   1.000  H
  H220     1.0000 0.00320  0.69000  0.85633  Biso   1.000  H
  H221     1.0000 0.99680  0.31000  0.35633  Biso   1.000  H
  H222     1.0000 0.31320  0.00320  0.68967  Biso   1.000  H
  C265     1.0000 0.27440  0.30080  0.64100  Biso   1.000  C
  C266     1.0000 0.72560  0.69920  0.14100  Biso   1.000  C
  C267     1.0000 0.69920  0.97360  0.30767  Biso   1.000  C
  C268     1.0000 0.02640  0.72560  0.97433  Biso   1.000  C
  C269     1.0000 0.97360  0.27440  0.47433  Biso   1.000  C
  C270     1.0000 0.30080  0.02640  0.80767  Biso   1.000  C
  H223     1.0000 0.26760  0.26210  0.64770  Biso   1.000  H
  H224     1.0000 0.73240  0.73790  0.14770  Biso   1.000  H
  H225     1.0000 0.73790  0.00550  0.31437  Biso   1.000  H
  H226     1.0000 0.99450  0.73240  0.98103  Biso   1.000  H
  H227     1.0000 0.00550  0.26760  0.48103  Biso   1.000  H
  H228     1.0000 0.26210  0.99450  0.81437  Biso   1.000  H
  C271     1.0000 0.26130  0.32670  0.70660  Biso   1.000  C
  C272     1.0000 0.73870  0.67330  0.20660  Biso   1.000  C
  C273     1.0000 0.67330  0.93460  0.37327  Biso   1.000  C
  C274     1.0000 0.06540  0.73870  0.03993  Biso   1.000  C
  C275     1.0000 0.93460  0.26130  0.53993  Biso   1.000  C
  C276     1.0000 0.32670  0.06540  0.87327  Biso   1.000  C
  H229     1.0000 0.24950  0.30730  0.75900  Biso   1.000  H
  H230     1.0000 0.75050  0.69270  0.25900  Biso   1.000  H
  H231     1.0000 0.69270  0.94220  0.42567  Biso   1.000  H
  H232     1.0000 0.05780  0.75050  0.09233  Biso   1.000  H
  H233     1.0000 0.94220  0.24950  0.59233  Biso   1.000  H
  H234     1.0000 0.30730  0.05780  0.92567  Biso   1.000  H
  C277     1.0000 0.31660  0.48640  0.80710  Biso   1.000  C
  C278     1.0000 0.68340  0.51360  0.30710  Biso   1.000  C
  C279     1.0000 0.51360  0.83020  0.47377  Biso   1.000  C
  C280     1.0000 0.16980  0.68340  0.14043  Biso   1.000  C
  C281     1.0000 0.83020  0.31660  0.64043  Biso   1.000  C
  C282     1.0000 0.48640  0.16980  0.97377  Biso   1.000  C
  C283     1.0000 0.34480  0.49060  0.88450  Biso   1.000  C
  C284     1.0000 0.65520  0.50940  0.38450  Biso   1.000  C
  C285     1.0000 0.50940  0.85420  0.55117  Biso   1.000  C
  C286     1.0000 0.14580  0.65520  0.21783  Biso   1.000  C
  C287     1.0000 0.85420  0.34480  0.71783  Biso   1.000  C
  C288     1.0000 0.49060  0.14580  0.05117  Biso   1.000  C
  H235     1.0000 0.32890  0.45830  0.92180  Biso   1.000  H
  H236     1.0000 0.67110  0.54170  0.42180  Biso   1.000  H
  H237     1.0000 0.54170  0.87060  0.58847  Biso   1.000  H
  H238     1.0000 0.12940  0.67110  0.25513  Biso   1.000  H
  H239     1.0000 0.87060  0.32890  0.75513  Biso   1.000  H
  H240     1.0000 0.45830  0.12940  0.08847  Biso   1.000  H
  C289     1.0000 0.39660  0.54320  0.90610  Biso   1.000  C
  C290     1.0000 0.60340  0.45680  0.40610  Biso   1.000  C
  C291     1.0000 0.45680  0.85340  0.57277  Biso   1.000  C
  C292     1.0000 0.14660  0.60340  0.23943  Biso   1.000  C
  C293     1.0000 0.85340  0.39660  0.73943  Biso   1.000  C
  C294     1.0000 0.54320  0.14660  0.07277  Biso   1.000  C
  H241     1.0000 0.41550  0.54600  0.95790  Biso   1.000  H
  H242     1.0000 0.58450  0.45400  0.45790  Biso   1.000  H
  H243     1.0000 0.45400  0.86950  0.62457  Biso   1.000  H
  H244     1.0000 0.13050  0.58450  0.29123  Biso   1.000  H
  H245     1.0000 0.86950  0.41550  0.79123  Biso   1.000  H
  H246     1.0000 0.54600  0.13050  0.12457  Biso   1.000  H
  C295     1.0000 0.42030  0.59150  0.85040  Biso   1.000  C
  C296     1.0000 0.57970  0.40850  0.35040  Biso   1.000  C
  C297     1.0000 0.40850  0.82880  0.51707  Biso   1.000  C
  C298     1.0000 0.17120  0.57970  0.18373  Biso   1.000  C
  C299     1.0000 0.82880  0.42030  0.68373  Biso   1.000  C
  C300     1.0000 0.59150  0.17120  0.01707  Biso   1.000  C
  H247     1.0000 0.45500  0.62670  0.86490  Biso   1.000  H
  H248     1.0000 0.54500  0.37330  0.36490  Biso   1.000  H
  H249     1.0000 0.37330  0.82830  0.53157  Biso   1.000  H
  H250     1.0000 0.17170  0.54500  0.19823  Biso   1.000  H
  H251     1.0000 0.82830  0.45500  0.69823  Biso   1.000  H
  H252     1.0000 0.62670  0.17170  0.03157  Biso   1.000  H
  C301     1.0000 0.39220  0.58730  0.77310  Biso   1.000  C
  C302     1.0000 0.60780  0.41270  0.27310  Biso   1.000  C
  C303     1.0000 0.41270  0.80490  0.43977  Biso   1.000  C
  C304     1.0000 0.19510  0.60780  0.10643  Biso   1.000  C
  C305     1.0000 0.80490  0.39220  0.60643  Biso   1.000  C
  C306     1.0000 0.58730  0.19510  0.93977  Biso   1.000  C
  H253     1.0000 0.40800  0.61970  0.73580  Biso   1.000  H
  H254     1.0000 0.59200  0.38030  0.23580  Biso   1.000  H
  H255     1.0000 0.38030  0.78830  0.40247  Biso   1.000  H
  H256     1.0000 0.21170  0.59200  0.06913  Biso   1.000  H
  H257     1.0000 0.78830  0.40800  0.56913  Biso   1.000  H
  H258     1.0000 0.61970  0.21170  0.90247  Biso   1.000  H
  C307     1.0000 0.34030  0.53480  0.75140  Biso   1.000  C
  C308     1.0000 0.65970  0.46520  0.25140  Biso   1.000  C
  C309     1.0000 0.46520  0.80550  0.41807  Biso   1.000  C
  C310     1.0000 0.19450  0.65970  0.08473  Biso   1.000  C
  C311     1.0000 0.80550  0.34030  0.58473  Biso   1.000  C
  C312     1.0000 0.53480  0.19450  0.91807  Biso   1.000  C
  H259     1.0000 0.32150  0.53200  0.69970  Biso   1.000  H
  H260     1.0000 0.67850  0.46800  0.19970  Biso   1.000  H
  H261     1.0000 0.46800  0.78950  0.36637  Biso   1.000  H
  H262     1.0000 0.21050  0.67850  0.03303  Biso   1.000  H
  H263     1.0000 0.78950  0.32150  0.53303  Biso   1.000  H
  H264     1.0000 0.53200  0.21050  0.86637  Biso   1.000  H
  C313     1.0000 0.32370  0.48280  0.80740  Biso   1.000  C
  C314     1.0000 0.67630  0.51720  0.30740  Biso   1.000  C
  C315     1.0000 0.51720  0.84090  0.47407  Biso   1.000  C
  C316     1.0000 0.15910  0.67630  0.14073  Biso   1.000  C
  C317     1.0000 0.84090  0.32370  0.64073  Biso   1.000  C
  C318     1.0000 0.48280  0.15910  0.97407  Biso   1.000  C
  C319     1.0000 0.37170  0.47400  0.82330  Biso   1.000  C
  C320     1.0000 0.62830  0.52600  0.32330  Biso   1.000  C
  C321     1.0000 0.52600  0.89770  0.48997  Biso   1.000  C
  C322     1.0000 0.10230  0.62830  0.15663  Biso   1.000  C
  C323     1.0000 0.89770  0.37170  0.65663  Biso   1.000  C
  C324     1.0000 0.47400  0.10230  0.98997  Biso   1.000  C
  H265     1.0000 0.36570  0.43540  0.82670  Biso   1.000  H
  H266     1.0000 0.63430  0.56460  0.32670  Biso   1.000  H
  H267     1.0000 0.56460  0.93030  0.49337  Biso   1.000  H
  H268     1.0000 0.06970  0.63430  0.16003  Biso   1.000  H
  H269     1.0000 0.93030  0.36570  0.66003  Biso   1.000  H
  H270     1.0000 0.43540  0.06970  0.99337  Biso   1.000  H
  C325     1.0000 0.42880  0.52290  0.83410  Biso   1.000  C
  C326     1.0000 0.57120  0.47710  0.33410  Biso   1.000  C
  C327     1.0000 0.47710  0.90590  0.50077  Biso   1.000  C
  C328     1.0000 0.09410  0.57120  0.16743  Biso   1.000  C
  C329     1.0000 0.90590  0.42880  0.66743  Biso   1.000  C
  C330     1.0000 0.52290  0.09410  0.00077  Biso   1.000  C
  H271     1.0000 0.46090  0.51700  0.84480  Biso   1.000  H
  H272     1.0000 0.53910  0.48300  0.34480  Biso   1.000  H
  H273     1.0000 0.48300  0.94390  0.51147  Biso   1.000  H
  H274     1.0000 0.05610  0.53910  0.17813  Biso   1.000  H
  H275     1.0000 0.94390  0.46090  0.67813  Biso   1.000  H
  H276     1.0000 0.51700  0.05610  0.01147  Biso   1.000  H
  C331     1.0000 0.43780  0.58060  0.82900  Biso   1.000  C
  C332     1.0000 0.56220  0.41940  0.32900  Biso   1.000  C
  C333     1.0000 0.41940  0.85720  0.49567  Biso   1.000  C
  C334     1.0000 0.14280  0.56220  0.16233  Biso   1.000  C
  C335     1.0000 0.85720  0.43780  0.66233  Biso   1.000  C
  C336     1.0000 0.58060  0.14280  0.99567  Biso   1.000  C
  H277     1.0000 0.47590  0.61330  0.83630  Biso   1.000  H
  H278     1.0000 0.52410  0.38670  0.33630  Biso   1.000  H
  H279     1.0000 0.38670  0.86260  0.50297  Biso   1.000  H
  H280     1.0000 0.13740  0.52410  0.16963  Biso   1.000  H
  H281     1.0000 0.86260  0.47590  0.66963  Biso   1.000  H
  H282     1.0000 0.61330  0.13740  0.00297  Biso   1.000  H
  C337     1.0000 0.38970  0.58930  0.81320  Biso   1.000  C
  C338     1.0000 0.61030  0.41070  0.31320  Biso   1.000  C
  C339     1.0000 0.41070  0.80040  0.47987  Biso   1.000  C
  C340     1.0000 0.19960  0.61030  0.14653  Biso   1.000  C
  C341     1.0000 0.80040  0.38970  0.64653  Biso   1.000  C
  C342     1.0000 0.58930  0.19960  0.97987  Biso   1.000  C
  H283     1.0000 0.39580  0.62790  0.80980  Biso   1.000  H
  H284     1.0000 0.60420  0.37210  0.30980  Biso   1.000  H
  H285     1.0000 0.37210  0.76790  0.47647  Biso   1.000  H
  H286     1.0000 0.23210  0.60420  0.14313  Biso   1.000  H
  H287     1.0000 0.76790  0.39580  0.64313  Biso   1.000  H
  H288     1.0000 0.62790  0.23210  0.97647  Biso   1.000  H
  C343     1.0000 0.33270  0.54040  0.80230  Biso   1.000  C
  C344     1.0000 0.66730  0.45960  0.30230  Biso   1.000  C
  C345     1.0000 0.45960  0.79230  0.46897  Biso   1.000  C
  C346     1.0000 0.20770  0.66730  0.13563  Biso   1.000  C
  C347     1.0000 0.79230  0.33270  0.63563  Biso   1.000  C
  C348     1.0000 0.54040  0.20770  0.96897  Biso   1.000  C
  H289     1.0000 0.30060  0.54630  0.79170  Biso   1.000  H
  H290     1.0000 0.69940  0.45370  0.29170  Biso   1.000  H
  H291     1.0000 0.45370  0.75430  0.45837  Biso   1.000  H
  H292     1.0000 0.24570  0.69940  0.12503  Biso   1.000  H
  H293     1.0000 0.75430  0.30060  0.62503  Biso   1.000  H
  H294     1.0000 0.54630  0.24570  0.95837  Biso   1.000  H
