data_image0
_cell_length_a       15.7158
_cell_length_b       21.862
_cell_length_c       23.7775
_cell_angle_alpha    90
_cell_angle_beta     108.778
_cell_angle_gamma    90

_symmetry_space_group_name_H-M    "P 1"
_symmetry_int_tables_number       1

loop_
  _symmetry_equiv_pos_as_xyz
  'x, y, z'

loop_
  _atom_site_label
  _atom_site_occupancy
  _atom_site_fract_x
  _atom_site_fract_y
  _atom_site_fract_z
  _atom_site_thermal_displace_type
  _atom_site_B_iso_or_equiv
  _atom_site_type_symbol
  Cu1      1.0000 0.24027  0.74140  0.20986  Biso   1.000  Cu
  Cu2      1.0000 0.25973  0.24140  0.29014  Biso   1.000  Cu
  Cu3      1.0000 0.75973  0.25860  0.79014  Biso   1.000  Cu
  Cu4      1.0000 0.74027  0.75860  0.70986  Biso   1.000  Cu
  Cu5      1.0000 0.36021  0.99271  0.25344  Biso   1.000  Cu
  Cu6      1.0000 0.13979  0.49271  0.24656  Biso   1.000  Cu
  Cu7      1.0000 0.63979  0.00729  0.74656  Biso   1.000  Cu
  Cu8      1.0000 0.86021  0.50729  0.75344  Biso   1.000  Cu
  Cu9      1.0000 0.48786  0.93076  0.17119  Biso   1.000  Cu
  Cu10     1.0000 0.01214  0.43076  0.32881  Biso   1.000  Cu
  Cu11     1.0000 0.51214  0.06924  0.82881  Biso   1.000  Cu
  Cu12     1.0000 0.98786  0.56924  0.67119  Biso   1.000  Cu
  Cu13     1.0000 0.94958  0.55813  0.16474  Biso   1.000  Cu
  Cu14     1.0000 0.55042  0.05813  0.33526  Biso   1.000  Cu
  Cu15     1.0000 0.05042  0.44187  0.83526  Biso   1.000  Cu
  Cu16     1.0000 0.44958  0.94187  0.66474  Biso   1.000  Cu
  Cu17     1.0000 0.96725  0.55820  0.30079  Biso   1.000  Cu
  Cu18     1.0000 0.53275  0.05820  0.19921  Biso   1.000  Cu
  Cu19     1.0000 0.03275  0.44180  0.69921  Biso   1.000  Cu
  Cu20     1.0000 0.46725  0.94180  0.80079  Biso   1.000  Cu
  Cu21     1.0000 0.60785  0.92308  0.30671  Biso   1.000  Cu
  Cu22     1.0000 0.89215  0.42308  0.19329  Biso   1.000  Cu
  Cu23     1.0000 0.39215  0.07692  0.69329  Biso   1.000  Cu
  Cu24     1.0000 0.10785  0.57692  0.80671  Biso   1.000  Cu
  N1       1.0000 0.85190  0.56283  0.24591  Biso   1.000  N
  N2       1.0000 0.64810  0.06283  0.25409  Biso   1.000  N
  N3       1.0000 0.14810  0.43717  0.75409  Biso   1.000  N
  N4       1.0000 0.35190  0.93717  0.74591  Biso   1.000  N
  N5       1.0000 0.84230  0.57128  0.18590  Biso   1.000  N
  N6       1.0000 0.65770  0.07128  0.31410  Biso   1.000  N
  N7       1.0000 0.15770  0.42872  0.81410  Biso   1.000  N
  N8       1.0000 0.34230  0.92872  0.68590  Biso   1.000  N
  N9       1.0000 0.70730  0.55400  0.19570  Biso   1.000  N
  N10      1.0000 0.79270  0.05400  0.30430  Biso   1.000  N
  N11      1.0000 0.29270  0.44600  0.80430  Biso   1.000  N
  N12      1.0000 0.20730  0.94600  0.69570  Biso   1.000  N
  N13      1.0000 0.65910  0.89820  0.24940  Biso   1.000  N
  N14      1.0000 0.84090  0.39820  0.25060  Biso   1.000  N
  N15      1.0000 0.34090  0.10180  0.75060  Biso   1.000  N
  N16      1.0000 0.15910  0.60180  0.74940  Biso   1.000  N
  N17      1.0000 0.60920  0.90330  0.19076  Biso   1.000  N
  N18      1.0000 0.89080  0.40330  0.30924  Biso   1.000  N
  N19      1.0000 0.39080  0.09670  0.80924  Biso   1.000  N
  N20      1.0000 0.10920  0.59670  0.69076  Biso   1.000  N
  N21      1.0000 0.72420  0.84150  0.19770  Biso   1.000  N
  N22      1.0000 0.77580  0.34150  0.30230  Biso   1.000  N
  N23      1.0000 0.27580  0.15850  0.80230  Biso   1.000  N
  N24      1.0000 0.22420  0.65850  0.69770  Biso   1.000  N
  N25      1.0000 0.95200  0.43323  0.13809  Biso   1.000  N
  N26      1.0000 0.54800  0.93323  0.36191  Biso   1.000  N
  N27      1.0000 0.04800  0.56677  0.86191  Biso   1.000  N
  N28      1.0000 0.45200  0.06677  0.63809  Biso   1.000  N
  N29      1.0000 0.98180  0.48866  0.12380  Biso   1.000  N
  N30      1.0000 0.51820  0.98866  0.37620  Biso   1.000  N
  N31      1.0000 0.01820  0.51134  0.87620  Biso   1.000  N
  N32      1.0000 0.48180  0.01134  0.62380  Biso   1.000  N
  N33      1.0000 0.05260  0.41350  0.09308  Biso   1.000  N
  N34      1.0000 0.44740  0.91350  0.40692  Biso   1.000  N
  N35      1.0000 0.94740  0.58650  0.90692  Biso   1.000  N
  N36      1.0000 0.55260  0.08650  0.59308  Biso   1.000  N
  N37      1.0000 0.35160  0.90918  0.23431  Biso   1.000  N
  N38      1.0000 0.14840  0.40918  0.26569  Biso   1.000  N
  N39      1.0000 0.64840  0.09082  0.76569  Biso   1.000  N
  N40      1.0000 0.85160  0.59082  0.73431  Biso   1.000  N
  N41      1.0000 0.41370  0.87870  0.21499  Biso   1.000  N
  N42      1.0000 0.08630  0.37870  0.28501  Biso   1.000  N
  N43      1.0000 0.58630  0.12130  0.78501  Biso   1.000  N
  N44      1.0000 0.91370  0.62130  0.71499  Biso   1.000  N
  N45      1.0000 0.30320  0.81463  0.21305  Biso   1.000  N
  N46      1.0000 0.19680  0.31463  0.28695  Biso   1.000  N
  N47      1.0000 0.69680  0.18537  0.78695  Biso   1.000  N
  N48      1.0000 0.80320  0.68537  0.71305  Biso   1.000  N
  N49      1.0000 0.39880  0.98863  0.12754  Biso   1.000  N
  N50      1.0000 0.10120  0.48863  0.37246  Biso   1.000  N
  N51      1.0000 0.60120  0.01137  0.87246  Biso   1.000  N
  N52      1.0000 0.89880  0.51137  0.62754  Biso   1.000  N
  N53      1.0000 0.41840  0.04930  0.14385  Biso   1.000  N
  N54      1.0000 0.08160  0.54930  0.35615  Biso   1.000  N
  N55      1.0000 0.58160  0.95070  0.85615  Biso   1.000  N
  N56      1.0000 0.91840  0.45070  0.64385  Biso   1.000  N
  N57      1.0000 0.27570  0.04400  0.08577  Biso   1.000  N
  N58      1.0000 0.22430  0.54400  0.41423  Biso   1.000  N
  N59      1.0000 0.72430  0.95600  0.91423  Biso   1.000  N
  N60      1.0000 0.77570  0.45600  0.58577  Biso   1.000  N
  N61      1.0000 0.14030  0.57593  0.22749  Biso   1.000  N
  N62      1.0000 0.35970  0.07593  0.27251  Biso   1.000  N
  N63      1.0000 0.85970  0.42407  0.77251  Biso   1.000  N
  N64      1.0000 0.64030  0.92407  0.72749  Biso   1.000  N
  N65      1.0000 0.06160  0.60739  0.20098  Biso   1.000  N
  N66      1.0000 0.43840  0.10739  0.29902  Biso   1.000  N
  N67      1.0000 0.93840  0.39261  0.79902  Biso   1.000  N
  N68      1.0000 0.56160  0.89261  0.70098  Biso   1.000  N
  N69      1.0000 0.17650  0.66862  0.20620  Biso   1.000  N
  N70      1.0000 0.32350  0.16862  0.29380  Biso   1.000  N
  N71      1.0000 0.82350  0.33138  0.79380  Biso   1.000  N
  N72      1.0000 0.67650  0.83138  0.70620  Biso   1.000  N
  C1       1.0000 0.77010  0.55240  0.24930  Biso   1.000  C
  C2       1.0000 0.72990  0.05240  0.25070  Biso   1.000  C
  C3       1.0000 0.22990  0.44760  0.75070  Biso   1.000  C
  C4       1.0000 0.27010  0.94760  0.74930  Biso   1.000  C
  C5       1.0000 0.75320  0.53710  0.30560  Biso   1.000  C
  C6       1.0000 0.74680  0.03710  0.19440  Biso   1.000  C
  C7       1.0000 0.24680  0.46290  0.69440  Biso   1.000  C
  C8       1.0000 0.25320  0.96290  0.80560  Biso   1.000  C
  C9       1.0000 0.69840  0.48810  0.30730  Biso   1.000  C
  C10      1.0000 0.80160  0.98810  0.19270  Biso   1.000  C
  C11      1.0000 0.30160  0.51190  0.69270  Biso   1.000  C
  C12      1.0000 0.19840  0.01190  0.80730  Biso   1.000  C
  H1       1.0000 0.66960  0.46630  0.27290  Biso   1.000  H
  H2       1.0000 0.83040  0.96630  0.22710  Biso   1.000  H
  H3       1.0000 0.33040  0.53370  0.72710  Biso   1.000  H
  H4       1.0000 0.16960  0.03370  0.77290  Biso   1.000  H
  C13      1.0000 0.68650  0.47150  0.36110  Biso   1.000  C
  C14      1.0000 0.81350  0.97150  0.13890  Biso   1.000  C
  C15      1.0000 0.31350  0.52850  0.63890  Biso   1.000  C
  C16      1.0000 0.18650  0.02850  0.86110  Biso   1.000  C
  H5       1.0000 0.65160  0.43770  0.36280  Biso   1.000  H
  H6       1.0000 0.84840  0.93770  0.13720  Biso   1.000  H
  H7       1.0000 0.34840  0.56230  0.63720  Biso   1.000  H
  H8       1.0000 0.15160  0.06230  0.86280  Biso   1.000  H
  C17      1.0000 0.72610  0.50510  0.41120  Biso   1.000  C
  C18      1.0000 0.77390  0.00510  0.08880  Biso   1.000  C
  C19      1.0000 0.27390  0.49490  0.58880  Biso   1.000  C
  C20      1.0000 0.22610  0.99490  0.91120  Biso   1.000  C
  H9       1.0000 0.71690  0.49500  0.44680  Biso   1.000  H
  H10      1.0000 0.78310  0.99500  0.05320  Biso   1.000  H
  H11      1.0000 0.28310  0.50500  0.55320  Biso   1.000  H
  H12      1.0000 0.21690  0.00500  0.94680  Biso   1.000  H
  C21      1.0000 0.78070  0.55510  0.40850  Biso   1.000  C
  C22      1.0000 0.71930  0.05510  0.09150  Biso   1.000  C
  C23      1.0000 0.21930  0.44490  0.59150  Biso   1.000  C
  C24      1.0000 0.28070  0.94490  0.90850  Biso   1.000  C
  H13      1.0000 0.80820  0.57800  0.44240  Biso   1.000  H
  H14      1.0000 0.69180  0.07800  0.05760  Biso   1.000  H
  H15      1.0000 0.19180  0.42200  0.55760  Biso   1.000  H
  H16      1.0000 0.30820  0.92200  0.94240  Biso   1.000  H
  C25      1.0000 0.79360  0.57000  0.35640  Biso   1.000  C
  C26      1.0000 0.70640  0.07000  0.14360  Biso   1.000  C
  C27      1.0000 0.20640  0.43000  0.64360  Biso   1.000  C
  C28      1.0000 0.29360  0.93000  0.85640  Biso   1.000  C
  H17      1.0000 0.83030  0.60300  0.35510  Biso   1.000  H
  H18      1.0000 0.66970  0.10300  0.14490  Biso   1.000  H
  H19      1.0000 0.16970  0.39700  0.64490  Biso   1.000  H
  H20      1.0000 0.33030  0.89700  0.85510  Biso   1.000  H
  C29      1.0000 0.75460  0.56660  0.15900  Biso   1.000  C
  C30      1.0000 0.74540  0.06660  0.34100  Biso   1.000  C
  C31      1.0000 0.24540  0.43340  0.84100  Biso   1.000  C
  C32      1.0000 0.25460  0.93340  0.65900  Biso   1.000  C
  C33      1.0000 0.71330  0.57660  0.09450  Biso   1.000  C
  C34      1.0000 0.78670  0.07660  0.40550  Biso   1.000  C
  C35      1.0000 0.28670  0.42340  0.90550  Biso   1.000  C
  C36      1.0000 0.21330  0.92340  0.59450  Biso   1.000  C
  C37      1.0000 0.62740  0.55520  0.06600  Biso   1.000  C
  C38      1.0000 0.87260  0.05520  0.43400  Biso   1.000  C
  C39      1.0000 0.37260  0.44480  0.93400  Biso   1.000  C
  C40      1.0000 0.12740  0.94480  0.56600  Biso   1.000  C
  H21      1.0000 0.59580  0.53360  0.08660  Biso   1.000  H
  H22      1.0000 0.90420  0.03360  0.41340  Biso   1.000  H
  H23      1.0000 0.40420  0.46640  0.91340  Biso   1.000  H
  H24      1.0000 0.09580  0.96640  0.58660  Biso   1.000  H
  C41      1.0000 0.58980  0.56680  0.00580  Biso   1.000  C
  C42      1.0000 0.91020  0.06680  0.49420  Biso   1.000  C
  C43      1.0000 0.41020  0.43320  0.99420  Biso   1.000  C
  C44      1.0000 0.08980  0.93320  0.50580  Biso   1.000  C
  H25      1.0000 0.53310  0.55120  0.98570  Biso   1.000  H
  H26      1.0000 0.96690  0.05120  0.51430  Biso   1.000  H
  H27      1.0000 0.46690  0.44880  0.01430  Biso   1.000  H
  H28      1.0000 0.03310  0.94880  0.48570  Biso   1.000  H
  C45      1.0000 0.63310  0.60030  0.97480  Biso   1.000  C
  C46      1.0000 0.86690  0.10030  0.52520  Biso   1.000  C
  C47      1.0000 0.36690  0.39970  0.02520  Biso   1.000  C
  C48      1.0000 0.13310  0.89970  0.47480  Biso   1.000  C
  H29      1.0000 0.60500  0.60880  0.93480  Biso   1.000  H
  H30      1.0000 0.89500  0.10880  0.56520  Biso   1.000  H
  H31      1.0000 0.39500  0.39120  0.06520  Biso   1.000  H
  H32      1.0000 0.10500  0.89120  0.43480  Biso   1.000  H
  C49      1.0000 0.71630  0.62060  0.00260  Biso   1.000  C
  C50      1.0000 0.78370  0.12060  0.49740  Biso   1.000  C
  C51      1.0000 0.28370  0.37940  0.99740  Biso   1.000  C
  C52      1.0000 0.21630  0.87940  0.50260  Biso   1.000  C
  H33      1.0000 0.74740  0.64170  0.98130  Biso   1.000  H
  H34      1.0000 0.75260  0.14170  0.51870  Biso   1.000  H
  H35      1.0000 0.25260  0.35830  0.01870  Biso   1.000  H
  H36      1.0000 0.24740  0.85830  0.48130  Biso   1.000  H
  C53      1.0000 0.75710  0.61030  0.06380  Biso   1.000  C
  C54      1.0000 0.74290  0.11030  0.43620  Biso   1.000  C
  C55      1.0000 0.24290  0.38970  0.93620  Biso   1.000  C
  C56      1.0000 0.25710  0.88970  0.56380  Biso   1.000  C
  H37      1.0000 0.81370  0.62640  0.08330  Biso   1.000  H
  H38      1.0000 0.68630  0.12640  0.41670  Biso   1.000  H
  H39      1.0000 0.18630  0.37360  0.91670  Biso   1.000  H
  H40      1.0000 0.31370  0.87360  0.58330  Biso   1.000  H
  C57      1.0000 0.72770  0.86080  0.25130  Biso   1.000  C
  C58      1.0000 0.77230  0.36080  0.24870  Biso   1.000  C
  C59      1.0000 0.27230  0.13920  0.74870  Biso   1.000  C
  C60      1.0000 0.22770  0.63920  0.75130  Biso   1.000  C
  C61      1.0000 0.79480  0.84260  0.30830  Biso   1.000  C
  C62      1.0000 0.70520  0.34260  0.19170  Biso   1.000  C
  C63      1.0000 0.20520  0.15740  0.69170  Biso   1.000  C
  C64      1.0000 0.29480  0.65740  0.80830  Biso   1.000  C
  C65      1.0000 0.83590  0.78660  0.31240  Biso   1.000  C
  C66      1.0000 0.66410  0.28660  0.18760  Biso   1.000  C
  C67      1.0000 0.16410  0.21340  0.68760  Biso   1.000  C
  C68      1.0000 0.33590  0.71340  0.81240  Biso   1.000  C
  H41      1.0000 0.82280  0.76010  0.28010  Biso   1.000  H
  H42      1.0000 0.67720  0.26010  0.21990  Biso   1.000  H
  H43      1.0000 0.17720  0.23990  0.71990  Biso   1.000  H
  H44      1.0000 0.32280  0.73990  0.78010  Biso   1.000  H
  C69      1.0000 0.89900  0.77080  0.36770  Biso   1.000  C
  C70      1.0000 0.60100  0.27080  0.13230  Biso   1.000  C
  C71      1.0000 0.10100  0.22920  0.63230  Biso   1.000  C
  C72      1.0000 0.39900  0.72920  0.86770  Biso   1.000  C
  H45      1.0000 0.93330  0.73550  0.37070  Biso   1.000  H
  H46      1.0000 0.56670  0.23550  0.12930  Biso   1.000  H
  H47      1.0000 0.06670  0.26450  0.62930  Biso   1.000  H
  H48      1.0000 0.43330  0.76450  0.87070  Biso   1.000  H
  C73      1.0000 0.91090  0.80580  0.41640  Biso   1.000  C
  C74      1.0000 0.58910  0.30580  0.08360  Biso   1.000  C
  C75      1.0000 0.08910  0.19420  0.58360  Biso   1.000  C
  C76      1.0000 0.41090  0.69420  0.91640  Biso   1.000  C
  H49      1.0000 0.94500  0.79130  0.45370  Biso   1.000  H
  H50      1.0000 0.55500  0.29130  0.04630  Biso   1.000  H
  H51      1.0000 0.05500  0.20870  0.54630  Biso   1.000  H
  H52      1.0000 0.44500  0.70870  0.95370  Biso   1.000  H
  C77      1.0000 0.87420  0.85980  0.41100  Biso   1.000  C
  C78      1.0000 0.62580  0.35980  0.08900  Biso   1.000  C
  C79      1.0000 0.12580  0.14020  0.58900  Biso   1.000  C
  C80      1.0000 0.37420  0.64020  0.91100  Biso   1.000  C
  H53      1.0000 0.88770  0.88550  0.44400  Biso   1.000  H
  H54      1.0000 0.61230  0.38550  0.05600  Biso   1.000  H
  H55      1.0000 0.11230  0.11450  0.55600  Biso   1.000  H
  H56      1.0000 0.38770  0.61450  0.94400  Biso   1.000  H
  C81      1.0000 0.81570  0.87990  0.35740  Biso   1.000  C
  C82      1.0000 0.68430  0.37990  0.14260  Biso   1.000  C
  C83      1.0000 0.18430  0.12010  0.64260  Biso   1.000  C
  C84      1.0000 0.31570  0.62010  0.85740  Biso   1.000  C
  H57      1.0000 0.79050  0.91880  0.35460  Biso   1.000  H
  H58      1.0000 0.70950  0.41880  0.14540  Biso   1.000  H
  H59      1.0000 0.20950  0.08120  0.64540  Biso   1.000  H
  H60      1.0000 0.29050  0.58120  0.85460  Biso   1.000  H
  C85      1.0000 0.65020  0.86910  0.16120  Biso   1.000  C
  C86      1.0000 0.84980  0.36910  0.33880  Biso   1.000  C
  C87      1.0000 0.34980  0.13090  0.83880  Biso   1.000  C
  C88      1.0000 0.15020  0.63090  0.66120  Biso   1.000  C
  C89      1.0000 0.61730  0.86290  0.09560  Biso   1.000  C
  C90      1.0000 0.88270  0.36290  0.40440  Biso   1.000  C
  C91      1.0000 0.38270  0.13710  0.90440  Biso   1.000  C
  C92      1.0000 0.11730  0.63710  0.59560  Biso   1.000  C
  C93      1.0000 0.62970  0.80970  0.06940  Biso   1.000  C
  C94      1.0000 0.87030  0.30970  0.43060  Biso   1.000  C
  C95      1.0000 0.37030  0.19030  0.93060  Biso   1.000  C
  C96      1.0000 0.12970  0.69030  0.56940  Biso   1.000  C
  H61      1.0000 0.65980  0.77700  0.09230  Biso   1.000  H
  H62      1.0000 0.84020  0.27700  0.40770  Biso   1.000  H
  H63      1.0000 0.34020  0.22300  0.90770  Biso   1.000  H
  H64      1.0000 0.15980  0.72300  0.59230  Biso   1.000  H
  C97      1.0000 0.59600  0.80470  0.00680  Biso   1.000  C
  C98      1.0000 0.90400  0.30470  0.49320  Biso   1.000  C
  C99      1.0000 0.40400  0.19530  0.99320  Biso   1.000  C
  C100     1.0000 0.09600  0.69530  0.50680  Biso   1.000  C
  H65      1.0000 0.60500  0.76960  0.98730  Biso   1.000  H
  H66      1.0000 0.89500  0.26960  0.51270  Biso   1.000  H
  H67      1.0000 0.39500  0.23040  0.01270  Biso   1.000  H
  H68      1.0000 0.10500  0.73040  0.48730  Biso   1.000  H
  C101     1.0000 0.54980  0.85370  0.97620  Biso   1.000  C
  C102     1.0000 0.95020  0.35370  0.52380  Biso   1.000  C
  C103     1.0000 0.45020  0.14630  0.02380  Biso   1.000  C
  C104     1.0000 0.04980  0.64630  0.47620  Biso   1.000  C
  H69      1.0000 0.52480  0.85010  0.93510  Biso   1.000  H
  H70      1.0000 0.97520  0.35010  0.56490  Biso   1.000  H
  H71      1.0000 0.47520  0.14990  0.06490  Biso   1.000  H
  H72      1.0000 0.02480  0.64990  0.43510  Biso   1.000  H
  C105     1.0000 0.53810  0.90550  0.00050  Biso   1.000  C
  C106     1.0000 0.96190  0.40550  0.49950  Biso   1.000  C
  C107     1.0000 0.46190  0.09450  0.99950  Biso   1.000  C
  C108     1.0000 0.03810  0.59450  0.50050  Biso   1.000  C
  H73      1.0000 0.50790  0.93790  0.97720  Biso   1.000  H
  H74      1.0000 0.99210  0.43790  0.52280  Biso   1.000  H
  H75      1.0000 0.49210  0.06210  0.02280  Biso   1.000  H
  H76      1.0000 0.00790  0.56210  0.47720  Biso   1.000  H
  C109     1.0000 0.57080  0.91090  0.06050  Biso   1.000  C
  C110     1.0000 0.92920  0.41090  0.43950  Biso   1.000  C
  C111     1.0000 0.42920  0.08910  0.93950  Biso   1.000  C
  C112     1.0000 0.07080  0.58910  0.56050  Biso   1.000  C
  H77      1.0000 0.56220  0.94710  0.07840  Biso   1.000  H
  H78      1.0000 0.93780  0.44710  0.42160  Biso   1.000  H
  H79      1.0000 0.43780  0.05290  0.92160  Biso   1.000  H
  H80      1.0000 0.06220  0.55290  0.57840  Biso   1.000  H
  C113     1.0000 0.99620  0.39030  0.11910  Biso   1.000  C
  C114     1.0000 0.50380  0.89030  0.38090  Biso   1.000  C
  C115     1.0000 0.00380  0.60970  0.88090  Biso   1.000  C
  C116     1.0000 0.49620  0.10970  0.61910  Biso   1.000  C
  C117     1.0000 0.97730  0.32400  0.12570  Biso   1.000  C
  C118     1.0000 0.52270  0.82400  0.37430  Biso   1.000  C
  C119     1.0000 0.02270  0.67600  0.87430  Biso   1.000  C
  C120     1.0000 0.47730  0.17600  0.62570  Biso   1.000  C
  C121     1.0000 0.04540  0.28340  0.13670  Biso   1.000  C
  C122     1.0000 0.45460  0.78340  0.36330  Biso   1.000  C
  C123     1.0000 0.95460  0.71660  0.86330  Biso   1.000  C
  C124     1.0000 0.54540  0.21660  0.63670  Biso   1.000  C
  H81      1.0000 0.10290  0.29640  0.13950  Biso   1.000  H
  H82      1.0000 0.39710  0.79640  0.36050  Biso   1.000  H
  H83      1.0000 0.89710  0.70360  0.86050  Biso   1.000  H
  H84      1.0000 0.60290  0.20360  0.63950  Biso   1.000  H
  C125     1.0000 0.02820  0.21980  0.14410  Biso   1.000  C
  C126     1.0000 0.47180  0.71980  0.35590  Biso   1.000  C
  C127     1.0000 0.97180  0.78020  0.85590  Biso   1.000  C
  C128     1.0000 0.52820  0.28020  0.64410  Biso   1.000  C
  H85      1.0000 0.07380  0.19070  0.15210  Biso   1.000  H
  H86      1.0000 0.42620  0.69070  0.34790  Biso   1.000  H
  H87      1.0000 0.92620  0.80930  0.84790  Biso   1.000  H
  H88      1.0000 0.57380  0.30930  0.65210  Biso   1.000  H
  C129     1.0000 0.94290  0.20440  0.13880  Biso   1.000  C
  C130     1.0000 0.55710  0.70440  0.36120  Biso   1.000  C
  C131     1.0000 0.05710  0.79560  0.86120  Biso   1.000  C
  C132     1.0000 0.44290  0.29560  0.63880  Biso   1.000  C
  H89      1.0000 0.93110  0.16320  0.14300  Biso   1.000  H
  H90      1.0000 0.56890  0.66320  0.35700  Biso   1.000  H
  H91      1.0000 0.06890  0.83680  0.85700  Biso   1.000  H
  H92      1.0000 0.43110  0.33680  0.64300  Biso   1.000  H
  C133     1.0000 0.87380  0.24330  0.12800  Biso   1.000  C
  C134     1.0000 0.62620  0.74330  0.37200  Biso   1.000  C
  C135     1.0000 0.12620  0.75670  0.87200  Biso   1.000  C
  C136     1.0000 0.37380  0.25670  0.62800  Biso   1.000  C
  H93      1.0000 0.81650  0.22990  0.12560  Biso   1.000  H
  H94      1.0000 0.68350  0.72990  0.37440  Biso   1.000  H
  H95      1.0000 0.18350  0.77010  0.87440  Biso   1.000  H
  H96      1.0000 0.31650  0.27010  0.62560  Biso   1.000  H
  C137     1.0000 0.89090  0.30450  0.12050  Biso   1.000  C
  C138     1.0000 0.60910  0.80450  0.37950  Biso   1.000  C
  C139     1.0000 0.10910  0.69550  0.87950  Biso   1.000  C
  C140     1.0000 0.39090  0.19550  0.62050  Biso   1.000  C
  H97      1.0000 0.84420  0.33270  0.11190  Biso   1.000  H
  H98      1.0000 0.65580  0.83270  0.38810  Biso   1.000  H
  H99      1.0000 0.15580  0.66730  0.88810  Biso   1.000  H
  H100     1.0000 0.34420  0.16730  0.61190  Biso   1.000  H
  C141     1.0000 0.04130  0.47440  0.09690  Biso   1.000  C
  C142     1.0000 0.45870  0.97440  0.40310  Biso   1.000  C
  C143     1.0000 0.95870  0.52560  0.90310  Biso   1.000  C
  C144     1.0000 0.54130  0.02560  0.59690  Biso   1.000  C
  C145     1.0000 0.08960  0.51810  0.07180  Biso   1.000  C
  C146     1.0000 0.41040  0.01810  0.42820  Biso   1.000  C
  C147     1.0000 0.91040  0.48190  0.92820  Biso   1.000  C
  C148     1.0000 0.58960  0.98190  0.57180  Biso   1.000  C
  C149     1.0000 0.16200  0.50090  0.05660  Biso   1.000  C
  C150     1.0000 0.33800  0.00090  0.44340  Biso   1.000  C
  C151     1.0000 0.83800  0.49910  0.94340  Biso   1.000  C
  C152     1.0000 0.66200  0.99910  0.55660  Biso   1.000  C
  H101     1.0000 0.18140  0.46060  0.06250  Biso   1.000  H
  H102     1.0000 0.31860  0.96060  0.43750  Biso   1.000  H
  H103     1.0000 0.81860  0.53940  0.93750  Biso   1.000  H
  H104     1.0000 0.68140  0.03940  0.56250  Biso   1.000  H
  C153     1.0000 0.20800  0.54210  0.03250  Biso   1.000  C
  C154     1.0000 0.29200  0.04210  0.46750  Biso   1.000  C
  C155     1.0000 0.79200  0.45790  0.96750  Biso   1.000  C
  C156     1.0000 0.70800  0.95790  0.53250  Biso   1.000  C
  H105     1.0000 0.25830  0.52910  0.02330  Biso   1.000  H
  H106     1.0000 0.24170  0.02910  0.47670  Biso   1.000  H
  H107     1.0000 0.74170  0.47090  0.97670  Biso   1.000  H
  H108     1.0000 0.75830  0.97090  0.52330  Biso   1.000  H
  C157     1.0000 0.18050  0.60090  0.02220  Biso   1.000  C
  C158     1.0000 0.31950  0.10090  0.47780  Biso   1.000  C
  C159     1.0000 0.81950  0.39910  0.97780  Biso   1.000  C
  C160     1.0000 0.68050  0.89910  0.52220  Biso   1.000  C
  H109     1.0000 0.21190  0.62840  0.00640  Biso   1.000  H
  H110     1.0000 0.28810  0.12840  0.49360  Biso   1.000  H
  H111     1.0000 0.78810  0.37160  0.99360  Biso   1.000  H
  H112     1.0000 0.71190  0.87160  0.50640  Biso   1.000  H
  C161     1.0000 0.10780  0.61880  0.03500  Biso   1.000  C
  C162     1.0000 0.39220  0.11880  0.46500  Biso   1.000  C
  C163     1.0000 0.89220  0.38120  0.96500  Biso   1.000  C
  C164     1.0000 0.60780  0.88120  0.53500  Biso   1.000  C
  H113     1.0000 0.08800  0.65900  0.02800  Biso   1.000  H
  H114     1.0000 0.41200  0.15900  0.47200  Biso   1.000  H
  H115     1.0000 0.91200  0.34100  0.97200  Biso   1.000  H
  H116     1.0000 0.58800  0.84100  0.52800  Biso   1.000  H
  C165     1.0000 0.06100  0.57730  0.05900  Biso   1.000  C
  C166     1.0000 0.43900  0.07730  0.44100  Biso   1.000  C
  C167     1.0000 0.93900  0.42270  0.94100  Biso   1.000  C
  C168     1.0000 0.56100  0.92270  0.55900  Biso   1.000  C
  H117     1.0000 0.00930  0.59020  0.06650  Biso   1.000  H
  H118     1.0000 0.49070  0.09020  0.43350  Biso   1.000  H
  H119     1.0000 0.99070  0.40980  0.93350  Biso   1.000  H
  H120     1.0000 0.50930  0.90980  0.56650  Biso   1.000  H
  C169     1.0000 0.28670  0.87019  0.23344  Biso   1.000  C
  C170     1.0000 0.21330  0.37019  0.26656  Biso   1.000  C
  C171     1.0000 0.71330  0.12981  0.76656  Biso   1.000  C
  C172     1.0000 0.78670  0.62981  0.73344  Biso   1.000  C
  C173     1.0000 0.20710  0.88617  0.25050  Biso   1.000  C
  C174     1.0000 0.29290  0.38617  0.24950  Biso   1.000  C
  C175     1.0000 0.79290  0.11383  0.74950  Biso   1.000  C
  C176     1.0000 0.70710  0.61383  0.75050  Biso   1.000  C
  C177     1.0000 0.12290  0.86480  0.21860  Biso   1.000  C
  C178     1.0000 0.37710  0.36480  0.28140  Biso   1.000  C
  C179     1.0000 0.87710  0.13520  0.78140  Biso   1.000  C
  C180     1.0000 0.62290  0.63520  0.71860  Biso   1.000  C
  H121     1.0000 0.11570  0.84000  0.18560  Biso   1.000  H
  H122     1.0000 0.38430  0.34000  0.31440  Biso   1.000  H
  H123     1.0000 0.88430  0.16000  0.81440  Biso   1.000  H
  H124     1.0000 0.61570  0.66000  0.68560  Biso   1.000  H
  C181     1.0000 0.04960  0.88010  0.23530  Biso   1.000  C
  C182     1.0000 0.45040  0.38010  0.26470  Biso   1.000  C
  C183     1.0000 0.95040  0.11990  0.76470  Biso   1.000  C
  C184     1.0000 0.54960  0.61990  0.73530  Biso   1.000  C
  H125     1.0000 0.99320  0.86490  0.21390  Biso   1.000  H
  H126     1.0000 0.50680  0.36490  0.28610  Biso   1.000  H
  H127     1.0000 0.00680  0.13510  0.78610  Biso   1.000  H
  H128     1.0000 0.49320  0.63510  0.71390  Biso   1.000  H
  C185     1.0000 0.05880  0.91710  0.28270  Biso   1.000  C
  C186     1.0000 0.44120  0.41710  0.21730  Biso   1.000  C
  C187     1.0000 0.94120  0.08290  0.71730  Biso   1.000  C
  C188     1.0000 0.55880  0.58290  0.78270  Biso   1.000  C
  H129     1.0000 0.00870  0.92730  0.29350  Biso   1.000  H
  H130     1.0000 0.49130  0.42730  0.20650  Biso   1.000  H
  H131     1.0000 0.99130  0.07270  0.70650  Biso   1.000  H
  H132     1.0000 0.50870  0.57270  0.79350  Biso   1.000  H
  C189     1.0000 0.14150  0.93950  0.31470  Biso   1.000  C
  C190     1.0000 0.35850  0.43950  0.18530  Biso   1.000  C
  C191     1.0000 0.85850  0.06050  0.68530  Biso   1.000  C
  C192     1.0000 0.64150  0.56050  0.81470  Biso   1.000  C
  H133     1.0000 0.14750  0.96510  0.34690  Biso   1.000  H
  H134     1.0000 0.35250  0.46510  0.15310  Biso   1.000  H
  H135     1.0000 0.85250  0.03490  0.65310  Biso   1.000  H
  H136     1.0000 0.64750  0.53490  0.84690  Biso   1.000  H
  C193     1.0000 0.21620  0.92390  0.29890  Biso   1.000  C
  C194     1.0000 0.28380  0.42390  0.20110  Biso   1.000  C
  C195     1.0000 0.78380  0.07610  0.70110  Biso   1.000  C
  C196     1.0000 0.71620  0.57610  0.79890  Biso   1.000  C
  H137     1.0000 0.27260  0.93880  0.32070  Biso   1.000  H
  H138     1.0000 0.22740  0.43880  0.17930  Biso   1.000  H
  H139     1.0000 0.72740  0.06120  0.67930  Biso   1.000  H
  H140     1.0000 0.77260  0.56120  0.82070  Biso   1.000  H
  C197     1.0000 0.38350  0.82263  0.20322  Biso   1.000  C
  C198     1.0000 0.11650  0.32263  0.29678  Biso   1.000  C
  C199     1.0000 0.61650  0.17737  0.79678  Biso   1.000  C
  C200     1.0000 0.88350  0.67737  0.70322  Biso   1.000  C
  C201     1.0000 0.43080  0.77433  0.18150  Biso   1.000  C
  C202     1.0000 0.06920  0.27433  0.31850  Biso   1.000  C
  C203     1.0000 0.56920  0.22567  0.81850  Biso   1.000  C
  C204     1.0000 0.93080  0.72567  0.68150  Biso   1.000  C
  C205     1.0000 0.52160  0.76650  0.20760  Biso   1.000  C
  C206     1.0000 0.97840  0.26650  0.29240  Biso   1.000  C
  C207     1.0000 0.47840  0.23350  0.79240  Biso   1.000  C
  C208     1.0000 0.02160  0.73350  0.70760  Biso   1.000  C
  H141     1.0000 0.55280  0.79100  0.23960  Biso   1.000  H
  H142     1.0000 0.94720  0.29100  0.26040  Biso   1.000  H
  H143     1.0000 0.44720  0.20900  0.76040  Biso   1.000  H
  H144     1.0000 0.05280  0.70900  0.73960  Biso   1.000  H
  C209     1.0000 0.56710  0.72280  0.18690  Biso   1.000  C
  C210     1.0000 0.93290  0.22280  0.31310  Biso   1.000  C
  C211     1.0000 0.43290  0.27720  0.81310  Biso   1.000  C
  C212     1.0000 0.06710  0.77720  0.68690  Biso   1.000  C
  H145     1.0000 0.62860  0.71760  0.20510  Biso   1.000  H
  H146     1.0000 0.87140  0.21760  0.29490  Biso   1.000  H
  H147     1.0000 0.37140  0.28240  0.79490  Biso   1.000  H
  H148     1.0000 0.12860  0.78240  0.70510  Biso   1.000  H
  C213     1.0000 0.52190  0.68700  0.13990  Biso   1.000  C
  C214     1.0000 0.97810  0.18700  0.36010  Biso   1.000  C
  C215     1.0000 0.47810  0.31300  0.86010  Biso   1.000  C
  C216     1.0000 0.02190  0.81300  0.63990  Biso   1.000  C
  H149     1.0000 0.55300  0.65820  0.12520  Biso   1.000  H
  H150     1.0000 0.94700  0.15820  0.37480  Biso   1.000  H
  H151     1.0000 0.44700  0.34180  0.87480  Biso   1.000  H
  H152     1.0000 0.05300  0.84180  0.62520  Biso   1.000  H
  C217     1.0000 0.43350  0.69320  0.11480  Biso   1.000  C
  C218     1.0000 0.06650  0.19320  0.38520  Biso   1.000  C
  C219     1.0000 0.56650  0.30680  0.88520  Biso   1.000  C
  C220     1.0000 0.93350  0.80680  0.61480  Biso   1.000  C
  H153     1.0000 0.40330  0.66810  0.08300  Biso   1.000  H
  H154     1.0000 0.09670  0.16810  0.41700  Biso   1.000  H
  H155     1.0000 0.59670  0.33190  0.91700  Biso   1.000  H
  H156     1.0000 0.90330  0.83190  0.58300  Biso   1.000  H
  C221     1.0000 0.38490  0.73690  0.13540  Biso   1.000  C
  C222     1.0000 0.11510  0.23690  0.36460  Biso   1.000  C
  C223     1.0000 0.61510  0.26310  0.86460  Biso   1.000  C
  C224     1.0000 0.88490  0.76310  0.63540  Biso   1.000  C
  H157     1.0000 0.32300  0.74040  0.11810  Biso   1.000  H
  H158     1.0000 0.17700  0.24040  0.38190  Biso   1.000  H
  H159     1.0000 0.67700  0.25960  0.88190  Biso   1.000  H
  H160     1.0000 0.82300  0.75960  0.61810  Biso   1.000  H
  C225     1.0000 0.31320  0.98870  0.09300  Biso   1.000  C
  C226     1.0000 0.18680  0.48870  0.40700  Biso   1.000  C
  C227     1.0000 0.68680  0.01130  0.90700  Biso   1.000  C
  C228     1.0000 0.81320  0.51130  0.59300  Biso   1.000  C
  C229     1.0000 0.26260  0.93250  0.06620  Biso   1.000  C
  C230     1.0000 0.23740  0.43250  0.43380  Biso   1.000  C
  C231     1.0000 0.73740  0.06750  0.93380  Biso   1.000  C
  C232     1.0000 0.76260  0.56750  0.56620  Biso   1.000  C
  C233     1.0000 0.16910  0.93470  0.04900  Biso   1.000  C
  C234     1.0000 0.33090  0.43470  0.45100  Biso   1.000  C
  C235     1.0000 0.83090  0.06530  0.95100  Biso   1.000  C
  C236     1.0000 0.66910  0.56530  0.54900  Biso   1.000  C
  H161     1.0000 0.14030  0.96970  0.05600  Biso   1.000  H
  H162     1.0000 0.35970  0.46970  0.44400  Biso   1.000  H
  H163     1.0000 0.85970  0.03030  0.94400  Biso   1.000  H
  H164     1.0000 0.64030  0.53030  0.55600  Biso   1.000  H
  C237     1.0000 0.11830  0.88360  0.02080  Biso   1.000  C
  C238     1.0000 0.38170  0.38360  0.47920  Biso   1.000  C
  C239     1.0000 0.88170  0.11640  0.97920  Biso   1.000  C
  C240     1.0000 0.61830  0.61640  0.52080  Biso   1.000  C
  H165     1.0000 0.05580  0.88290  0.00810  Biso   1.000  H
  H166     1.0000 0.44420  0.38290  0.49190  Biso   1.000  H
  H167     1.0000 0.94420  0.11710  0.99190  Biso   1.000  H
  H168     1.0000 0.55580  0.61710  0.50810  Biso   1.000  H
  C241     1.0000 0.16950  0.83430  0.01360  Biso   1.000  C
  C242     1.0000 0.33050  0.33430  0.48640  Biso   1.000  C
  C243     1.0000 0.83050  0.16570  0.98640  Biso   1.000  C
  C244     1.0000 0.66950  0.66570  0.51360  Biso   1.000  C
  H169     1.0000 0.13740  0.79940  0.99710  Biso   1.000  H
  H170     1.0000 0.36260  0.29940  0.50290  Biso   1.000  H
  H171     1.0000 0.86260  0.20060  0.00290  Biso   1.000  H
  H172     1.0000 0.63740  0.70060  0.49710  Biso   1.000  H
  C245     1.0000 0.25720  0.83040  0.02700  Biso   1.000  C
  C246     1.0000 0.24280  0.33040  0.47300  Biso   1.000  C
  C247     1.0000 0.74280  0.16960  0.97300  Biso   1.000  C
  C248     1.0000 0.75720  0.66960  0.52700  Biso   1.000  C
  H173     1.0000 0.28460  0.79550  0.01860  Biso   1.000  H
  H174     1.0000 0.21540  0.29550  0.48140  Biso   1.000  H
  H175     1.0000 0.71540  0.20450  0.98140  Biso   1.000  H
  H176     1.0000 0.78460  0.70450  0.51860  Biso   1.000  H
  C249     1.0000 0.30850  0.88250  0.05500  Biso   1.000  C
  C250     1.0000 0.19150  0.38250  0.44500  Biso   1.000  C
  C251     1.0000 0.69150  0.11750  0.94500  Biso   1.000  C
  C252     1.0000 0.80850  0.61750  0.55500  Biso   1.000  C
  H177     1.0000 0.37080  0.88280  0.06530  Biso   1.000  H
  H178     1.0000 0.12920  0.38280  0.43470  Biso   1.000  H
  H179     1.0000 0.62920  0.11720  0.93470  Biso   1.000  H
  H180     1.0000 0.87080  0.61720  0.56530  Biso   1.000  H
  C253     1.0000 0.34260  0.07990  0.11790  Biso   1.000  C
  C254     1.0000 0.15740  0.57990  0.38210  Biso   1.000  C
  C255     1.0000 0.65740  0.92010  0.88210  Biso   1.000  C
  C256     1.0000 0.84260  0.42010  0.61790  Biso   1.000  C
  C257     1.0000 0.33170  0.14560  0.12380  Biso   1.000  C
  C258     1.0000 0.16830  0.64560  0.37620  Biso   1.000  C
  C259     1.0000 0.66830  0.85440  0.87620  Biso   1.000  C
  C260     1.0000 0.83170  0.35440  0.62380  Biso   1.000  C
  C261     1.0000 0.25370  0.17330  0.08750  Biso   1.000  C
  C262     1.0000 0.24630  0.67330  0.41250  Biso   1.000  C
  C263     1.0000 0.74630  0.82670  0.91250  Biso   1.000  C
  C264     1.0000 0.75370  0.32670  0.58750  Biso   1.000  C
  H181     1.0000 0.20870  0.15020  0.06110  Biso   1.000  H
  H182     1.0000 0.29130  0.65020  0.43890  Biso   1.000  H
  H183     1.0000 0.79130  0.84980  0.93890  Biso   1.000  H
  H184     1.0000 0.70870  0.34980  0.56110  Biso   1.000  H
  C265     1.0000 0.24400  0.23610  0.09140  Biso   1.000  C
  C266     1.0000 0.25600  0.73610  0.40860  Biso   1.000  C
  C267     1.0000 0.75600  0.76390  0.90860  Biso   1.000  C
  C268     1.0000 0.74400  0.26390  0.59140  Biso   1.000  C
  H185     1.0000 0.19250  0.25510  0.06670  Biso   1.000  H
  H186     1.0000 0.30750  0.75510  0.43330  Biso   1.000  H
  H187     1.0000 0.80750  0.74490  0.93330  Biso   1.000  H
  H188     1.0000 0.69250  0.24490  0.56670  Biso   1.000  H
  C269     1.0000 0.30960  0.27100  0.13120  Biso   1.000  C
  C270     1.0000 0.19040  0.77100  0.36880  Biso   1.000  C
  C271     1.0000 0.69040  0.72900  0.86880  Biso   1.000  C
  C272     1.0000 0.80960  0.22900  0.63120  Biso   1.000  C
  H189     1.0000 0.30230  0.31310  0.13310  Biso   1.000  H
  H190     1.0000 0.19770  0.81310  0.36690  Biso   1.000  H
  H191     1.0000 0.69770  0.68690  0.86690  Biso   1.000  H
  H192     1.0000 0.80230  0.18690  0.63310  Biso   1.000  H
  C273     1.0000 0.38350  0.24400  0.16680  Biso   1.000  C
  C274     1.0000 0.11650  0.74400  0.33320  Biso   1.000  C
  C275     1.0000 0.61650  0.75600  0.83320  Biso   1.000  C
  C276     1.0000 0.88350  0.25600  0.66680  Biso   1.000  C
  H193     1.0000 0.42730  0.26700  0.19430  Biso   1.000  H
  H194     1.0000 0.07270  0.76700  0.30570  Biso   1.000  H
  H195     1.0000 0.57270  0.73300  0.80570  Biso   1.000  H
  H196     1.0000 0.92730  0.23300  0.69430  Biso   1.000  H
  C277     1.0000 0.39480  0.18060  0.16270  Biso   1.000  C
  C278     1.0000 0.10520  0.68060  0.33730  Biso   1.000  C
  C279     1.0000 0.60520  0.81940  0.83730  Biso   1.000  C
  C280     1.0000 0.89480  0.31940  0.66270  Biso   1.000  C
  H197     1.0000 0.44690  0.16230  0.18720  Biso   1.000  H
  H198     1.0000 0.05310  0.66230  0.31280  Biso   1.000  H
  H199     1.0000 0.55310  0.83770  0.81280  Biso   1.000  H
  H200     1.0000 0.94690  0.33770  0.68720  Biso   1.000  H
  C281     1.0000 0.20790  0.61365  0.23012  Biso   1.000  C
  C282     1.0000 0.29210  0.11365  0.26988  Biso   1.000  C
  C283     1.0000 0.79210  0.38635  0.76988  Biso   1.000  C
  C284     1.0000 0.70790  0.88635  0.73012  Biso   1.000  C
  C285     1.0000 0.30260  0.59527  0.25340  Biso   1.000  C
  C286     1.0000 0.19740  0.09527  0.24660  Biso   1.000  C
  C287     1.0000 0.69740  0.40473  0.74660  Biso   1.000  C
  C288     1.0000 0.80260  0.90473  0.75340  Biso   1.000  C
  C289     1.0000 0.36000  0.60980  0.22270  Biso   1.000  C
  C290     1.0000 0.14000  0.10980  0.27730  Biso   1.000  C
  C291     1.0000 0.64000  0.39020  0.77730  Biso   1.000  C
  C292     1.0000 0.86000  0.89020  0.72270  Biso   1.000  C
  H201     1.0000 0.33970  0.63220  0.18770  Biso   1.000  H
  H202     1.0000 0.16030  0.13220  0.31230  Biso   1.000  H
  H203     1.0000 0.66030  0.36780  0.81230  Biso   1.000  H
  H204     1.0000 0.83970  0.86780  0.68770  Biso   1.000  H
  C293     1.0000 0.44930  0.59080  0.24450  Biso   1.000  C
  C294     1.0000 0.05070  0.09080  0.25550  Biso   1.000  C
  C295     1.0000 0.55070  0.40920  0.75550  Biso   1.000  C
  C296     1.0000 0.94930  0.90920  0.74450  Biso   1.000  C
  H205     1.0000 0.48890  0.60150  0.22430  Biso   1.000  H
  H206     1.0000 0.01110  0.10150  0.27570  Biso   1.000  H
  H207     1.0000 0.51110  0.39850  0.77570  Biso   1.000  H
  H208     1.0000 0.98890  0.89850  0.72430  Biso   1.000  H
  C297     1.0000 0.47870  0.55710  0.29430  Biso   1.000  C
  C298     1.0000 0.02130  0.05710  0.20570  Biso   1.000  C
  C299     1.0000 0.52130  0.44290  0.70570  Biso   1.000  C
  C300     1.0000 0.97870  0.94290  0.79430  Biso   1.000  C
  H209     1.0000 0.53800  0.54370  0.30770  Biso   1.000  H
  H210     1.0000 0.96200  0.04370  0.19230  Biso   1.000  H
  H211     1.0000 0.46200  0.45630  0.69230  Biso   1.000  H
  H212     1.0000 0.03800  0.95630  0.80770  Biso   1.000  H
  C301     1.0000 0.42300  0.54260  0.32490  Biso   1.000  C
  C302     1.0000 0.07700  0.04260  0.17510  Biso   1.000  C
  C303     1.0000 0.57700  0.45740  0.67510  Biso   1.000  C
  C304     1.0000 0.92300  0.95740  0.82490  Biso   1.000  C
  H213     1.0000 0.44410  0.51960  0.35950  Biso   1.000  H
  H214     1.0000 0.05590  0.01960  0.14050  Biso   1.000  H
  H215     1.0000 0.55590  0.48040  0.64050  Biso   1.000  H
  H216     1.0000 0.94410  0.98040  0.85950  Biso   1.000  H
  C305     1.0000 0.33350  0.56200  0.30490  Biso   1.000  C
  C306     1.0000 0.16650  0.06200  0.19510  Biso   1.000  C
  C307     1.0000 0.66650  0.43800  0.69510  Biso   1.000  C
  C308     1.0000 0.83350  0.93800  0.80490  Biso   1.000  C
  H217     1.0000 0.29510  0.55240  0.32640  Biso   1.000  H
  H218     1.0000 0.20490  0.05240  0.17360  Biso   1.000  H
  H219     1.0000 0.70490  0.44760  0.67360  Biso   1.000  H
  H220     1.0000 0.79510  0.94760  0.82640  Biso   1.000  H
  C309     1.0000 0.08600  0.66220  0.18897  Biso   1.000  C
  C310     1.0000 0.41400  0.16220  0.31103  Biso   1.000  C
  C311     1.0000 0.91400  0.33780  0.81103  Biso   1.000  C
  C312     1.0000 0.58600  0.83780  0.68897  Biso   1.000  C
  C313     1.0000 0.01880  0.70927  0.15830  Biso   1.000  C
  C314     1.0000 0.48120  0.20927  0.34170  Biso   1.000  C
  C315     1.0000 0.98120  0.29073  0.84170  Biso   1.000  C
  C316     1.0000 0.51880  0.79073  0.65830  Biso   1.000  C
  C317     1.0000 0.02950  0.74300  0.11280  Biso   1.000  C
  C318     1.0000 0.47050  0.24300  0.38720  Biso   1.000  C
  C319     1.0000 0.97050  0.25700  0.88720  Biso   1.000  C
  C320     1.0000 0.52950  0.75700  0.61280  Biso   1.000  C
  H221     1.0000 0.08110  0.73880  0.10200  Biso   1.000  H
  H222     1.0000 0.41890  0.23880  0.39800  Biso   1.000  H
  H223     1.0000 0.91890  0.26120  0.89800  Biso   1.000  H
  H224     1.0000 0.58110  0.76120  0.60200  Biso   1.000  H
  C321     1.0000 0.96190  0.78410  0.08240  Biso   1.000  C
  C322     1.0000 0.53810  0.28410  0.41760  Biso   1.000  C
  C323     1.0000 0.03810  0.21590  0.91760  Biso   1.000  C
  C324     1.0000 0.46190  0.71590  0.58240  Biso   1.000  C
  H225     1.0000 0.96890  0.80690  0.05120  Biso   1.000  H
  H226     1.0000 0.53110  0.30690  0.44880  Biso   1.000  H
  H227     1.0000 0.03110  0.19310  0.94880  Biso   1.000  H
  H228     1.0000 0.46890  0.69310  0.55120  Biso   1.000  H
  C325     1.0000 0.88760  0.79110  0.09730  Biso   1.000  C
  C326     1.0000 0.61240  0.29110  0.40270  Biso   1.000  C
  C327     1.0000 0.11240  0.20890  0.90270  Biso   1.000  C
  C328     1.0000 0.38760  0.70890  0.59730  Biso   1.000  C
  H229     1.0000 0.84260  0.81770  0.07580  Biso   1.000  H
  H230     1.0000 0.65740  0.31770  0.42420  Biso   1.000  H
  H231     1.0000 0.15740  0.18230  0.92420  Biso   1.000  H
  H232     1.0000 0.34260  0.68230  0.57580  Biso   1.000  H
  C329     1.0000 0.87770  0.75940  0.14400  Biso   1.000  C
  C330     1.0000 0.62230  0.25940  0.35600  Biso   1.000  C
  C331     1.0000 0.12230  0.24060  0.85600  Biso   1.000  C
  C332     1.0000 0.37770  0.74060  0.64400  Biso   1.000  C
  H233     1.0000 0.82720  0.76600  0.15540  Biso   1.000  H
  H234     1.0000 0.67280  0.26600  0.34460  Biso   1.000  H
  H235     1.0000 0.17280  0.23400  0.84460  Biso   1.000  H
  H236     1.0000 0.32720  0.73400  0.65540  Biso   1.000  H
  C333     1.0000 0.94210  0.71730  0.17470  Biso   1.000  C
  C334     1.0000 0.55790  0.21730  0.32530  Biso   1.000  C
  C335     1.0000 0.05790  0.28270  0.82530  Biso   1.000  C
  C336     1.0000 0.44210  0.78270  0.67470  Biso   1.000  C
  H237     1.0000 0.93410  0.69480  0.20580  Biso   1.000  H
  H238     1.0000 0.56590  0.19480  0.29420  Biso   1.000  H
  H239     1.0000 0.06590  0.30520  0.79420  Biso   1.000  H
  H240     1.0000 0.43410  0.80520  0.70580  Biso   1.000  H
