data_image0
_cell_length_a       14.9159
_cell_length_b       14.9159
_cell_length_c       14.9159
_cell_angle_alpha    90
_cell_angle_beta     90
_cell_angle_gamma    90

_symmetry_space_group_name_H-M    "P 1"
_symmetry_int_tables_number       1

loop_
  _symmetry_equiv_pos_as_xyz
  'x, y, z'

loop_
  _atom_site_label
  _atom_site_occupancy
  _atom_site_fract_x
  _atom_site_fract_y
  _atom_site_fract_z
  _atom_site_thermal_displace_type
  _atom_site_B_iso_or_equiv
  _atom_site_type_symbol
  Cu1      1.0000 0.61559  0.50000  0.00000  Biso   1.000  Cu
  Cu2      1.0000 0.00000  0.61559  0.50000  Biso   1.000  Cu
  Cu3      1.0000 0.50000  0.00000  0.61559  Biso   1.000  Cu
  Cu4      1.0000 0.11559  0.00000  0.50000  Biso   1.000  Cu
  Cu5      1.0000 0.50000  0.11559  0.00000  Biso   1.000  Cu
  Cu6      1.0000 0.00000  0.50000  0.11559  Biso   1.000  Cu
  Cu7      1.0000 0.38441  0.50000  0.00000  Biso   1.000  Cu
  Cu8      1.0000 0.00000  0.38441  0.50000  Biso   1.000  Cu
  Cu9      1.0000 0.50000  0.00000  0.38441  Biso   1.000  Cu
  Cu10     1.0000 0.88441  0.00000  0.50000  Biso   1.000  Cu
  Cu11     1.0000 0.50000  0.88441  0.00000  Biso   1.000  Cu
  Cu12     1.0000 0.00000  0.50000  0.88441  Biso   1.000  Cu
  N1       1.0000 0.74710  0.50000  0.00000  Biso   1.000  N
  N2       1.0000 0.00000  0.74710  0.50000  Biso   1.000  N
  N3       1.0000 0.50000  0.00000  0.74710  Biso   1.000  N
  N4       1.0000 0.24710  0.00000  0.50000  Biso   1.000  N
  N5       1.0000 0.50000  0.24710  0.00000  Biso   1.000  N
  N6       1.0000 0.00000  0.50000  0.24710  Biso   1.000  N
  N7       1.0000 0.25290  0.50000  0.00000  Biso   1.000  N
  N8       1.0000 0.00000  0.25290  0.50000  Biso   1.000  N
  N9       1.0000 0.50000  0.00000  0.25290  Biso   1.000  N
  N10      1.0000 0.75290  0.00000  0.50000  Biso   1.000  N
  N11      1.0000 0.50000  0.75290  0.00000  Biso   1.000  N
  N12      1.0000 0.00000  0.50000  0.75290  Biso   1.000  N
  N13      1.0000 0.88830  0.50000  0.04640  Biso   1.000  N
  N14      1.0000 0.04640  0.88830  0.50000  Biso   1.000  N
  N15      1.0000 0.50000  0.04640  0.88830  Biso   1.000  N
  N16      1.0000 0.38830  0.00000  0.54640  Biso   1.000  N
  N17      1.0000 0.54640  0.38830  0.00000  Biso   1.000  N
  N18      1.0000 0.00000  0.54640  0.38830  Biso   1.000  N
  N19      1.0000 0.11170  0.50000  0.04640  Biso   1.000  N
  N20      1.0000 0.11170  0.50000  0.95360  Biso   1.000  N
  N21      1.0000 0.88830  0.50000  0.95360  Biso   1.000  N
  N22      1.0000 0.04640  0.11170  0.50000  Biso   1.000  N
  N23      1.0000 0.95360  0.11170  0.50000  Biso   1.000  N
  N24      1.0000 0.95360  0.88830  0.50000  Biso   1.000  N
  N25      1.0000 0.50000  0.04640  0.11170  Biso   1.000  N
  N26      1.0000 0.50000  0.95360  0.11170  Biso   1.000  N
  N27      1.0000 0.50000  0.95360  0.88830  Biso   1.000  N
  N28      1.0000 0.61170  0.00000  0.54640  Biso   1.000  N
  N29      1.0000 0.61170  0.00000  0.45360  Biso   1.000  N
  N30      1.0000 0.38830  0.00000  0.45360  Biso   1.000  N
  N31      1.0000 0.54640  0.61170  0.00000  Biso   1.000  N
  N32      1.0000 0.45360  0.61170  0.00000  Biso   1.000  N
  N33      1.0000 0.45360  0.38830  0.00000  Biso   1.000  N
  N34      1.0000 0.00000  0.54640  0.61170  Biso   1.000  N
  N35      1.0000 0.00000  0.45360  0.61170  Biso   1.000  N
  N36      1.0000 0.00000  0.45360  0.38830  Biso   1.000  N
  C1       1.0000 0.80250  0.50000  0.07090  Biso   1.000  C
  C2       1.0000 0.07090  0.80250  0.50000  Biso   1.000  C
  C3       1.0000 0.50000  0.07090  0.80250  Biso   1.000  C
  C4       1.0000 0.30250  0.00000  0.57090  Biso   1.000  C
  C5       1.0000 0.57090  0.30250  0.00000  Biso   1.000  C
  C6       1.0000 0.00000  0.57090  0.30250  Biso   1.000  C
  C7       1.0000 0.19750  0.50000  0.07090  Biso   1.000  C
  C8       1.0000 0.19750  0.50000  0.92910  Biso   1.000  C
  C9       1.0000 0.80250  0.50000  0.92910  Biso   1.000  C
  C10      1.0000 0.07090  0.19750  0.50000  Biso   1.000  C
  C11      1.0000 0.92910  0.19750  0.50000  Biso   1.000  C
  C12      1.0000 0.92910  0.80250  0.50000  Biso   1.000  C
  C13      1.0000 0.50000  0.07090  0.19750  Biso   1.000  C
  C14      1.0000 0.50000  0.92910  0.19750  Biso   1.000  C
  C15      1.0000 0.50000  0.92910  0.80250  Biso   1.000  C
  C16      1.0000 0.69750  0.00000  0.57090  Biso   1.000  C
  C17      1.0000 0.69750  0.00000  0.42910  Biso   1.000  C
  C18      1.0000 0.30250  0.00000  0.42910  Biso   1.000  C
  C19      1.0000 0.57090  0.69750  0.00000  Biso   1.000  C
  C20      1.0000 0.42910  0.69750  0.00000  Biso   1.000  C
  C21      1.0000 0.42910  0.30250  0.00000  Biso   1.000  C
  C22      1.0000 0.00000  0.57090  0.69750  Biso   1.000  C
  C23      1.0000 0.00000  0.42910  0.69750  Biso   1.000  C
  C24      1.0000 0.00000  0.42910  0.30250  Biso   1.000  C
  C25      1.0000 0.77230  0.50000  0.16670  Biso   1.000  C
  C26      1.0000 0.16670  0.77230  0.50000  Biso   1.000  C
  C27      1.0000 0.50000  0.16670  0.77230  Biso   1.000  C
  C28      1.0000 0.27230  0.00000  0.66670  Biso   1.000  C
  C29      1.0000 0.66670  0.27230  0.00000  Biso   1.000  C
  C30      1.0000 0.00000  0.66670  0.27230  Biso   1.000  C
  C31      1.0000 0.22770  0.50000  0.16670  Biso   1.000  C
  C32      1.0000 0.22770  0.50000  0.83330  Biso   1.000  C
  C33      1.0000 0.77230  0.50000  0.83330  Biso   1.000  C
  C34      1.0000 0.16670  0.22770  0.50000  Biso   1.000  C
  C35      1.0000 0.83330  0.22770  0.50000  Biso   1.000  C
  C36      1.0000 0.83330  0.77230  0.50000  Biso   1.000  C
  C37      1.0000 0.50000  0.16670  0.22770  Biso   1.000  C
  C38      1.0000 0.50000  0.83330  0.22770  Biso   1.000  C
  C39      1.0000 0.50000  0.83330  0.77230  Biso   1.000  C
  C40      1.0000 0.72770  0.00000  0.66670  Biso   1.000  C
  C41      1.0000 0.72770  0.00000  0.33330  Biso   1.000  C
  C42      1.0000 0.27230  0.00000  0.33330  Biso   1.000  C
  C43      1.0000 0.66670  0.72770  0.00000  Biso   1.000  C
  C44      1.0000 0.33330  0.72770  0.00000  Biso   1.000  C
  C45      1.0000 0.33330  0.27230  0.00000  Biso   1.000  C
  C46      1.0000 0.00000  0.66670  0.72770  Biso   1.000  C
  C47      1.0000 0.00000  0.33330  0.72770  Biso   1.000  C
  C48      1.0000 0.00000  0.33330  0.27230  Biso   1.000  C
  H1       1.0000 0.82100  0.51460  0.20620  Biso   1.000  H
  H2       1.0000 0.20620  0.82100  0.51460  Biso   1.000  H
  H3       1.0000 0.51460  0.20620  0.82100  Biso   1.000  H
  H4       1.0000 0.32100  0.01460  0.70620  Biso   1.000  H
  H5       1.0000 0.70620  0.32100  0.01460  Biso   1.000  H
  H6       1.0000 0.01460  0.70620  0.32100  Biso   1.000  H
  H7       1.0000 0.17900  0.48540  0.20620  Biso   1.000  H
  H8       1.0000 0.17900  0.51460  0.79380  Biso   1.000  H
  H9       1.0000 0.82100  0.48540  0.79380  Biso   1.000  H
  H10      1.0000 0.20620  0.17900  0.48540  Biso   1.000  H
  H11      1.0000 0.79380  0.17900  0.51460  Biso   1.000  H
  H12      1.0000 0.79380  0.82100  0.48540  Biso   1.000  H
  H13      1.0000 0.48540  0.20620  0.17900  Biso   1.000  H
  H14      1.0000 0.51460  0.79380  0.17900  Biso   1.000  H
  H15      1.0000 0.48540  0.79380  0.82100  Biso   1.000  H
  H16      1.0000 0.67900  0.98540  0.70620  Biso   1.000  H
  H17      1.0000 0.67900  0.01460  0.29380  Biso   1.000  H
  H18      1.0000 0.32100  0.98540  0.29380  Biso   1.000  H
  H19      1.0000 0.70620  0.67900  0.98540  Biso   1.000  H
  H20      1.0000 0.29380  0.67900  0.01460  Biso   1.000  H
  H21      1.0000 0.29380  0.32100  0.98540  Biso   1.000  H
  H22      1.0000 0.98540  0.70620  0.67900  Biso   1.000  H
  H23      1.0000 0.01460  0.29380  0.67900  Biso   1.000  H
  H24      1.0000 0.98540  0.29380  0.32100  Biso   1.000  H
  H25      1.0000 0.17900  0.48540  0.79380  Biso   1.000  H
  H26      1.0000 0.79380  0.17900  0.48540  Biso   1.000  H
  H27      1.0000 0.48540  0.79380  0.17900  Biso   1.000  H
  H28      1.0000 0.67900  0.98540  0.29380  Biso   1.000  H
  H29      1.0000 0.29380  0.67900  0.98540  Biso   1.000  H
  H30      1.0000 0.98540  0.29380  0.67900  Biso   1.000  H
  H31      1.0000 0.82100  0.51460  0.79380  Biso   1.000  H
  H32      1.0000 0.82100  0.48540  0.20620  Biso   1.000  H
  H33      1.0000 0.17900  0.51460  0.20620  Biso   1.000  H
  H34      1.0000 0.79380  0.82100  0.51460  Biso   1.000  H
  H35      1.0000 0.20620  0.82100  0.48540  Biso   1.000  H
  H36      1.0000 0.20620  0.17900  0.51460  Biso   1.000  H
  H37      1.0000 0.51460  0.79380  0.82100  Biso   1.000  H
  H38      1.0000 0.48540  0.20620  0.82100  Biso   1.000  H
  H39      1.0000 0.51460  0.20620  0.17900  Biso   1.000  H
  H40      1.0000 0.32100  0.01460  0.29380  Biso   1.000  H
  H41      1.0000 0.32100  0.98540  0.70620  Biso   1.000  H
  H42      1.0000 0.67900  0.01460  0.70620  Biso   1.000  H
  H43      1.0000 0.29380  0.32100  0.01460  Biso   1.000  H
  H44      1.0000 0.70620  0.32100  0.98540  Biso   1.000  H
  H45      1.0000 0.70620  0.67900  0.01460  Biso   1.000  H
  H46      1.0000 0.01460  0.29380  0.32100  Biso   1.000  H
  H47      1.0000 0.98540  0.70620  0.32100  Biso   1.000  H
  H48      1.0000 0.01460  0.70620  0.67900  Biso   1.000  H
  H49      1.0000 0.72530  0.54310  0.17520  Biso   1.000  H
  H50      1.0000 0.17520  0.72530  0.54310  Biso   1.000  H
  H51      1.0000 0.54310  0.17520  0.72530  Biso   1.000  H
  H52      1.0000 0.22530  0.04310  0.67520  Biso   1.000  H
  H53      1.0000 0.67520  0.22530  0.04310  Biso   1.000  H
  H54      1.0000 0.04310  0.67520  0.22530  Biso   1.000  H
  H55      1.0000 0.27470  0.45690  0.17520  Biso   1.000  H
  H56      1.0000 0.27470  0.54310  0.82480  Biso   1.000  H
  H57      1.0000 0.72530  0.45690  0.82480  Biso   1.000  H
  H58      1.0000 0.17520  0.27470  0.45690  Biso   1.000  H
  H59      1.0000 0.82480  0.27470  0.54310  Biso   1.000  H
  H60      1.0000 0.82480  0.72530  0.45690  Biso   1.000  H
  H61      1.0000 0.45690  0.17520  0.27470  Biso   1.000  H
  H62      1.0000 0.54310  0.82480  0.27470  Biso   1.000  H
  H63      1.0000 0.45690  0.82480  0.72530  Biso   1.000  H
  H64      1.0000 0.77470  0.95690  0.67520  Biso   1.000  H
  H65      1.0000 0.77470  0.04310  0.32480  Biso   1.000  H
  H66      1.0000 0.22530  0.95690  0.32480  Biso   1.000  H
  H67      1.0000 0.67520  0.77470  0.95690  Biso   1.000  H
  H68      1.0000 0.32480  0.77470  0.04310  Biso   1.000  H
  H69      1.0000 0.32480  0.22530  0.95690  Biso   1.000  H
  H70      1.0000 0.95690  0.67520  0.77470  Biso   1.000  H
  H71      1.0000 0.04310  0.32480  0.77470  Biso   1.000  H
  H72      1.0000 0.95690  0.32480  0.22530  Biso   1.000  H
  H73      1.0000 0.27470  0.45690  0.82480  Biso   1.000  H
  H74      1.0000 0.82480  0.27470  0.45690  Biso   1.000  H
  H75      1.0000 0.45690  0.82480  0.27470  Biso   1.000  H
  H76      1.0000 0.77470  0.95690  0.32480  Biso   1.000  H
  H77      1.0000 0.32480  0.77470  0.95690  Biso   1.000  H
  H78      1.0000 0.95690  0.32480  0.77470  Biso   1.000  H
  H79      1.0000 0.72530  0.54310  0.82480  Biso   1.000  H
  H80      1.0000 0.72530  0.45690  0.17520  Biso   1.000  H
  H81      1.0000 0.27470  0.54310  0.17520  Biso   1.000  H
  H82      1.0000 0.82480  0.72530  0.54310  Biso   1.000  H
  H83      1.0000 0.17520  0.72530  0.45690  Biso   1.000  H
  H84      1.0000 0.17520  0.27470  0.54310  Biso   1.000  H
  H85      1.0000 0.54310  0.82480  0.72530  Biso   1.000  H
  H86      1.0000 0.45690  0.17520  0.72530  Biso   1.000  H
  H87      1.0000 0.54310  0.17520  0.27470  Biso   1.000  H
  H88      1.0000 0.22530  0.04310  0.32480  Biso   1.000  H
  H89      1.0000 0.22530  0.95690  0.67520  Biso   1.000  H
  H90      1.0000 0.77470  0.04310  0.67520  Biso   1.000  H
  H91      1.0000 0.32480  0.22530  0.04310  Biso   1.000  H
  H92      1.0000 0.67520  0.22530  0.95690  Biso   1.000  H
  H93      1.0000 0.67520  0.77470  0.04310  Biso   1.000  H
  H94      1.0000 0.04310  0.32480  0.22530  Biso   1.000  H
  H95      1.0000 0.95690  0.67520  0.22530  Biso   1.000  H
  H96      1.0000 0.04310  0.67520  0.77470  Biso   1.000  H
  C49      1.0000 0.73110  0.40480  0.19210  Biso   1.000  C
  C50      1.0000 0.19210  0.73110  0.40480  Biso   1.000  C
  C51      1.0000 0.40480  0.19210  0.73110  Biso   1.000  C
  C52      1.0000 0.23110  0.90480  0.69210  Biso   1.000  C
  C53      1.0000 0.69210  0.23110  0.90480  Biso   1.000  C
  C54      1.0000 0.90480  0.69210  0.23110  Biso   1.000  C
  C55      1.0000 0.26890  0.59520  0.19210  Biso   1.000  C
  C56      1.0000 0.26890  0.40480  0.80790  Biso   1.000  C
  C57      1.0000 0.73110  0.59520  0.80790  Biso   1.000  C
  C58      1.0000 0.19210  0.26890  0.59520  Biso   1.000  C
  C59      1.0000 0.80790  0.26890  0.40480  Biso   1.000  C
  C60      1.0000 0.80790  0.73110  0.59520  Biso   1.000  C
  C61      1.0000 0.59520  0.19210  0.26890  Biso   1.000  C
  C62      1.0000 0.40480  0.80790  0.26890  Biso   1.000  C
  C63      1.0000 0.59520  0.80790  0.73110  Biso   1.000  C
  C64      1.0000 0.76890  0.09520  0.69210  Biso   1.000  C
  C65      1.0000 0.76890  0.90480  0.30790  Biso   1.000  C
  C66      1.0000 0.23110  0.09520  0.30790  Biso   1.000  C
  C67      1.0000 0.69210  0.76890  0.09520  Biso   1.000  C
  C68      1.0000 0.30790  0.76890  0.90480  Biso   1.000  C
  C69      1.0000 0.30790  0.23110  0.09520  Biso   1.000  C
  C70      1.0000 0.09520  0.69210  0.76890  Biso   1.000  C
  C71      1.0000 0.90480  0.30790  0.76890  Biso   1.000  C
  C72      1.0000 0.09520  0.30790  0.23110  Biso   1.000  C
  C73      1.0000 0.26890  0.59520  0.80790  Biso   1.000  C
  C74      1.0000 0.80790  0.26890  0.59520  Biso   1.000  C
  C75      1.0000 0.59520  0.80790  0.26890  Biso   1.000  C
  C76      1.0000 0.76890  0.09520  0.30790  Biso   1.000  C
  C77      1.0000 0.30790  0.76890  0.09520  Biso   1.000  C
  C78      1.0000 0.09520  0.30790  0.76890  Biso   1.000  C
  C79      1.0000 0.73110  0.40480  0.80790  Biso   1.000  C
  C80      1.0000 0.73110  0.59520  0.19210  Biso   1.000  C
  C81      1.0000 0.26890  0.40480  0.19210  Biso   1.000  C
  C82      1.0000 0.80790  0.73110  0.40480  Biso   1.000  C
  C83      1.0000 0.19210  0.73110  0.59520  Biso   1.000  C
  C84      1.0000 0.19210  0.26890  0.40480  Biso   1.000  C
  C85      1.0000 0.40480  0.80790  0.73110  Biso   1.000  C
  C86      1.0000 0.59520  0.19210  0.73110  Biso   1.000  C
  C87      1.0000 0.40480  0.19210  0.26890  Biso   1.000  C
  C88      1.0000 0.23110  0.90480  0.30790  Biso   1.000  C
  C89      1.0000 0.23110  0.09520  0.69210  Biso   1.000  C
  C90      1.0000 0.76890  0.90480  0.69210  Biso   1.000  C
  C91      1.0000 0.30790  0.23110  0.90480  Biso   1.000  C
  C92      1.0000 0.69210  0.23110  0.09520  Biso   1.000  C
  C93      1.0000 0.69210  0.76890  0.90480  Biso   1.000  C
  C94      1.0000 0.90480  0.30790  0.23110  Biso   1.000  C
  C95      1.0000 0.09520  0.69210  0.23110  Biso   1.000  C
  C96      1.0000 0.90480  0.69210  0.76890  Biso   1.000  C
  H97      1.0000 0.71120  0.40550  0.25470  Biso   1.000  H
  H98      1.0000 0.25470  0.71120  0.40550  Biso   1.000  H
  H99      1.0000 0.40550  0.25470  0.71120  Biso   1.000  H
  H100     1.0000 0.21120  0.90550  0.75470  Biso   1.000  H
  H101     1.0000 0.75470  0.21120  0.90550  Biso   1.000  H
  H102     1.0000 0.90550  0.75470  0.21120  Biso   1.000  H
  H103     1.0000 0.28880  0.59450  0.25470  Biso   1.000  H
  H104     1.0000 0.28880  0.40550  0.74530  Biso   1.000  H
  H105     1.0000 0.71120  0.59450  0.74530  Biso   1.000  H
  H106     1.0000 0.25470  0.28880  0.59450  Biso   1.000  H
  H107     1.0000 0.74530  0.28880  0.40550  Biso   1.000  H
  H108     1.0000 0.74530  0.71120  0.59450  Biso   1.000  H
  H109     1.0000 0.59450  0.25470  0.28880  Biso   1.000  H
  H110     1.0000 0.40550  0.74530  0.28880  Biso   1.000  H
  H111     1.0000 0.59450  0.74530  0.71120  Biso   1.000  H
  H112     1.0000 0.78880  0.09450  0.75470  Biso   1.000  H
  H113     1.0000 0.78880  0.90550  0.24530  Biso   1.000  H
  H114     1.0000 0.21120  0.09450  0.24530  Biso   1.000  H
  H115     1.0000 0.75470  0.78880  0.09450  Biso   1.000  H
  H116     1.0000 0.24530  0.78880  0.90550  Biso   1.000  H
  H117     1.0000 0.24530  0.21120  0.09450  Biso   1.000  H
  H118     1.0000 0.09450  0.75470  0.78880  Biso   1.000  H
  H119     1.0000 0.90550  0.24530  0.78880  Biso   1.000  H
  H120     1.0000 0.09450  0.24530  0.21120  Biso   1.000  H
  H121     1.0000 0.28880  0.59450  0.74530  Biso   1.000  H
  H122     1.0000 0.74530  0.28880  0.59450  Biso   1.000  H
  H123     1.0000 0.59450  0.74530  0.28880  Biso   1.000  H
  H124     1.0000 0.78880  0.09450  0.24530  Biso   1.000  H
  H125     1.0000 0.24530  0.78880  0.09450  Biso   1.000  H
  H126     1.0000 0.09450  0.24530  0.78880  Biso   1.000  H
  H127     1.0000 0.71120  0.40550  0.74530  Biso   1.000  H
  H128     1.0000 0.71120  0.59450  0.25470  Biso   1.000  H
  H129     1.0000 0.28880  0.40550  0.25470  Biso   1.000  H
  H130     1.0000 0.74530  0.71120  0.40550  Biso   1.000  H
  H131     1.0000 0.25470  0.71120  0.59450  Biso   1.000  H
  H132     1.0000 0.25470  0.28880  0.40550  Biso   1.000  H
  H133     1.0000 0.40550  0.74530  0.71120  Biso   1.000  H
  H134     1.0000 0.59450  0.25470  0.71120  Biso   1.000  H
  H135     1.0000 0.40550  0.25470  0.28880  Biso   1.000  H
  H136     1.0000 0.21120  0.90550  0.24530  Biso   1.000  H
  H137     1.0000 0.21120  0.09450  0.75470  Biso   1.000  H
  H138     1.0000 0.78880  0.90550  0.75470  Biso   1.000  H
  H139     1.0000 0.24530  0.21120  0.90550  Biso   1.000  H
  H140     1.0000 0.75470  0.21120  0.09450  Biso   1.000  H
  H141     1.0000 0.75470  0.78880  0.90550  Biso   1.000  H
  H142     1.0000 0.90550  0.24530  0.21120  Biso   1.000  H
  H143     1.0000 0.09450  0.75470  0.21120  Biso   1.000  H
  H144     1.0000 0.90550  0.75470  0.78880  Biso   1.000  H
  H145     1.0000 0.67990  0.39200  0.15300  Biso   1.000  H
  H146     1.0000 0.15300  0.67990  0.39200  Biso   1.000  H
  H147     1.0000 0.39200  0.15300  0.67990  Biso   1.000  H
  H148     1.0000 0.17990  0.89200  0.65300  Biso   1.000  H
  H149     1.0000 0.65300  0.17990  0.89200  Biso   1.000  H
  H150     1.0000 0.89200  0.65300  0.17990  Biso   1.000  H
  H151     1.0000 0.32010  0.60800  0.15300  Biso   1.000  H
  H152     1.0000 0.32010  0.39200  0.84700  Biso   1.000  H
  H153     1.0000 0.67990  0.60800  0.84700  Biso   1.000  H
  H154     1.0000 0.15300  0.32010  0.60800  Biso   1.000  H
  H155     1.0000 0.84700  0.32010  0.39200  Biso   1.000  H
  H156     1.0000 0.84700  0.67990  0.60800  Biso   1.000  H
  H157     1.0000 0.60800  0.15300  0.32010  Biso   1.000  H
  H158     1.0000 0.39200  0.84700  0.32010  Biso   1.000  H
  H159     1.0000 0.60800  0.84700  0.67990  Biso   1.000  H
  H160     1.0000 0.82010  0.10800  0.65300  Biso   1.000  H
  H161     1.0000 0.82010  0.89200  0.34700  Biso   1.000  H
  H162     1.0000 0.17990  0.10800  0.34700  Biso   1.000  H
  H163     1.0000 0.65300  0.82010  0.10800  Biso   1.000  H
  H164     1.0000 0.34700  0.82010  0.89200  Biso   1.000  H
  H165     1.0000 0.34700  0.17990  0.10800  Biso   1.000  H
  H166     1.0000 0.10800  0.65300  0.82010  Biso   1.000  H
  H167     1.0000 0.89200  0.34700  0.82010  Biso   1.000  H
  H168     1.0000 0.10800  0.34700  0.17990  Biso   1.000  H
  H169     1.0000 0.32010  0.60800  0.84700  Biso   1.000  H
  H170     1.0000 0.84700  0.32010  0.60800  Biso   1.000  H
  H171     1.0000 0.60800  0.84700  0.32010  Biso   1.000  H
  H172     1.0000 0.82010  0.10800  0.34700  Biso   1.000  H
  H173     1.0000 0.34700  0.82010  0.10800  Biso   1.000  H
  H174     1.0000 0.10800  0.34700  0.82010  Biso   1.000  H
  H175     1.0000 0.67990  0.39200  0.84700  Biso   1.000  H
  H176     1.0000 0.67990  0.60800  0.15300  Biso   1.000  H
  H177     1.0000 0.32010  0.39200  0.15300  Biso   1.000  H
  H178     1.0000 0.84700  0.67990  0.39200  Biso   1.000  H
  H179     1.0000 0.15300  0.67990  0.60800  Biso   1.000  H
  H180     1.0000 0.15300  0.32010  0.39200  Biso   1.000  H
  H181     1.0000 0.39200  0.84700  0.67990  Biso   1.000  H
  H182     1.0000 0.60800  0.15300  0.67990  Biso   1.000  H
  H183     1.0000 0.39200  0.15300  0.32010  Biso   1.000  H
  H184     1.0000 0.17990  0.89200  0.34700  Biso   1.000  H
  H185     1.0000 0.17990  0.10800  0.65300  Biso   1.000  H
  H186     1.0000 0.82010  0.89200  0.65300  Biso   1.000  H
  H187     1.0000 0.34700  0.17990  0.89200  Biso   1.000  H
  H188     1.0000 0.65300  0.17990  0.10800  Biso   1.000  H
  H189     1.0000 0.65300  0.82010  0.89200  Biso   1.000  H
  H190     1.0000 0.89200  0.34700  0.17990  Biso   1.000  H
  H191     1.0000 0.10800  0.65300  0.17990  Biso   1.000  H
  H192     1.0000 0.89200  0.65300  0.82010  Biso   1.000  H
  H193     1.0000 0.77690  0.35830  0.18420  Biso   1.000  H
  H194     1.0000 0.18420  0.77690  0.35830  Biso   1.000  H
  H195     1.0000 0.35830  0.18420  0.77690  Biso   1.000  H
  H196     1.0000 0.27690  0.85830  0.68420  Biso   1.000  H
  H197     1.0000 0.68420  0.27690  0.85830  Biso   1.000  H
  H198     1.0000 0.85830  0.68420  0.27690  Biso   1.000  H
  H199     1.0000 0.22310  0.64170  0.18420  Biso   1.000  H
  H200     1.0000 0.22310  0.35830  0.81580  Biso   1.000  H
  H201     1.0000 0.77690  0.64170  0.81580  Biso   1.000  H
  H202     1.0000 0.18420  0.22310  0.64170  Biso   1.000  H
  H203     1.0000 0.81580  0.22310  0.35830  Biso   1.000  H
  H204     1.0000 0.81580  0.77690  0.64170  Biso   1.000  H
  H205     1.0000 0.64170  0.18420  0.22310  Biso   1.000  H
  H206     1.0000 0.35830  0.81580  0.22310  Biso   1.000  H
  H207     1.0000 0.64170  0.81580  0.77690  Biso   1.000  H
  H208     1.0000 0.72310  0.14170  0.68420  Biso   1.000  H
  H209     1.0000 0.72310  0.85830  0.31580  Biso   1.000  H
  H210     1.0000 0.27690  0.14170  0.31580  Biso   1.000  H
  H211     1.0000 0.68420  0.72310  0.14170  Biso   1.000  H
  H212     1.0000 0.31580  0.72310  0.85830  Biso   1.000  H
  H213     1.0000 0.31580  0.27690  0.14170  Biso   1.000  H
  H214     1.0000 0.14170  0.68420  0.72310  Biso   1.000  H
  H215     1.0000 0.85830  0.31580  0.72310  Biso   1.000  H
  H216     1.0000 0.14170  0.31580  0.27690  Biso   1.000  H
  H217     1.0000 0.22310  0.64170  0.81580  Biso   1.000  H
  H218     1.0000 0.81580  0.22310  0.64170  Biso   1.000  H
  H219     1.0000 0.64170  0.81580  0.22310  Biso   1.000  H
  H220     1.0000 0.72310  0.14170  0.31580  Biso   1.000  H
  H221     1.0000 0.31580  0.72310  0.14170  Biso   1.000  H
  H222     1.0000 0.14170  0.31580  0.72310  Biso   1.000  H
  H223     1.0000 0.77690  0.35830  0.81580  Biso   1.000  H
  H224     1.0000 0.77690  0.64170  0.18420  Biso   1.000  H
  H225     1.0000 0.22310  0.35830  0.18420  Biso   1.000  H
  H226     1.0000 0.81580  0.77690  0.35830  Biso   1.000  H
  H227     1.0000 0.18420  0.77690  0.64170  Biso   1.000  H
  H228     1.0000 0.18420  0.22310  0.35830  Biso   1.000  H
  H229     1.0000 0.35830  0.81580  0.77690  Biso   1.000  H
  H230     1.0000 0.64170  0.18420  0.77690  Biso   1.000  H
  H231     1.0000 0.35830  0.18420  0.22310  Biso   1.000  H
  H232     1.0000 0.27690  0.85830  0.31580  Biso   1.000  H
  H233     1.0000 0.27690  0.14170  0.68420  Biso   1.000  H
  H234     1.0000 0.72310  0.85830  0.68420  Biso   1.000  H
  H235     1.0000 0.31580  0.27690  0.85830  Biso   1.000  H
  H236     1.0000 0.68420  0.27690  0.14170  Biso   1.000  H
  H237     1.0000 0.68420  0.72310  0.85830  Biso   1.000  H
  H238     1.0000 0.85830  0.31580  0.27690  Biso   1.000  H
  H239     1.0000 0.14170  0.68420  0.27690  Biso   1.000  H
  H240     1.0000 0.85830  0.68420  0.72310  Biso   1.000  H
  O1       1.0000 0.71890  0.00000  0.00000  Biso   1.000  O
  O2       1.0000 0.00000  0.71890  0.00000  Biso   1.000  O
  O3       1.0000 0.00000  0.00000  0.71890  Biso   1.000  O
  O4       1.0000 0.21890  0.50000  0.50000  Biso   1.000  O
  O5       1.0000 0.50000  0.21890  0.50000  Biso   1.000  O
  O6       1.0000 0.50000  0.50000  0.21890  Biso   1.000  O
  O7       1.0000 0.28110  0.00000  0.00000  Biso   1.000  O
  O8       1.0000 0.00000  0.28110  0.00000  Biso   1.000  O
  O9       1.0000 0.00000  0.00000  0.28110  Biso   1.000  O
  O10      1.0000 0.78110  0.50000  0.50000  Biso   1.000  O
  O11      1.0000 0.50000  0.78110  0.50000  Biso   1.000  O
  O12      1.0000 0.50000  0.50000  0.78110  Biso   1.000  O
  H241     1.0000 0.76840  0.96020  0.00000  Biso   1.000  H
  H242     1.0000 0.00000  0.76840  0.96020  Biso   1.000  H
  H243     1.0000 0.96020  0.00000  0.76840  Biso   1.000  H
  H244     1.0000 0.26840  0.46020  0.50000  Biso   1.000  H
  H245     1.0000 0.50000  0.26840  0.46020  Biso   1.000  H
  H246     1.0000 0.46020  0.50000  0.26840  Biso   1.000  H
  H247     1.0000 0.23160  0.03980  0.00000  Biso   1.000  H
  H248     1.0000 0.23160  0.96020  0.00000  Biso   1.000  H
  H249     1.0000 0.76840  0.03980  0.00000  Biso   1.000  H
  H250     1.0000 0.00000  0.23160  0.03980  Biso   1.000  H
  H251     1.0000 0.00000  0.23160  0.96020  Biso   1.000  H
  H252     1.0000 0.00000  0.76840  0.03980  Biso   1.000  H
  H253     1.0000 0.03980  0.00000  0.23160  Biso   1.000  H
  H254     1.0000 0.96020  0.00000  0.23160  Biso   1.000  H
  H255     1.0000 0.03980  0.00000  0.76840  Biso   1.000  H
  H256     1.0000 0.73160  0.53980  0.50000  Biso   1.000  H
  H257     1.0000 0.73160  0.46020  0.50000  Biso   1.000  H
  H258     1.0000 0.26840  0.53980  0.50000  Biso   1.000  H
  H259     1.0000 0.50000  0.73160  0.53980  Biso   1.000  H
  H260     1.0000 0.50000  0.73160  0.46020  Biso   1.000  H
  H261     1.0000 0.50000  0.26840  0.53980  Biso   1.000  H
  H262     1.0000 0.53980  0.50000  0.73160  Biso   1.000  H
  H263     1.0000 0.46020  0.50000  0.73160  Biso   1.000  H
  H264     1.0000 0.53980  0.50000  0.26840  Biso   1.000  H
  O13      1.0000 0.76300  0.00000  0.92800  Biso   1.000  O
  O14      1.0000 0.92800  0.76300  0.00000  Biso   1.000  O
  O15      1.0000 0.00000  0.92800  0.76300  Biso   1.000  O
  O16      1.0000 0.26300  0.50000  0.42800  Biso   1.000  O
  O17      1.0000 0.42800  0.26300  0.50000  Biso   1.000  O
  O18      1.0000 0.50000  0.42800  0.26300  Biso   1.000  O
  O19      1.0000 0.23700  0.00000  0.92800  Biso   1.000  O
  O20      1.0000 0.23700  0.00000  0.07200  Biso   1.000  O
  O21      1.0000 0.76300  0.00000  0.07200  Biso   1.000  O
  O22      1.0000 0.92800  0.23700  0.00000  Biso   1.000  O
  O23      1.0000 0.07200  0.23700  0.00000  Biso   1.000  O
  O24      1.0000 0.07200  0.76300  0.00000  Biso   1.000  O
  O25      1.0000 0.00000  0.92800  0.23700  Biso   1.000  O
  O26      1.0000 0.00000  0.07200  0.23700  Biso   1.000  O
  O27      1.0000 0.00000  0.07200  0.76300  Biso   1.000  O
  O28      1.0000 0.73700  0.50000  0.42800  Biso   1.000  O
  O29      1.0000 0.73700  0.50000  0.57200  Biso   1.000  O
  O30      1.0000 0.26300  0.50000  0.57200  Biso   1.000  O
  O31      1.0000 0.42800  0.73700  0.50000  Biso   1.000  O
  O32      1.0000 0.57200  0.73700  0.50000  Biso   1.000  O
  O33      1.0000 0.57200  0.26300  0.50000  Biso   1.000  O
  O34      1.0000 0.50000  0.42800  0.73700  Biso   1.000  O
  O35      1.0000 0.50000  0.57200  0.73700  Biso   1.000  O
  O36      1.0000 0.50000  0.57200  0.26300  Biso   1.000  O
  H265     1.0000 0.72870  0.95480  0.92290  Biso   1.000  H
  H266     1.0000 0.92290  0.72870  0.95480  Biso   1.000  H
  H267     1.0000 0.95480  0.92290  0.72870  Biso   1.000  H
  H268     1.0000 0.22870  0.45480  0.42290  Biso   1.000  H
  H269     1.0000 0.42290  0.22870  0.45480  Biso   1.000  H
  H270     1.0000 0.45480  0.42290  0.22870  Biso   1.000  H
  H271     1.0000 0.27130  0.04520  0.92290  Biso   1.000  H
  H272     1.0000 0.27130  0.95480  0.07710  Biso   1.000  H
  H273     1.0000 0.72870  0.04520  0.07710  Biso   1.000  H
  H274     1.0000 0.92290  0.27130  0.04520  Biso   1.000  H
  H275     1.0000 0.07710  0.27130  0.95480  Biso   1.000  H
  H276     1.0000 0.07710  0.72870  0.04520  Biso   1.000  H
  H277     1.0000 0.04520  0.92290  0.27130  Biso   1.000  H
  H278     1.0000 0.95480  0.07710  0.27130  Biso   1.000  H
  H279     1.0000 0.04520  0.07710  0.72870  Biso   1.000  H
  H280     1.0000 0.77130  0.54520  0.42290  Biso   1.000  H
  H281     1.0000 0.77130  0.45480  0.57710  Biso   1.000  H
  H282     1.0000 0.22870  0.54520  0.57710  Biso   1.000  H
  H283     1.0000 0.42290  0.77130  0.54520  Biso   1.000  H
  H284     1.0000 0.57710  0.77130  0.45480  Biso   1.000  H
  H285     1.0000 0.57710  0.22870  0.54520  Biso   1.000  H
  H286     1.0000 0.54520  0.42290  0.77130  Biso   1.000  H
  H287     1.0000 0.45480  0.57710  0.77130  Biso   1.000  H
  H288     1.0000 0.54520  0.57710  0.22870  Biso   1.000  H
  H289     1.0000 0.27130  0.04520  0.07710  Biso   1.000  H
  H290     1.0000 0.07710  0.27130  0.04520  Biso   1.000  H
  H291     1.0000 0.04520  0.07710  0.27130  Biso   1.000  H
  H292     1.0000 0.77130  0.54520  0.57710  Biso   1.000  H
  H293     1.0000 0.57710  0.77130  0.54520  Biso   1.000  H
  H294     1.0000 0.54520  0.57710  0.77130  Biso   1.000  H
  H295     1.0000 0.72870  0.95480  0.07710  Biso   1.000  H
  H296     1.0000 0.72870  0.04520  0.92290  Biso   1.000  H
  H297     1.0000 0.27130  0.95480  0.92290  Biso   1.000  H
  H298     1.0000 0.07710  0.72870  0.95480  Biso   1.000  H
  H299     1.0000 0.92290  0.72870  0.04520  Biso   1.000  H
  H300     1.0000 0.92290  0.27130  0.95480  Biso   1.000  H
  H301     1.0000 0.95480  0.07710  0.72870  Biso   1.000  H
  H302     1.0000 0.04520  0.92290  0.72870  Biso   1.000  H
  H303     1.0000 0.95480  0.92290  0.27130  Biso   1.000  H
  H304     1.0000 0.22870  0.45480  0.57710  Biso   1.000  H
  H305     1.0000 0.22870  0.54520  0.42290  Biso   1.000  H
  H306     1.0000 0.77130  0.45480  0.42290  Biso   1.000  H
  H307     1.0000 0.57710  0.22870  0.45480  Biso   1.000  H
  H308     1.0000 0.42290  0.22870  0.54520  Biso   1.000  H
  H309     1.0000 0.42290  0.77130  0.45480  Biso   1.000  H
  H310     1.0000 0.45480  0.57710  0.22870  Biso   1.000  H
  H311     1.0000 0.54520  0.42290  0.22870  Biso   1.000  H
  H312     1.0000 0.45480  0.42290  0.77130  Biso   1.000  H
  O37      1.0000 0.87400  0.90600  0.00000  Biso   1.000  O
  O38      1.0000 0.00000  0.87400  0.90600  Biso   1.000  O
  O39      1.0000 0.90600  0.00000  0.87400  Biso   1.000  O
  O40      1.0000 0.37400  0.40600  0.50000  Biso   1.000  O
  O41      1.0000 0.50000  0.37400  0.40600  Biso   1.000  O
  O42      1.0000 0.40600  0.50000  0.37400  Biso   1.000  O
  O43      1.0000 0.12600  0.09400  0.00000  Biso   1.000  O
  O44      1.0000 0.12600  0.90600  0.00000  Biso   1.000  O
  O45      1.0000 0.87400  0.09400  0.00000  Biso   1.000  O
  O46      1.0000 0.00000  0.12600  0.09400  Biso   1.000  O
  O47      1.0000 0.00000  0.12600  0.90600  Biso   1.000  O
  O48      1.0000 0.00000  0.87400  0.09400  Biso   1.000  O
  O49      1.0000 0.09400  0.00000  0.12600  Biso   1.000  O
  O50      1.0000 0.90600  0.00000  0.12600  Biso   1.000  O
  O51      1.0000 0.09400  0.00000  0.87400  Biso   1.000  O
  O52      1.0000 0.62600  0.59400  0.50000  Biso   1.000  O
  O53      1.0000 0.62600  0.40600  0.50000  Biso   1.000  O
  O54      1.0000 0.37400  0.59400  0.50000  Biso   1.000  O
  O55      1.0000 0.50000  0.62600  0.59400  Biso   1.000  O
  O56      1.0000 0.50000  0.62600  0.40600  Biso   1.000  O
  O57      1.0000 0.50000  0.37400  0.59400  Biso   1.000  O
  O58      1.0000 0.59400  0.50000  0.62600  Biso   1.000  O
  O59      1.0000 0.40600  0.50000  0.62600  Biso   1.000  O
  O60      1.0000 0.59400  0.50000  0.37400  Biso   1.000  O
  H313     1.0000 0.86830  0.91800  0.94760  Biso   1.000  H
  H314     1.0000 0.94760  0.86830  0.91800  Biso   1.000  H
  H315     1.0000 0.91800  0.94760  0.86830  Biso   1.000  H
  H316     1.0000 0.36830  0.41800  0.44760  Biso   1.000  H
  H317     1.0000 0.44760  0.36830  0.41800  Biso   1.000  H
  H318     1.0000 0.41800  0.44760  0.36830  Biso   1.000  H
  H319     1.0000 0.13170  0.08200  0.94760  Biso   1.000  H
  H320     1.0000 0.13170  0.91800  0.05240  Biso   1.000  H
  H321     1.0000 0.86830  0.08200  0.05240  Biso   1.000  H
  H322     1.0000 0.94760  0.13170  0.08200  Biso   1.000  H
  H323     1.0000 0.05240  0.13170  0.91800  Biso   1.000  H
  H324     1.0000 0.05240  0.86830  0.08200  Biso   1.000  H
  H325     1.0000 0.08200  0.94760  0.13170  Biso   1.000  H
  H326     1.0000 0.91800  0.05240  0.13170  Biso   1.000  H
  H327     1.0000 0.08200  0.05240  0.86830  Biso   1.000  H
  H328     1.0000 0.63170  0.58200  0.44760  Biso   1.000  H
  H329     1.0000 0.63170  0.41800  0.55240  Biso   1.000  H
  H330     1.0000 0.36830  0.58200  0.55240  Biso   1.000  H
  H331     1.0000 0.44760  0.63170  0.58200  Biso   1.000  H
  H332     1.0000 0.55240  0.63170  0.41800  Biso   1.000  H
  H333     1.0000 0.55240  0.36830  0.58200  Biso   1.000  H
  H334     1.0000 0.58200  0.44760  0.63170  Biso   1.000  H
  H335     1.0000 0.41800  0.55240  0.63170  Biso   1.000  H
  H336     1.0000 0.58200  0.55240  0.36830  Biso   1.000  H
  H337     1.0000 0.13170  0.08200  0.05240  Biso   1.000  H
  H338     1.0000 0.05240  0.13170  0.08200  Biso   1.000  H
  H339     1.0000 0.08200  0.05240  0.13170  Biso   1.000  H
  H340     1.0000 0.63170  0.58200  0.55240  Biso   1.000  H
  H341     1.0000 0.55240  0.63170  0.58200  Biso   1.000  H
  H342     1.0000 0.58200  0.55240  0.63170  Biso   1.000  H
  H343     1.0000 0.86830  0.91800  0.05240  Biso   1.000  H
  H344     1.0000 0.86830  0.08200  0.94760  Biso   1.000  H
  H345     1.0000 0.13170  0.91800  0.94760  Biso   1.000  H
  H346     1.0000 0.05240  0.86830  0.91800  Biso   1.000  H
  H347     1.0000 0.94760  0.86830  0.08200  Biso   1.000  H
  H348     1.0000 0.94760  0.13170  0.91800  Biso   1.000  H
  H349     1.0000 0.91800  0.05240  0.86830  Biso   1.000  H
  H350     1.0000 0.08200  0.94760  0.86830  Biso   1.000  H
  H351     1.0000 0.91800  0.94760  0.13170  Biso   1.000  H
  H352     1.0000 0.36830  0.41800  0.55240  Biso   1.000  H
  H353     1.0000 0.36830  0.58200  0.44760  Biso   1.000  H
  H354     1.0000 0.63170  0.41800  0.44760  Biso   1.000  H
  H355     1.0000 0.55240  0.36830  0.41800  Biso   1.000  H
  H356     1.0000 0.44760  0.36830  0.58200  Biso   1.000  H
  H357     1.0000 0.44760  0.63170  0.41800  Biso   1.000  H
  H358     1.0000 0.41800  0.55240  0.36830  Biso   1.000  H
  H359     1.0000 0.58200  0.44760  0.36830  Biso   1.000  H
  H360     1.0000 0.41800  0.44760  0.63170  Biso   1.000  H
  H361     1.0000 0.87910  0.96580  0.93180  Biso   1.000  H
  H362     1.0000 0.93180  0.87910  0.96580  Biso   1.000  H
  H363     1.0000 0.96580  0.93180  0.87910  Biso   1.000  H
  H364     1.0000 0.37910  0.46580  0.43180  Biso   1.000  H
  H365     1.0000 0.43180  0.37910  0.46580  Biso   1.000  H
  H366     1.0000 0.46580  0.43180  0.37910  Biso   1.000  H
  H367     1.0000 0.12090  0.03420  0.93180  Biso   1.000  H
  H368     1.0000 0.12090  0.96580  0.06820  Biso   1.000  H
  H369     1.0000 0.87910  0.03420  0.06820  Biso   1.000  H
  H370     1.0000 0.93180  0.12090  0.03420  Biso   1.000  H
  H371     1.0000 0.06820  0.12090  0.96580  Biso   1.000  H
  H372     1.0000 0.06820  0.87910  0.03420  Biso   1.000  H
  H373     1.0000 0.03420  0.93180  0.12090  Biso   1.000  H
  H374     1.0000 0.96580  0.06820  0.12090  Biso   1.000  H
  H375     1.0000 0.03420  0.06820  0.87910  Biso   1.000  H
  H376     1.0000 0.62090  0.53420  0.43180  Biso   1.000  H
  H377     1.0000 0.62090  0.46580  0.56820  Biso   1.000  H
  H378     1.0000 0.37910  0.53420  0.56820  Biso   1.000  H
  H379     1.0000 0.43180  0.62090  0.53420  Biso   1.000  H
  H380     1.0000 0.56820  0.62090  0.46580  Biso   1.000  H
  H381     1.0000 0.56820  0.37910  0.53420  Biso   1.000  H
  H382     1.0000 0.53420  0.43180  0.62090  Biso   1.000  H
  H383     1.0000 0.46580  0.56820  0.62090  Biso   1.000  H
  H384     1.0000 0.53420  0.56820  0.37910  Biso   1.000  H
  H385     1.0000 0.12090  0.03420  0.06820  Biso   1.000  H
  H386     1.0000 0.06820  0.12090  0.03420  Biso   1.000  H
  H387     1.0000 0.03420  0.06820  0.12090  Biso   1.000  H
  H388     1.0000 0.62090  0.53420  0.56820  Biso   1.000  H
  H389     1.0000 0.56820  0.62090  0.53420  Biso   1.000  H
  H390     1.0000 0.53420  0.56820  0.62090  Biso   1.000  H
  H391     1.0000 0.87910  0.96580  0.06820  Biso   1.000  H
  H392     1.0000 0.87910  0.03420  0.93180  Biso   1.000  H
  H393     1.0000 0.12090  0.96580  0.93180  Biso   1.000  H
  H394     1.0000 0.06820  0.87910  0.96580  Biso   1.000  H
  H395     1.0000 0.93180  0.87910  0.03420  Biso   1.000  H
  H396     1.0000 0.93180  0.12090  0.96580  Biso   1.000  H
  H397     1.0000 0.96580  0.06820  0.87910  Biso   1.000  H
  H398     1.0000 0.03420  0.93180  0.87910  Biso   1.000  H
  H399     1.0000 0.96580  0.93180  0.12090  Biso   1.000  H
  H400     1.0000 0.37910  0.46580  0.56820  Biso   1.000  H
  H401     1.0000 0.37910  0.53420  0.43180  Biso   1.000  H
  H402     1.0000 0.62090  0.46580  0.43180  Biso   1.000  H
  H403     1.0000 0.56820  0.37910  0.46580  Biso   1.000  H
  H404     1.0000 0.43180  0.37910  0.53420  Biso   1.000  H
  H405     1.0000 0.43180  0.62090  0.46580  Biso   1.000  H
  H406     1.0000 0.46580  0.56820  0.37910  Biso   1.000  H
  H407     1.0000 0.53420  0.43180  0.37910  Biso   1.000  H
  H408     1.0000 0.46580  0.43180  0.62090  Biso   1.000  H
  O61      1.0000 0.84100  0.94500  0.93000  Biso   1.000  O
  O62      1.0000 0.93000  0.84100  0.94500  Biso   1.000  O
  O63      1.0000 0.94500  0.93000  0.84100  Biso   1.000  O
  O64      1.0000 0.34100  0.44500  0.43000  Biso   1.000  O
  O65      1.0000 0.43000  0.34100  0.44500  Biso   1.000  O
  O66      1.0000 0.44500  0.43000  0.34100  Biso   1.000  O
  O67      1.0000 0.15900  0.05500  0.93000  Biso   1.000  O
  O68      1.0000 0.15900  0.94500  0.07000  Biso   1.000  O
  O69      1.0000 0.84100  0.05500  0.07000  Biso   1.000  O
  O70      1.0000 0.93000  0.15900  0.05500  Biso   1.000  O
  O71      1.0000 0.07000  0.15900  0.94500  Biso   1.000  O
  O72      1.0000 0.07000  0.84100  0.05500  Biso   1.000  O
  O73      1.0000 0.05500  0.93000  0.15900  Biso   1.000  O
  O74      1.0000 0.94500  0.07000  0.15900  Biso   1.000  O
  O75      1.0000 0.05500  0.07000  0.84100  Biso   1.000  O
  O76      1.0000 0.65900  0.55500  0.43000  Biso   1.000  O
  O77      1.0000 0.65900  0.44500  0.57000  Biso   1.000  O
  O78      1.0000 0.34100  0.55500  0.57000  Biso   1.000  O
  O79      1.0000 0.43000  0.65900  0.55500  Biso   1.000  O
  O80      1.0000 0.57000  0.65900  0.44500  Biso   1.000  O
  O81      1.0000 0.57000  0.34100  0.55500  Biso   1.000  O
  O82      1.0000 0.55500  0.43000  0.65900  Biso   1.000  O
  O83      1.0000 0.44500  0.57000  0.65900  Biso   1.000  O
  O84      1.0000 0.55500  0.57000  0.34100  Biso   1.000  O
  O85      1.0000 0.15900  0.05500  0.07000  Biso   1.000  O
  O86      1.0000 0.07000  0.15900  0.05500  Biso   1.000  O
  O87      1.0000 0.05500  0.07000  0.15900  Biso   1.000  O
  O88      1.0000 0.65900  0.55500  0.57000  Biso   1.000  O
  O89      1.0000 0.57000  0.65900  0.55500  Biso   1.000  O
  O90      1.0000 0.55500  0.57000  0.65900  Biso   1.000  O
  O91      1.0000 0.84100  0.94500  0.07000  Biso   1.000  O
  O92      1.0000 0.84100  0.05500  0.93000  Biso   1.000  O
  O93      1.0000 0.15900  0.94500  0.93000  Biso   1.000  O
  O94      1.0000 0.07000  0.84100  0.94500  Biso   1.000  O
  O95      1.0000 0.93000  0.84100  0.05500  Biso   1.000  O
  O96      1.0000 0.93000  0.15900  0.94500  Biso   1.000  O
  O97      1.0000 0.94500  0.07000  0.84100  Biso   1.000  O
  O98      1.0000 0.05500  0.93000  0.84100  Biso   1.000  O
  O99      1.0000 0.94500  0.93000  0.15900  Biso   1.000  O
  O100     1.0000 0.34100  0.44500  0.57000  Biso   1.000  O
  O101     1.0000 0.34100  0.55500  0.43000  Biso   1.000  O
  O102     1.0000 0.65900  0.44500  0.43000  Biso   1.000  O
  O103     1.0000 0.57000  0.34100  0.44500  Biso   1.000  O
  O104     1.0000 0.43000  0.34100  0.55500  Biso   1.000  O
  O105     1.0000 0.43000  0.65900  0.44500  Biso   1.000  O
  O106     1.0000 0.44500  0.57000  0.34100  Biso   1.000  O
  O107     1.0000 0.55500  0.43000  0.34100  Biso   1.000  O
  O108     1.0000 0.44500  0.43000  0.65900  Biso   1.000  O
  H409     1.0000 0.80710  0.91050  0.89930  Biso   1.000  H
  H410     1.0000 0.89930  0.80710  0.91050  Biso   1.000  H
  H411     1.0000 0.91050  0.89930  0.80710  Biso   1.000  H
  H412     1.0000 0.30710  0.41050  0.39930  Biso   1.000  H
  H413     1.0000 0.39930  0.30710  0.41050  Biso   1.000  H
  H414     1.0000 0.41050  0.39930  0.30710  Biso   1.000  H
  H415     1.0000 0.19290  0.08950  0.89930  Biso   1.000  H
  H416     1.0000 0.19290  0.91050  0.10070  Biso   1.000  H
  H417     1.0000 0.80710  0.08950  0.10070  Biso   1.000  H
  H418     1.0000 0.89930  0.19290  0.08950  Biso   1.000  H
  H419     1.0000 0.10070  0.19290  0.91050  Biso   1.000  H
  H420     1.0000 0.10070  0.80710  0.08950  Biso   1.000  H
  H421     1.0000 0.08950  0.89930  0.19290  Biso   1.000  H
  H422     1.0000 0.91050  0.10070  0.19290  Biso   1.000  H
  H423     1.0000 0.08950  0.10070  0.80710  Biso   1.000  H
  H424     1.0000 0.69290  0.58950  0.39930  Biso   1.000  H
  H425     1.0000 0.69290  0.41050  0.60070  Biso   1.000  H
  H426     1.0000 0.30710  0.58950  0.60070  Biso   1.000  H
  H427     1.0000 0.39930  0.69290  0.58950  Biso   1.000  H
  H428     1.0000 0.60070  0.69290  0.41050  Biso   1.000  H
  H429     1.0000 0.60070  0.30710  0.58950  Biso   1.000  H
  H430     1.0000 0.58950  0.39930  0.69290  Biso   1.000  H
  H431     1.0000 0.41050  0.60070  0.69290  Biso   1.000  H
  H432     1.0000 0.58950  0.60070  0.30710  Biso   1.000  H
  H433     1.0000 0.19290  0.08950  0.10070  Biso   1.000  H
  H434     1.0000 0.10070  0.19290  0.08950  Biso   1.000  H
  H435     1.0000 0.08950  0.10070  0.19290  Biso   1.000  H
  H436     1.0000 0.69290  0.58950  0.60070  Biso   1.000  H
  H437     1.0000 0.60070  0.69290  0.58950  Biso   1.000  H
  H438     1.0000 0.58950  0.60070  0.69290  Biso   1.000  H
  H439     1.0000 0.80710  0.91050  0.10070  Biso   1.000  H
  H440     1.0000 0.80710  0.08950  0.89930  Biso   1.000  H
  H441     1.0000 0.19290  0.91050  0.89930  Biso   1.000  H
  H442     1.0000 0.10070  0.80710  0.91050  Biso   1.000  H
  H443     1.0000 0.89930  0.80710  0.08950  Biso   1.000  H
  H444     1.0000 0.89930  0.19290  0.91050  Biso   1.000  H
  H445     1.0000 0.91050  0.10070  0.80710  Biso   1.000  H
  H446     1.0000 0.08950  0.89930  0.80710  Biso   1.000  H
  H447     1.0000 0.91050  0.89930  0.19290  Biso   1.000  H
  H448     1.0000 0.30710  0.41050  0.60070  Biso   1.000  H
  H449     1.0000 0.30710  0.58950  0.39930  Biso   1.000  H
  H450     1.0000 0.69290  0.41050  0.39930  Biso   1.000  H
  H451     1.0000 0.60070  0.30710  0.41050  Biso   1.000  H
  H452     1.0000 0.39930  0.30710  0.58950  Biso   1.000  H
  H453     1.0000 0.39930  0.69290  0.41050  Biso   1.000  H
  H454     1.0000 0.41050  0.60070  0.30710  Biso   1.000  H
  H455     1.0000 0.58950  0.39930  0.30710  Biso   1.000  H
  H456     1.0000 0.41050  0.39930  0.69290  Biso   1.000  H
  H457     1.0000 0.78490  0.00000  0.92070  Biso   1.000  H
  H458     1.0000 0.92070  0.78490  0.00000  Biso   1.000  H
  H459     1.0000 0.00000  0.92070  0.78490  Biso   1.000  H
  H460     1.0000 0.28490  0.50000  0.42070  Biso   1.000  H
  H461     1.0000 0.42070  0.28490  0.50000  Biso   1.000  H
  H462     1.0000 0.50000  0.42070  0.28490  Biso   1.000  H
  H463     1.0000 0.21510  0.00000  0.92070  Biso   1.000  H
  H464     1.0000 0.21510  0.00000  0.07930  Biso   1.000  H
  H465     1.0000 0.78490  0.00000  0.07930  Biso   1.000  H
  H466     1.0000 0.92070  0.21510  0.00000  Biso   1.000  H
  H467     1.0000 0.07930  0.21510  0.00000  Biso   1.000  H
  H468     1.0000 0.07930  0.78490  0.00000  Biso   1.000  H
  H469     1.0000 0.00000  0.92070  0.21510  Biso   1.000  H
  H470     1.0000 0.00000  0.07930  0.21510  Biso   1.000  H
  H471     1.0000 0.00000  0.07930  0.78490  Biso   1.000  H
  H472     1.0000 0.71510  0.50000  0.42070  Biso   1.000  H
  H473     1.0000 0.71510  0.50000  0.57930  Biso   1.000  H
  H474     1.0000 0.28490  0.50000  0.57930  Biso   1.000  H
  H475     1.0000 0.42070  0.71510  0.50000  Biso   1.000  H
  H476     1.0000 0.57930  0.71510  0.50000  Biso   1.000  H
  H477     1.0000 0.57930  0.28490  0.50000  Biso   1.000  H
  H478     1.0000 0.50000  0.42070  0.71510  Biso   1.000  H
  H479     1.0000 0.50000  0.57930  0.71510  Biso   1.000  H
  H480     1.0000 0.50000  0.57930  0.28490  Biso   1.000  H
