data_image0
_cell_length_a       43.733
_cell_length_b       26.579
_cell_length_c       39.339
_cell_angle_alpha    90
_cell_angle_beta     90
_cell_angle_gamma    90

_symmetry_space_group_name_H-M    "P 1"
_symmetry_int_tables_number       1

loop_
  _symmetry_equiv_pos_as_xyz
  'x, y, z'

loop_
  _atom_site_label
  _atom_site_occupancy
  _atom_site_fract_x
  _atom_site_fract_y
  _atom_site_fract_z
  _atom_site_thermal_displace_type
  _atom_site_B_iso_or_equiv
  _atom_site_type_symbol
  Cu1      1.0000 0.37990  0.72546  0.78756  Biso   1.000  Cu
  Cu2      1.0000 0.62010  0.27454  0.78756  Biso   1.000  Cu
  Cu3      1.0000 0.62990  0.52454  0.03756  Biso   1.000  Cu
  Cu4      1.0000 0.87010  0.97546  0.03756  Biso   1.000  Cu
  Cu5      1.0000 0.37990  0.22546  0.28756  Biso   1.000  Cu
  Cu6      1.0000 0.62010  0.77454  0.28756  Biso   1.000  Cu
  Cu7      1.0000 0.62990  0.02454  0.53756  Biso   1.000  Cu
  Cu8      1.0000 0.87010  0.47546  0.53756  Biso   1.000  Cu
  Cu9      1.0000 0.87990  0.72546  0.28756  Biso   1.000  Cu
  Cu10     1.0000 0.12010  0.27454  0.28756  Biso   1.000  Cu
  Cu11     1.0000 0.12990  0.52454  0.53756  Biso   1.000  Cu
  Cu12     1.0000 0.37010  0.97546  0.53756  Biso   1.000  Cu
  Cu13     1.0000 0.87990  0.22546  0.78756  Biso   1.000  Cu
  Cu14     1.0000 0.12010  0.77454  0.78756  Biso   1.000  Cu
  Cu15     1.0000 0.12990  0.02454  0.03756  Biso   1.000  Cu
  Cu16     1.0000 0.37010  0.47546  0.03756  Biso   1.000  Cu
  Cu17     1.0000 0.34688  0.12891  0.64237  Biso   1.000  Cu
  Cu18     1.0000 0.65312  0.87109  0.64237  Biso   1.000  Cu
  Cu19     1.0000 0.59688  0.12109  0.89237  Biso   1.000  Cu
  Cu20     1.0000 0.90312  0.37891  0.89237  Biso   1.000  Cu
  Cu21     1.0000 0.34688  0.62891  0.14237  Biso   1.000  Cu
  Cu22     1.0000 0.65312  0.37109  0.14237  Biso   1.000  Cu
  Cu23     1.0000 0.59688  0.62109  0.39237  Biso   1.000  Cu
  Cu24     1.0000 0.90312  0.87891  0.39237  Biso   1.000  Cu
  Cu25     1.0000 0.84688  0.12891  0.14237  Biso   1.000  Cu
  Cu26     1.0000 0.15312  0.87109  0.14237  Biso   1.000  Cu
  Cu27     1.0000 0.09688  0.12109  0.39237  Biso   1.000  Cu
  Cu28     1.0000 0.40312  0.37891  0.39237  Biso   1.000  Cu
  Cu29     1.0000 0.84688  0.62891  0.64237  Biso   1.000  Cu
  Cu30     1.0000 0.15312  0.37109  0.64237  Biso   1.000  Cu
  Cu31     1.0000 0.09688  0.62109  0.89237  Biso   1.000  Cu
  Cu32     1.0000 0.40312  0.87891  0.89237  Biso   1.000  Cu
  Cu33     1.0000 0.38329  0.66426  0.86699  Biso   1.000  Cu
  Cu34     1.0000 0.61671  0.33574  0.86699  Biso   1.000  Cu
  Cu35     1.0000 0.63329  0.58574  0.11699  Biso   1.000  Cu
  Cu36     1.0000 0.86671  0.91426  0.11699  Biso   1.000  Cu
  Cu37     1.0000 0.38329  0.16426  0.36699  Biso   1.000  Cu
  Cu38     1.0000 0.61671  0.83574  0.36699  Biso   1.000  Cu
  Cu39     1.0000 0.63329  0.08574  0.61699  Biso   1.000  Cu
  Cu40     1.0000 0.86671  0.41426  0.61699  Biso   1.000  Cu
  Cu41     1.0000 0.88329  0.66426  0.36699  Biso   1.000  Cu
  Cu42     1.0000 0.11671  0.33574  0.36699  Biso   1.000  Cu
  Cu43     1.0000 0.13329  0.58574  0.61699  Biso   1.000  Cu
  Cu44     1.0000 0.36671  0.91426  0.61699  Biso   1.000  Cu
  Cu45     1.0000 0.88329  0.16426  0.86699  Biso   1.000  Cu
  Cu46     1.0000 0.11671  0.83574  0.86699  Biso   1.000  Cu
  Cu47     1.0000 0.13329  0.08574  0.11699  Biso   1.000  Cu
  Cu48     1.0000 0.36671  0.41426  0.11699  Biso   1.000  Cu
  Cu49     1.0000 0.34754  0.34593  0.66357  Biso   1.000  Cu
  Cu50     1.0000 0.65246  0.65407  0.66357  Biso   1.000  Cu
  Cu51     1.0000 0.59754  0.90407  0.91357  Biso   1.000  Cu
  Cu52     1.0000 0.90246  0.59593  0.91357  Biso   1.000  Cu
  Cu53     1.0000 0.34754  0.84593  0.16357  Biso   1.000  Cu
  Cu54     1.0000 0.65246  0.15407  0.16357  Biso   1.000  Cu
  Cu55     1.0000 0.59754  0.40407  0.41357  Biso   1.000  Cu
  Cu56     1.0000 0.90246  0.09593  0.41357  Biso   1.000  Cu
  Cu57     1.0000 0.84754  0.34593  0.16357  Biso   1.000  Cu
  Cu58     1.0000 0.15246  0.65407  0.16357  Biso   1.000  Cu
  Cu59     1.0000 0.09754  0.90407  0.41357  Biso   1.000  Cu
  Cu60     1.0000 0.40246  0.59593  0.41357  Biso   1.000  Cu
  Cu61     1.0000 0.84754  0.84593  0.66357  Biso   1.000  Cu
  Cu62     1.0000 0.15246  0.15407  0.66357  Biso   1.000  Cu
  Cu63     1.0000 0.09754  0.40407  0.91357  Biso   1.000  Cu
  Cu64     1.0000 0.40246  0.09593  0.91357  Biso   1.000  Cu
  Cu65     1.0000 0.36887  0.50689  0.76311  Biso   1.000  Cu
  Cu66     1.0000 0.63113  0.49311  0.76311  Biso   1.000  Cu
  Cu67     1.0000 0.61887  0.74311  0.01311  Biso   1.000  Cu
  Cu68     1.0000 0.88113  0.75689  0.01311  Biso   1.000  Cu
  Cu69     1.0000 0.36887  0.00689  0.26311  Biso   1.000  Cu
  Cu70     1.0000 0.63113  0.99311  0.26311  Biso   1.000  Cu
  Cu71     1.0000 0.61887  0.24311  0.51311  Biso   1.000  Cu
  Cu72     1.0000 0.88113  0.25689  0.51311  Biso   1.000  Cu
  Cu73     1.0000 0.86887  0.50689  0.26311  Biso   1.000  Cu
  Cu74     1.0000 0.13113  0.49311  0.26311  Biso   1.000  Cu
  Cu75     1.0000 0.11887  0.74311  0.51311  Biso   1.000  Cu
  Cu76     1.0000 0.38113  0.75689  0.51311  Biso   1.000  Cu
  Cu77     1.0000 0.86887  0.00689  0.76311  Biso   1.000  Cu
  Cu78     1.0000 0.13113  0.99311  0.76311  Biso   1.000  Cu
  Cu79     1.0000 0.11887  0.24311  0.01311  Biso   1.000  Cu
  Cu80     1.0000 0.38113  0.25689  0.01311  Biso   1.000  Cu
  Cu81     1.0000 0.36282  0.28723  0.74492  Biso   1.000  Cu
  Cu82     1.0000 0.63718  0.71277  0.74492  Biso   1.000  Cu
  Cu83     1.0000 0.61282  0.96277  0.99492  Biso   1.000  Cu
  Cu84     1.0000 0.88718  0.53723  0.99492  Biso   1.000  Cu
  Cu85     1.0000 0.36282  0.78723  0.24492  Biso   1.000  Cu
  Cu86     1.0000 0.63718  0.21277  0.24492  Biso   1.000  Cu
  Cu87     1.0000 0.61282  0.46277  0.49492  Biso   1.000  Cu
  Cu88     1.0000 0.88718  0.03723  0.49492  Biso   1.000  Cu
  Cu89     1.0000 0.86282  0.28723  0.24492  Biso   1.000  Cu
  Cu90     1.0000 0.13718  0.71277  0.24492  Biso   1.000  Cu
  Cu91     1.0000 0.11282  0.96277  0.49492  Biso   1.000  Cu
  Cu92     1.0000 0.38718  0.53723  0.49492  Biso   1.000  Cu
  Cu93     1.0000 0.86282  0.78723  0.74492  Biso   1.000  Cu
  Cu94     1.0000 0.13718  0.21277  0.74492  Biso   1.000  Cu
  Cu95     1.0000 0.11282  0.46277  0.99492  Biso   1.000  Cu
  Cu96     1.0000 0.38718  0.03723  0.99492  Biso   1.000  Cu
  Cu97     1.0000 0.38128  0.20187  0.81461  Biso   1.000  Cu
  Cu98     1.0000 0.61872  0.79813  0.81461  Biso   1.000  Cu
  Cu99     1.0000 0.63128  0.04813  0.06461  Biso   1.000  Cu
  Cu100    1.0000 0.86872  0.45187  0.06461  Biso   1.000  Cu
  Cu101    1.0000 0.38128  0.70187  0.31461  Biso   1.000  Cu
  Cu102    1.0000 0.61872  0.29813  0.31461  Biso   1.000  Cu
  Cu103    1.0000 0.63128  0.54813  0.56461  Biso   1.000  Cu
  Cu104    1.0000 0.86872  0.95187  0.56461  Biso   1.000  Cu
  Cu105    1.0000 0.88128  0.20187  0.31461  Biso   1.000  Cu
  Cu106    1.0000 0.11872  0.79813  0.31461  Biso   1.000  Cu
  Cu107    1.0000 0.13128  0.04813  0.56461  Biso   1.000  Cu
  Cu108    1.0000 0.36872  0.45187  0.56461  Biso   1.000  Cu
  Cu109    1.0000 0.88128  0.70187  0.81461  Biso   1.000  Cu
  Cu110    1.0000 0.11872  0.29813  0.81461  Biso   1.000  Cu
  Cu111    1.0000 0.13128  0.54813  0.06461  Biso   1.000  Cu
  Cu112    1.0000 0.36872  0.95187  0.06461  Biso   1.000  Cu
  Cu113    1.0000 0.25000  0.25000  0.81597  Biso   1.000  Cu
  Cu114    1.0000 0.75000  0.75000  0.81597  Biso   1.000  Cu
  Cu115    1.0000 0.50000  0.00000  0.06597  Biso   1.000  Cu
  Cu116    1.0000 0.00000  0.50000  0.06597  Biso   1.000  Cu
  Cu117    1.0000 0.25000  0.75000  0.31597  Biso   1.000  Cu
  Cu118    1.0000 0.75000  0.25000  0.31597  Biso   1.000  Cu
  Cu119    1.0000 0.50000  0.50000  0.56597  Biso   1.000  Cu
  Cu120    1.0000 0.00000  0.00000  0.56597  Biso   1.000  Cu
  Cu121    1.0000 0.62429  0.19599  0.71502  Biso   1.000  Cu
  Cu122    1.0000 0.37571  0.80401  0.71502  Biso   1.000  Cu
  Cu123    1.0000 0.87429  0.05401  0.96502  Biso   1.000  Cu
  Cu124    1.0000 0.62571  0.44599  0.96502  Biso   1.000  Cu
  Cu125    1.0000 0.62429  0.69599  0.21502  Biso   1.000  Cu
  Cu126    1.0000 0.37571  0.30401  0.21502  Biso   1.000  Cu
  Cu127    1.0000 0.87429  0.55401  0.46502  Biso   1.000  Cu
  Cu128    1.0000 0.62571  0.94599  0.46502  Biso   1.000  Cu
  Cu129    1.0000 0.12429  0.19599  0.21502  Biso   1.000  Cu
  Cu130    1.0000 0.87571  0.80401  0.21502  Biso   1.000  Cu
  Cu131    1.0000 0.37429  0.05401  0.46502  Biso   1.000  Cu
  Cu132    1.0000 0.12571  0.44599  0.46502  Biso   1.000  Cu
  Cu133    1.0000 0.12429  0.69599  0.71502  Biso   1.000  Cu
  Cu134    1.0000 0.87571  0.30401  0.71502  Biso   1.000  Cu
  Cu135    1.0000 0.37429  0.55401  0.96502  Biso   1.000  Cu
  Cu136    1.0000 0.12571  0.94599  0.96502  Biso   1.000  Cu
  Cu137    1.0000 0.25000  0.75000  0.75272  Biso   1.000  Cu
  Cu138    1.0000 0.75000  0.25000  0.75272  Biso   1.000  Cu
  Cu139    1.0000 0.50000  0.50000  0.00272  Biso   1.000  Cu
  Cu140    1.0000 0.00000  0.00000  0.00272  Biso   1.000  Cu
  Cu141    1.0000 0.25000  0.25000  0.25272  Biso   1.000  Cu
  Cu142    1.0000 0.75000  0.75000  0.25272  Biso   1.000  Cu
  Cu143    1.0000 0.50000  0.00000  0.50272  Biso   1.000  Cu
  Cu144    1.0000 0.00000  0.50000  0.50272  Biso   1.000  Cu
  Cu145    1.0000 0.49509  0.24355  0.74302  Biso   1.000  Cu
  Cu146    1.0000 0.50491  0.75645  0.74302  Biso   1.000  Cu
  Cu147    1.0000 0.74509  0.00645  0.99302  Biso   1.000  Cu
  Cu148    1.0000 0.75491  0.49355  0.99302  Biso   1.000  Cu
  Cu149    1.0000 0.49509  0.74355  0.24302  Biso   1.000  Cu
  Cu150    1.0000 0.50491  0.25645  0.24302  Biso   1.000  Cu
  Cu151    1.0000 0.74509  0.50645  0.49302  Biso   1.000  Cu
  Cu152    1.0000 0.75491  0.99355  0.49302  Biso   1.000  Cu
  Cu153    1.0000 0.99509  0.24355  0.24302  Biso   1.000  Cu
  Cu154    1.0000 0.00491  0.75645  0.24302  Biso   1.000  Cu
  Cu155    1.0000 0.24509  0.00645  0.49302  Biso   1.000  Cu
  Cu156    1.0000 0.25491  0.49355  0.49302  Biso   1.000  Cu
  Cu157    1.0000 0.99509  0.74355  0.74302  Biso   1.000  Cu
  Cu158    1.0000 0.00491  0.25645  0.74302  Biso   1.000  Cu
  Cu159    1.0000 0.24509  0.50645  0.99302  Biso   1.000  Cu
  Cu160    1.0000 0.25491  0.99355  0.99302  Biso   1.000  Cu
  N1       1.0000 0.36280  0.36210  0.73600  Biso   1.000  N
  N2       1.0000 0.63720  0.63790  0.73600  Biso   1.000  N
  N3       1.0000 0.61280  0.88790  0.98600  Biso   1.000  N
  N4       1.0000 0.88720  0.61210  0.98600  Biso   1.000  N
  N5       1.0000 0.36280  0.86210  0.23600  Biso   1.000  N
  N6       1.0000 0.63720  0.13790  0.23600  Biso   1.000  N
  N7       1.0000 0.61280  0.38790  0.48600  Biso   1.000  N
  N8       1.0000 0.88720  0.11210  0.48600  Biso   1.000  N
  N9       1.0000 0.86280  0.36210  0.23600  Biso   1.000  N
  N10      1.0000 0.13720  0.63790  0.23600  Biso   1.000  N
  N11      1.0000 0.11280  0.88790  0.48600  Biso   1.000  N
  N12      1.0000 0.38720  0.61210  0.48600  Biso   1.000  N
  N13      1.0000 0.86280  0.86210  0.73600  Biso   1.000  N
  N14      1.0000 0.13720  0.13790  0.73600  Biso   1.000  N
  N15      1.0000 0.11280  0.38790  0.98600  Biso   1.000  N
  N16      1.0000 0.38720  0.11210  0.98600  Biso   1.000  N
  N17      1.0000 0.35160  0.38330  0.70680  Biso   1.000  N
  N18      1.0000 0.64840  0.61670  0.70680  Biso   1.000  N
  N19      1.0000 0.60160  0.86670  0.95680  Biso   1.000  N
  N20      1.0000 0.89840  0.63330  0.95680  Biso   1.000  N
  N21      1.0000 0.35160  0.88330  0.20680  Biso   1.000  N
  N22      1.0000 0.64840  0.11670  0.20680  Biso   1.000  N
  N23      1.0000 0.60160  0.36670  0.45680  Biso   1.000  N
  N24      1.0000 0.89840  0.13330  0.45680  Biso   1.000  N
  N25      1.0000 0.85160  0.38330  0.20680  Biso   1.000  N
  N26      1.0000 0.14840  0.61670  0.20680  Biso   1.000  N
  N27      1.0000 0.10160  0.86670  0.45680  Biso   1.000  N
  N28      1.0000 0.39840  0.63330  0.45680  Biso   1.000  N
  N29      1.0000 0.85160  0.88330  0.70680  Biso   1.000  N
  N30      1.0000 0.14840  0.11670  0.70680  Biso   1.000  N
  N31      1.0000 0.10160  0.36670  0.95680  Biso   1.000  N
  N32      1.0000 0.39840  0.13330  0.95680  Biso   1.000  N
  N33      1.0000 0.36370  0.44390  0.74350  Biso   1.000  N
  N34      1.0000 0.63630  0.55610  0.74350  Biso   1.000  N
  N35      1.0000 0.61370  0.80610  0.99350  Biso   1.000  N
  N36      1.0000 0.88630  0.69390  0.99350  Biso   1.000  N
  N37      1.0000 0.36370  0.94390  0.24350  Biso   1.000  N
  N38      1.0000 0.63630  0.05610  0.24350  Biso   1.000  N
  N39      1.0000 0.61370  0.30610  0.49350  Biso   1.000  N
  N40      1.0000 0.88630  0.19390  0.49350  Biso   1.000  N
  N41      1.0000 0.86370  0.44390  0.24350  Biso   1.000  N
  N42      1.0000 0.13630  0.55610  0.24350  Biso   1.000  N
  N43      1.0000 0.11370  0.80610  0.49350  Biso   1.000  N
  N44      1.0000 0.38630  0.69390  0.49350  Biso   1.000  N
  N45      1.0000 0.86370  0.94390  0.74350  Biso   1.000  N
  N46      1.0000 0.13630  0.05610  0.74350  Biso   1.000  N
  N47      1.0000 0.11370  0.30610  0.99350  Biso   1.000  N
  N48      1.0000 0.38630  0.19390  0.99350  Biso   1.000  N
  N49      1.0000 0.38120  0.62540  0.82390  Biso   1.000  N
  N50      1.0000 0.61880  0.37460  0.82390  Biso   1.000  N
  N51      1.0000 0.63120  0.62460  0.07390  Biso   1.000  N
  N52      1.0000 0.86880  0.87540  0.07390  Biso   1.000  N
  N53      1.0000 0.38120  0.12540  0.32390  Biso   1.000  N
  N54      1.0000 0.61880  0.87460  0.32390  Biso   1.000  N
  N55      1.0000 0.63120  0.12460  0.57390  Biso   1.000  N
  N56      1.0000 0.86880  0.37540  0.57390  Biso   1.000  N
  N57      1.0000 0.88120  0.62540  0.32390  Biso   1.000  N
  N58      1.0000 0.11880  0.37460  0.32390  Biso   1.000  N
  N59      1.0000 0.13120  0.62460  0.57390  Biso   1.000  N
  N60      1.0000 0.36880  0.87540  0.57390  Biso   1.000  N
  N61      1.0000 0.88120  0.12540  0.82390  Biso   1.000  N
  N62      1.0000 0.11880  0.87460  0.82390  Biso   1.000  N
  N63      1.0000 0.13120  0.12460  0.07390  Biso   1.000  N
  N64      1.0000 0.36880  0.37540  0.07390  Biso   1.000  N
  N65      1.0000 0.37700  0.65030  0.79310  Biso   1.000  N
  N66      1.0000 0.62300  0.34970  0.79310  Biso   1.000  N
  N67      1.0000 0.62700  0.59970  0.04310  Biso   1.000  N
  N68      1.0000 0.87300  0.90030  0.04310  Biso   1.000  N
  N69      1.0000 0.37700  0.15030  0.29310  Biso   1.000  N
  N70      1.0000 0.62300  0.84970  0.29310  Biso   1.000  N
  N71      1.0000 0.62700  0.09970  0.54310  Biso   1.000  N
  N72      1.0000 0.87300  0.40030  0.54310  Biso   1.000  N
  N73      1.0000 0.87700  0.65030  0.29310  Biso   1.000  N
  N74      1.0000 0.12300  0.34970  0.29310  Biso   1.000  N
  N75      1.0000 0.12700  0.59970  0.54310  Biso   1.000  N
  N76      1.0000 0.37300  0.90030  0.54310  Biso   1.000  N
  N77      1.0000 0.87700  0.15030  0.79310  Biso   1.000  N
  N78      1.0000 0.12300  0.84970  0.79310  Biso   1.000  N
  N79      1.0000 0.12700  0.09970  0.04310  Biso   1.000  N
  N80      1.0000 0.37300  0.40030  0.04310  Biso   1.000  N
  N81      1.0000 0.37460  0.56870  0.78410  Biso   1.000  N
  N82      1.0000 0.62540  0.43130  0.78410  Biso   1.000  N
  N83      1.0000 0.62460  0.68130  0.03410  Biso   1.000  N
  N84      1.0000 0.87540  0.81870  0.03410  Biso   1.000  N
  N85      1.0000 0.37460  0.06870  0.28410  Biso   1.000  N
  N86      1.0000 0.62540  0.93130  0.28410  Biso   1.000  N
  N87      1.0000 0.62460  0.18130  0.53410  Biso   1.000  N
  N88      1.0000 0.87540  0.31870  0.53410  Biso   1.000  N
  N89      1.0000 0.87460  0.56870  0.28410  Biso   1.000  N
  N90      1.0000 0.12540  0.43130  0.28410  Biso   1.000  N
  N91      1.0000 0.12460  0.68130  0.53410  Biso   1.000  N
  N92      1.0000 0.37540  0.81870  0.53410  Biso   1.000  N
  N93      1.0000 0.87460  0.06870  0.78410  Biso   1.000  N
  N94      1.0000 0.12540  0.93130  0.78410  Biso   1.000  N
  N95      1.0000 0.12460  0.18130  0.03410  Biso   1.000  N
  N96      1.0000 0.37540  0.31870  0.03410  Biso   1.000  N
  N97      1.0000 0.34100  0.75150  0.76750  Biso   1.000  N
  N98      1.0000 0.65900  0.24850  0.76750  Biso   1.000  N
  N99      1.0000 0.59100  0.49850  0.01750  Biso   1.000  N
  N100     1.0000 0.90900  0.00150  0.01750  Biso   1.000  N
  N101     1.0000 0.34100  0.25150  0.26750  Biso   1.000  N
  N102     1.0000 0.65900  0.74850  0.26750  Biso   1.000  N
  N103     1.0000 0.59100  0.99850  0.51750  Biso   1.000  N
  N104     1.0000 0.90900  0.50150  0.51750  Biso   1.000  N
  N105     1.0000 0.84100  0.75150  0.26750  Biso   1.000  N
  N106     1.0000 0.15900  0.24850  0.26750  Biso   1.000  N
  N107     1.0000 0.09100  0.49850  0.51750  Biso   1.000  N
  N108     1.0000 0.40900  0.00150  0.51750  Biso   1.000  N
  N109     1.0000 0.84100  0.25150  0.76750  Biso   1.000  N
  N110     1.0000 0.15900  0.74850  0.76750  Biso   1.000  N
  N111     1.0000 0.09100  0.99850  0.01750  Biso   1.000  N
  N112     1.0000 0.40900  0.50150  0.01750  Biso   1.000  N
  N113     1.0000 0.33950  0.77710  0.73710  Biso   1.000  N
  N114     1.0000 0.66050  0.22290  0.73710  Biso   1.000  N
  N115     1.0000 0.58950  0.47290  0.98710  Biso   1.000  N
  N116     1.0000 0.91050  0.02710  0.98710  Biso   1.000  N
  N117     1.0000 0.33950  0.27710  0.23710  Biso   1.000  N
  N118     1.0000 0.66050  0.72290  0.23710  Biso   1.000  N
  N119     1.0000 0.58950  0.97290  0.48710  Biso   1.000  N
  N120     1.0000 0.91050  0.52710  0.48710  Biso   1.000  N
  N121     1.0000 0.83950  0.77710  0.23710  Biso   1.000  N
  N122     1.0000 0.16050  0.22290  0.23710  Biso   1.000  N
  N123     1.0000 0.08950  0.47290  0.48710  Biso   1.000  N
  N124     1.0000 0.41050  0.02710  0.48710  Biso   1.000  N
  N125     1.0000 0.83950  0.27710  0.73710  Biso   1.000  N
  N126     1.0000 0.16050  0.72290  0.73710  Biso   1.000  N
  N127     1.0000 0.08950  0.97290  0.98710  Biso   1.000  N
  N128     1.0000 0.41050  0.52710  0.98710  Biso   1.000  N
  N129     1.0000 0.29240  0.75970  0.75290  Biso   1.000  N
  N130     1.0000 0.70760  0.24030  0.75290  Biso   1.000  N
  N131     1.0000 0.54240  0.49030  0.00290  Biso   1.000  N
  N132     1.0000 0.95760  0.00970  0.00290  Biso   1.000  N
  N133     1.0000 0.29240  0.25970  0.25290  Biso   1.000  N
  N134     1.0000 0.70760  0.74030  0.25290  Biso   1.000  N
  N135     1.0000 0.54240  0.99030  0.50290  Biso   1.000  N
  N136     1.0000 0.95760  0.50970  0.50290  Biso   1.000  N
  N137     1.0000 0.79240  0.75970  0.25290  Biso   1.000  N
  N138     1.0000 0.20760  0.24030  0.25290  Biso   1.000  N
  N139     1.0000 0.04240  0.49030  0.50290  Biso   1.000  N
  N140     1.0000 0.45760  0.00970  0.50290  Biso   1.000  N
  N141     1.0000 0.79240  0.25970  0.75290  Biso   1.000  N
  N142     1.0000 0.20760  0.74030  0.75290  Biso   1.000  N
  N143     1.0000 0.04240  0.99030  0.00290  Biso   1.000  N
  N144     1.0000 0.45760  0.50970  0.00290  Biso   1.000  N
  N145     1.0000 0.58430  0.22560  0.73000  Biso   1.000  N
  N146     1.0000 0.41570  0.77440  0.73000  Biso   1.000  N
  N147     1.0000 0.83430  0.02440  0.98000  Biso   1.000  N
  N148     1.0000 0.66570  0.47560  0.98000  Biso   1.000  N
  N149     1.0000 0.58430  0.72560  0.23000  Biso   1.000  N
  N150     1.0000 0.41570  0.27440  0.23000  Biso   1.000  N
  N151     1.0000 0.83430  0.52440  0.48000  Biso   1.000  N
  N152     1.0000 0.66570  0.97560  0.48000  Biso   1.000  N
  N153     1.0000 0.08430  0.22560  0.23000  Biso   1.000  N
  N154     1.0000 0.91570  0.77440  0.23000  Biso   1.000  N
  N155     1.0000 0.33430  0.02440  0.48000  Biso   1.000  N
  N156     1.0000 0.16570  0.47560  0.48000  Biso   1.000  N
  N157     1.0000 0.08430  0.72560  0.73000  Biso   1.000  N
  N158     1.0000 0.91570  0.27440  0.73000  Biso   1.000  N
  N159     1.0000 0.33430  0.52440  0.98000  Biso   1.000  N
  N160     1.0000 0.16570  0.97560  0.98000  Biso   1.000  N
  N161     1.0000 0.58460  0.26000  0.75600  Biso   1.000  N
  N162     1.0000 0.41540  0.74000  0.75600  Biso   1.000  N
  N163     1.0000 0.83460  0.99000  0.00600  Biso   1.000  N
  N164     1.0000 0.66540  0.51000  0.00600  Biso   1.000  N
  N165     1.0000 0.58460  0.76000  0.25600  Biso   1.000  N
  N166     1.0000 0.41540  0.24000  0.25600  Biso   1.000  N
  N167     1.0000 0.83460  0.49000  0.50600  Biso   1.000  N
  N168     1.0000 0.66540  0.01000  0.50600  Biso   1.000  N
  N169     1.0000 0.08460  0.26000  0.25600  Biso   1.000  N
  N170     1.0000 0.91540  0.74000  0.25600  Biso   1.000  N
  N171     1.0000 0.33460  0.99000  0.50600  Biso   1.000  N
  N172     1.0000 0.16540  0.51000  0.50600  Biso   1.000  N
  N173     1.0000 0.08460  0.76000  0.75600  Biso   1.000  N
  N174     1.0000 0.91540  0.24000  0.75600  Biso   1.000  N
  N175     1.0000 0.33460  0.49000  0.00600  Biso   1.000  N
  N176     1.0000 0.16540  0.01000  0.00600  Biso   1.000  N
  N177     1.0000 0.53720  0.24630  0.73980  Biso   1.000  N
  N178     1.0000 0.46280  0.75370  0.73980  Biso   1.000  N
  N179     1.0000 0.78720  0.00370  0.98980  Biso   1.000  N
  N180     1.0000 0.71280  0.49630  0.98980  Biso   1.000  N
  N181     1.0000 0.53720  0.74630  0.23980  Biso   1.000  N
  N182     1.0000 0.46280  0.25370  0.23980  Biso   1.000  N
  N183     1.0000 0.78720  0.50370  0.48980  Biso   1.000  N
  N184     1.0000 0.71280  0.99630  0.48980  Biso   1.000  N
  N185     1.0000 0.03720  0.24630  0.23980  Biso   1.000  N
  N186     1.0000 0.96280  0.75370  0.23980  Biso   1.000  N
  N187     1.0000 0.28720  0.00370  0.48980  Biso   1.000  N
  N188     1.0000 0.21280  0.49630  0.48980  Biso   1.000  N
  N189     1.0000 0.03720  0.74630  0.73980  Biso   1.000  N
  N190     1.0000 0.96280  0.25370  0.73980  Biso   1.000  N
  N191     1.0000 0.28720  0.50370  0.98980  Biso   1.000  N
  N192     1.0000 0.21280  0.99630  0.98980  Biso   1.000  N
  N193     1.0000 0.35940  0.98640  0.61260  Biso   1.000  N
  N194     1.0000 0.64060  0.01360  0.61260  Biso   1.000  N
  N195     1.0000 0.60940  0.26360  0.86260  Biso   1.000  N
  N196     1.0000 0.89060  0.23640  0.86260  Biso   1.000  N
  N197     1.0000 0.35940  0.48640  0.11260  Biso   1.000  N
  N198     1.0000 0.64060  0.51360  0.11260  Biso   1.000  N
  N199     1.0000 0.60940  0.76360  0.36260  Biso   1.000  N
  N200     1.0000 0.89060  0.73640  0.36260  Biso   1.000  N
  N201     1.0000 0.85940  0.98640  0.11260  Biso   1.000  N
  N202     1.0000 0.14060  0.01360  0.11260  Biso   1.000  N
  N203     1.0000 0.10940  0.26360  0.36260  Biso   1.000  N
  N204     1.0000 0.39060  0.23640  0.36260  Biso   1.000  N
  N205     1.0000 0.85940  0.48640  0.61260  Biso   1.000  N
  N206     1.0000 0.14060  0.51360  0.61260  Biso   1.000  N
  N207     1.0000 0.10940  0.76360  0.86260  Biso   1.000  N
  N208     1.0000 0.39060  0.73640  0.86260  Biso   1.000  N
  N209     1.0000 0.35940  0.00920  0.58140  Biso   1.000  N
  N210     1.0000 0.64060  0.99080  0.58140  Biso   1.000  N
  N211     1.0000 0.60940  0.24080  0.83140  Biso   1.000  N
  N212     1.0000 0.89060  0.25920  0.83140  Biso   1.000  N
  N213     1.0000 0.35940  0.50920  0.08140  Biso   1.000  N
  N214     1.0000 0.64060  0.49080  0.08140  Biso   1.000  N
  N215     1.0000 0.60940  0.74080  0.33140  Biso   1.000  N
  N216     1.0000 0.89060  0.75920  0.33140  Biso   1.000  N
  N217     1.0000 0.85940  0.00920  0.08140  Biso   1.000  N
  N218     1.0000 0.14060  0.99080  0.08140  Biso   1.000  N
  N219     1.0000 0.10940  0.24080  0.33140  Biso   1.000  N
  N220     1.0000 0.39060  0.25920  0.33140  Biso   1.000  N
  N221     1.0000 0.85940  0.50920  0.58140  Biso   1.000  N
  N222     1.0000 0.14060  0.49080  0.58140  Biso   1.000  N
  N223     1.0000 0.10940  0.74080  0.83140  Biso   1.000  N
  N224     1.0000 0.39060  0.75920  0.83140  Biso   1.000  N
  N225     1.0000 0.35140  0.06790  0.62100  Biso   1.000  N
  N226     1.0000 0.64860  0.93210  0.62100  Biso   1.000  N
  N227     1.0000 0.60140  0.18210  0.87100  Biso   1.000  N
  N228     1.0000 0.89860  0.31790  0.87100  Biso   1.000  N
  N229     1.0000 0.35140  0.56790  0.12100  Biso   1.000  N
  N230     1.0000 0.64860  0.43210  0.12100  Biso   1.000  N
  N231     1.0000 0.60140  0.68210  0.37100  Biso   1.000  N
  N232     1.0000 0.89860  0.81790  0.37100  Biso   1.000  N
  N233     1.0000 0.85140  0.06790  0.12100  Biso   1.000  N
  N234     1.0000 0.14860  0.93210  0.12100  Biso   1.000  N
  N235     1.0000 0.10140  0.18210  0.37100  Biso   1.000  N
  N236     1.0000 0.39860  0.31790  0.37100  Biso   1.000  N
  N237     1.0000 0.85140  0.56790  0.62100  Biso   1.000  N
  N238     1.0000 0.14860  0.43210  0.62100  Biso   1.000  N
  N239     1.0000 0.10140  0.68210  0.87100  Biso   1.000  N
  N240     1.0000 0.39860  0.81790  0.87100  Biso   1.000  N
  N241     1.0000 0.41180  0.22760  0.78160  Biso   1.000  N
  N242     1.0000 0.58820  0.77240  0.78160  Biso   1.000  N
  N243     1.0000 0.66180  0.02240  0.03160  Biso   1.000  N
  N244     1.0000 0.83820  0.47760  0.03160  Biso   1.000  N
  N245     1.0000 0.41180  0.72760  0.28160  Biso   1.000  N
  N246     1.0000 0.58820  0.27240  0.28160  Biso   1.000  N
  N247     1.0000 0.66180  0.52240  0.53160  Biso   1.000  N
  N248     1.0000 0.83820  0.97760  0.53160  Biso   1.000  N
  N249     1.0000 0.91180  0.22760  0.28160  Biso   1.000  N
  N250     1.0000 0.08820  0.77240  0.28160  Biso   1.000  N
  N251     1.0000 0.16180  0.02240  0.53160  Biso   1.000  N
  N252     1.0000 0.33820  0.47760  0.53160  Biso   1.000  N
  N253     1.0000 0.91180  0.72760  0.78160  Biso   1.000  N
  N254     1.0000 0.08820  0.27240  0.78160  Biso   1.000  N
  N255     1.0000 0.16180  0.52240  0.03160  Biso   1.000  N
  N256     1.0000 0.33820  0.97760  0.03160  Biso   1.000  N
  N257     1.0000 0.40440  0.25890  0.75510  Biso   1.000  N
  N258     1.0000 0.59560  0.74110  0.75510  Biso   1.000  N
  N259     1.0000 0.65440  0.99110  0.00510  Biso   1.000  N
  N260     1.0000 0.84560  0.50890  0.00510  Biso   1.000  N
  N261     1.0000 0.40440  0.75890  0.25510  Biso   1.000  N
  N262     1.0000 0.59560  0.24110  0.25510  Biso   1.000  N
  N263     1.0000 0.65440  0.49110  0.50510  Biso   1.000  N
  N264     1.0000 0.84560  0.00890  0.50510  Biso   1.000  N
  N265     1.0000 0.90440  0.25890  0.25510  Biso   1.000  N
  N266     1.0000 0.09560  0.74110  0.25510  Biso   1.000  N
  N267     1.0000 0.15440  0.99110  0.50510  Biso   1.000  N
  N268     1.0000 0.34560  0.50890  0.50510  Biso   1.000  N
  N269     1.0000 0.90440  0.75890  0.75510  Biso   1.000  N
  N270     1.0000 0.09560  0.24110  0.75510  Biso   1.000  N
  N271     1.0000 0.15440  0.49110  0.00510  Biso   1.000  N
  N272     1.0000 0.34560  0.00890  0.00510  Biso   1.000  N
  N273     1.0000 0.45440  0.24030  0.75170  Biso   1.000  N
  N274     1.0000 0.54560  0.75970  0.75170  Biso   1.000  N
  N275     1.0000 0.70440  0.00970  0.00170  Biso   1.000  N
  N276     1.0000 0.79560  0.49030  0.00170  Biso   1.000  N
  N277     1.0000 0.45440  0.74030  0.25170  Biso   1.000  N
  N278     1.0000 0.54560  0.25970  0.25170  Biso   1.000  N
  N279     1.0000 0.70440  0.50970  0.50170  Biso   1.000  N
  N280     1.0000 0.79560  0.99030  0.50170  Biso   1.000  N
  N281     1.0000 0.95440  0.24030  0.25170  Biso   1.000  N
  N282     1.0000 0.04560  0.75970  0.25170  Biso   1.000  N
  N283     1.0000 0.20440  0.00970  0.50170  Biso   1.000  N
  N284     1.0000 0.29560  0.49030  0.50170  Biso   1.000  N
  N285     1.0000 0.95440  0.74030  0.75170  Biso   1.000  N
  N286     1.0000 0.04560  0.25970  0.75170  Biso   1.000  N
  N287     1.0000 0.20440  0.50970  0.00170  Biso   1.000  N
  N288     1.0000 0.29560  0.99030  0.00170  Biso   1.000  N
  N289     1.0000 0.34800  0.25040  0.70230  Biso   1.000  N
  N290     1.0000 0.65200  0.74960  0.70230  Biso   1.000  N
  N291     1.0000 0.59800  0.99960  0.95230  Biso   1.000  N
  N292     1.0000 0.90200  0.50040  0.95230  Biso   1.000  N
  N293     1.0000 0.34800  0.75040  0.20230  Biso   1.000  N
  N294     1.0000 0.65200  0.24960  0.20230  Biso   1.000  N
  N295     1.0000 0.59800  0.49960  0.45230  Biso   1.000  N
  N296     1.0000 0.90200  0.00040  0.45230  Biso   1.000  N
  N297     1.0000 0.84800  0.25040  0.20230  Biso   1.000  N
  N298     1.0000 0.15200  0.74960  0.20230  Biso   1.000  N
  N299     1.0000 0.09800  0.99960  0.45230  Biso   1.000  N
  N300     1.0000 0.40200  0.50040  0.45230  Biso   1.000  N
  N301     1.0000 0.84800  0.75040  0.70230  Biso   1.000  N
  N302     1.0000 0.15200  0.24960  0.70230  Biso   1.000  N
  N303     1.0000 0.09800  0.49960  0.95230  Biso   1.000  N
  N304     1.0000 0.40200  0.00040  0.95230  Biso   1.000  N
  N305     1.0000 0.34410  0.27290  0.67090  Biso   1.000  N
  N306     1.0000 0.65590  0.72710  0.67090  Biso   1.000  N
  N307     1.0000 0.59410  0.97710  0.92090  Biso   1.000  N
  N308     1.0000 0.90590  0.52290  0.92090  Biso   1.000  N
  N309     1.0000 0.34410  0.77290  0.17090  Biso   1.000  N
  N310     1.0000 0.65590  0.22710  0.17090  Biso   1.000  N
  N311     1.0000 0.59410  0.47710  0.42090  Biso   1.000  N
  N312     1.0000 0.90590  0.02290  0.42090  Biso   1.000  N
  N313     1.0000 0.84410  0.27290  0.17090  Biso   1.000  N
  N314     1.0000 0.15590  0.72710  0.17090  Biso   1.000  N
  N315     1.0000 0.09410  0.97710  0.42090  Biso   1.000  N
  N316     1.0000 0.40590  0.52290  0.42090  Biso   1.000  N
  N317     1.0000 0.84410  0.77290  0.67090  Biso   1.000  N
  N318     1.0000 0.15590  0.22710  0.67090  Biso   1.000  N
  N319     1.0000 0.09410  0.47710  0.92090  Biso   1.000  N
  N320     1.0000 0.40590  0.02290  0.92090  Biso   1.000  N
  N321     1.0000 0.34380  0.19070  0.66340  Biso   1.000  N
  N322     1.0000 0.65620  0.80930  0.66340  Biso   1.000  N
  N323     1.0000 0.59380  0.05930  0.91340  Biso   1.000  N
  N324     1.0000 0.90620  0.44070  0.91340  Biso   1.000  N
  N325     1.0000 0.34380  0.69070  0.16340  Biso   1.000  N
  N326     1.0000 0.65620  0.30930  0.16340  Biso   1.000  N
  N327     1.0000 0.59380  0.55930  0.41340  Biso   1.000  N
  N328     1.0000 0.90620  0.94070  0.41340  Biso   1.000  N
  N329     1.0000 0.84380  0.19070  0.16340  Biso   1.000  N
  N330     1.0000 0.15620  0.80930  0.16340  Biso   1.000  N
  N331     1.0000 0.09380  0.05930  0.41340  Biso   1.000  N
  N332     1.0000 0.40620  0.44070  0.41340  Biso   1.000  N
  N333     1.0000 0.84380  0.69070  0.66340  Biso   1.000  N
  N334     1.0000 0.15620  0.30930  0.66340  Biso   1.000  N
  N335     1.0000 0.09380  0.55930  0.91340  Biso   1.000  N
  N336     1.0000 0.40620  0.94070  0.91340  Biso   1.000  N
  N337     1.0000 0.33500  0.27040  0.78440  Biso   1.000  N
  N338     1.0000 0.66500  0.72960  0.78440  Biso   1.000  N
  N339     1.0000 0.58500  0.97960  0.03440  Biso   1.000  N
  N340     1.0000 0.91500  0.52040  0.03440  Biso   1.000  N
  N341     1.0000 0.33500  0.77040  0.28440  Biso   1.000  N
  N342     1.0000 0.66500  0.22960  0.28440  Biso   1.000  N
  N343     1.0000 0.58500  0.47960  0.53440  Biso   1.000  N
  N344     1.0000 0.91500  0.02040  0.53440  Biso   1.000  N
  N345     1.0000 0.83500  0.27040  0.28440  Biso   1.000  N
  N346     1.0000 0.16500  0.72960  0.28440  Biso   1.000  N
  N347     1.0000 0.08500  0.97960  0.53440  Biso   1.000  N
  N348     1.0000 0.41500  0.52040  0.53440  Biso   1.000  N
  N349     1.0000 0.83500  0.77040  0.78440  Biso   1.000  N
  N350     1.0000 0.16500  0.22960  0.78440  Biso   1.000  N
  N351     1.0000 0.08500  0.47960  0.03440  Biso   1.000  N
  N352     1.0000 0.41500  0.02040  0.03440  Biso   1.000  N
  N353     1.0000 0.33980  0.23000  0.80790  Biso   1.000  N
  N354     1.0000 0.66020  0.77000  0.80790  Biso   1.000  N
  N355     1.0000 0.58980  0.02000  0.05790  Biso   1.000  N
  N356     1.0000 0.91020  0.48000  0.05790  Biso   1.000  N
  N357     1.0000 0.33980  0.73000  0.30790  Biso   1.000  N
  N358     1.0000 0.66020  0.27000  0.30790  Biso   1.000  N
  N359     1.0000 0.58980  0.52000  0.55790  Biso   1.000  N
  N360     1.0000 0.91020  0.98000  0.55790  Biso   1.000  N
  N361     1.0000 0.83980  0.23000  0.30790  Biso   1.000  N
  N362     1.0000 0.16020  0.77000  0.30790  Biso   1.000  N
  N363     1.0000 0.08980  0.02000  0.55790  Biso   1.000  N
  N364     1.0000 0.41020  0.48000  0.55790  Biso   1.000  N
  N365     1.0000 0.83980  0.73000  0.80790  Biso   1.000  N
  N366     1.0000 0.16020  0.27000  0.80790  Biso   1.000  N
  N367     1.0000 0.08980  0.52000  0.05790  Biso   1.000  N
  N368     1.0000 0.41020  0.98000  0.05790  Biso   1.000  N
  N369     1.0000 0.29170  0.25390  0.81200  Biso   1.000  N
  N370     1.0000 0.70830  0.74610  0.81200  Biso   1.000  N
  N371     1.0000 0.54170  0.99610  0.06200  Biso   1.000  N
  N372     1.0000 0.95830  0.50390  0.06200  Biso   1.000  N
  N373     1.0000 0.29170  0.75390  0.31200  Biso   1.000  N
  N374     1.0000 0.70830  0.24610  0.31200  Biso   1.000  N
  N375     1.0000 0.54170  0.49610  0.56200  Biso   1.000  N
  N376     1.0000 0.95830  0.00390  0.56200  Biso   1.000  N
  N377     1.0000 0.79170  0.25390  0.31200  Biso   1.000  N
  N378     1.0000 0.20830  0.74610  0.31200  Biso   1.000  N
  N379     1.0000 0.04170  0.99610  0.56200  Biso   1.000  N
  N380     1.0000 0.45830  0.50390  0.56200  Biso   1.000  N
  N381     1.0000 0.79170  0.75390  0.81200  Biso   1.000  N
  N382     1.0000 0.20830  0.24610  0.81200  Biso   1.000  N
  N383     1.0000 0.04170  0.49610  0.06200  Biso   1.000  N
  N384     1.0000 0.45830  0.00390  0.06200  Biso   1.000  N
  N385     1.0000 0.39190  0.15540  0.85020  Biso   1.000  N
  N386     1.0000 0.60810  0.84460  0.85020  Biso   1.000  N
  N387     1.0000 0.64190  0.09460  0.10020  Biso   1.000  N
  N388     1.0000 0.85810  0.40540  0.10020  Biso   1.000  N
  N389     1.0000 0.39190  0.65540  0.35020  Biso   1.000  N
  N390     1.0000 0.60810  0.34460  0.35020  Biso   1.000  N
  N391     1.0000 0.64190  0.59460  0.60020  Biso   1.000  N
  N392     1.0000 0.85810  0.90540  0.60020  Biso   1.000  N
  N393     1.0000 0.89190  0.15540  0.35020  Biso   1.000  N
  N394     1.0000 0.10810  0.84460  0.35020  Biso   1.000  N
  N395     1.0000 0.14190  0.09460  0.60020  Biso   1.000  N
  N396     1.0000 0.35810  0.40540  0.60020  Biso   1.000  N
  N397     1.0000 0.89190  0.65540  0.85020  Biso   1.000  N
  N398     1.0000 0.10810  0.34460  0.85020  Biso   1.000  N
  N399     1.0000 0.14190  0.59460  0.10020  Biso   1.000  N
  N400     1.0000 0.35810  0.90540  0.10020  Biso   1.000  N
  N401     1.0000 0.37940  0.62820  0.90710  Biso   1.000  N
  N402     1.0000 0.62060  0.37180  0.90710  Biso   1.000  N
  N403     1.0000 0.62940  0.62180  0.15710  Biso   1.000  N
  N404     1.0000 0.87060  0.87820  0.15710  Biso   1.000  N
  N405     1.0000 0.37940  0.12820  0.40710  Biso   1.000  N
  N406     1.0000 0.62060  0.87180  0.40710  Biso   1.000  N
  N407     1.0000 0.62940  0.12180  0.65710  Biso   1.000  N
  N408     1.0000 0.87060  0.37820  0.65710  Biso   1.000  N
  N409     1.0000 0.87940  0.62820  0.40710  Biso   1.000  N
  N410     1.0000 0.12060  0.37180  0.40710  Biso   1.000  N
  N411     1.0000 0.12940  0.62180  0.65710  Biso   1.000  N
  N412     1.0000 0.37060  0.87820  0.65710  Biso   1.000  N
  N413     1.0000 0.87940  0.12820  0.90710  Biso   1.000  N
  N414     1.0000 0.12060  0.87180  0.90710  Biso   1.000  N
  N415     1.0000 0.12940  0.12180  0.15710  Biso   1.000  N
  N416     1.0000 0.37060  0.37820  0.15710  Biso   1.000  N
  C1       1.0000 0.39760  0.13130  0.87300  Biso   1.000  C
  C2       1.0000 0.60240  0.86870  0.87300  Biso   1.000  C
  C3       1.0000 0.64760  0.11870  0.12300  Biso   1.000  C
  C4       1.0000 0.85240  0.38130  0.12300  Biso   1.000  C
  C5       1.0000 0.39760  0.63130  0.37300  Biso   1.000  C
  C6       1.0000 0.60240  0.36870  0.37300  Biso   1.000  C
  C7       1.0000 0.64760  0.61870  0.62300  Biso   1.000  C
  C8       1.0000 0.85240  0.88130  0.62300  Biso   1.000  C
  C9       1.0000 0.89760  0.13130  0.37300  Biso   1.000  C
  C10      1.0000 0.10240  0.86870  0.37300  Biso   1.000  C
  C11      1.0000 0.14760  0.11870  0.62300  Biso   1.000  C
  C12      1.0000 0.35240  0.38130  0.62300  Biso   1.000  C
  C13      1.0000 0.89760  0.63130  0.87300  Biso   1.000  C
  C14      1.0000 0.10240  0.36870  0.87300  Biso   1.000  C
  C15      1.0000 0.14760  0.61870  0.12300  Biso   1.000  C
  C16      1.0000 0.35240  0.88130  0.12300  Biso   1.000  C
  C17      1.0000 0.37610  0.60330  0.93130  Biso   1.000  C
  C18      1.0000 0.62390  0.39670  0.93130  Biso   1.000  C
  C19      1.0000 0.62610  0.64670  0.18130  Biso   1.000  C
  C20      1.0000 0.87390  0.85330  0.18130  Biso   1.000  C
  C21      1.0000 0.37610  0.10330  0.43130  Biso   1.000  C
  C22      1.0000 0.62390  0.89670  0.43130  Biso   1.000  C
  C23      1.0000 0.62610  0.14670  0.68130  Biso   1.000  C
  C24      1.0000 0.87390  0.35330  0.68130  Biso   1.000  C
  C25      1.0000 0.87610  0.60330  0.43130  Biso   1.000  C
  C26      1.0000 0.12390  0.39670  0.43130  Biso   1.000  C
  C27      1.0000 0.12610  0.64670  0.68130  Biso   1.000  C
  C28      1.0000 0.37390  0.85330  0.68130  Biso   1.000  C
  C29      1.0000 0.87610  0.10330  0.93130  Biso   1.000  C
  C30      1.0000 0.12390  0.89670  0.93130  Biso   1.000  C
  C31      1.0000 0.12610  0.14670  0.18130  Biso   1.000  C
  C32      1.0000 0.37390  0.35330  0.18130  Biso   1.000  C
  C33      1.0000 0.37010  0.39770  0.75670  Biso   1.000  C
  C34      1.0000 0.62990  0.60230  0.75670  Biso   1.000  C
  C35      1.0000 0.62010  0.85230  0.00670  Biso   1.000  C
  C36      1.0000 0.87990  0.64770  0.00670  Biso   1.000  C
  C37      1.0000 0.37010  0.89770  0.25670  Biso   1.000  C
  C38      1.0000 0.62990  0.10230  0.25670  Biso   1.000  C
  C39      1.0000 0.62010  0.35230  0.50670  Biso   1.000  C
  C40      1.0000 0.87990  0.14770  0.50670  Biso   1.000  C
  C41      1.0000 0.87010  0.39770  0.25670  Biso   1.000  C
  C42      1.0000 0.12990  0.60230  0.25670  Biso   1.000  C
  C43      1.0000 0.12010  0.85230  0.50670  Biso   1.000  C
  C44      1.0000 0.37990  0.64770  0.50670  Biso   1.000  C
  C45      1.0000 0.87010  0.89770  0.75670  Biso   1.000  C
  C46      1.0000 0.12990  0.10230  0.75670  Biso   1.000  C
  C47      1.0000 0.12010  0.35230  0.00670  Biso   1.000  C
  C48      1.0000 0.37990  0.14770  0.00670  Biso   1.000  C
  C49      1.0000 0.39100  0.39300  0.79200  Biso   1.000  C
  C50      1.0000 0.60900  0.60700  0.79200  Biso   1.000  C
  C51      1.0000 0.64100  0.85700  0.04200  Biso   1.000  C
  C52      1.0000 0.85900  0.64300  0.04200  Biso   1.000  C
  C53      1.0000 0.39100  0.89300  0.29200  Biso   1.000  C
  C54      1.0000 0.60900  0.10700  0.29200  Biso   1.000  C
  C55      1.0000 0.64100  0.35700  0.54200  Biso   1.000  C
  C56      1.0000 0.85900  0.14300  0.54200  Biso   1.000  C
  C57      1.0000 0.89100  0.39300  0.29200  Biso   1.000  C
  C58      1.0000 0.10900  0.60700  0.29200  Biso   1.000  C
  C59      1.0000 0.14100  0.85700  0.54200  Biso   1.000  C
  C60      1.0000 0.35900  0.64300  0.54200  Biso   1.000  C
  C61      1.0000 0.89100  0.89300  0.79200  Biso   1.000  C
  C62      1.0000 0.10900  0.10700  0.79200  Biso   1.000  C
  C63      1.0000 0.14100  0.35700  0.04200  Biso   1.000  C
  C64      1.0000 0.35900  0.14300  0.04200  Biso   1.000  C
  H1       1.0000 0.38970  0.35820  0.80080  Biso   1.000  H
  H2       1.0000 0.61030  0.64180  0.80080  Biso   1.000  H
  H3       1.0000 0.63970  0.89180  0.05080  Biso   1.000  H
  H4       1.0000 0.86030  0.60820  0.05080  Biso   1.000  H
  H5       1.0000 0.38970  0.85820  0.30080  Biso   1.000  H
  H6       1.0000 0.61030  0.14180  0.30080  Biso   1.000  H
  H7       1.0000 0.63970  0.39180  0.55080  Biso   1.000  H
  H8       1.0000 0.86030  0.10820  0.55080  Biso   1.000  H
  H9       1.0000 0.88970  0.35820  0.30080  Biso   1.000  H
  H10      1.0000 0.11030  0.64180  0.30080  Biso   1.000  H
  H11      1.0000 0.13970  0.89180  0.55080  Biso   1.000  H
  H12      1.0000 0.36030  0.60820  0.55080  Biso   1.000  H
  H13      1.0000 0.88970  0.85820  0.80080  Biso   1.000  H
  H14      1.0000 0.11030  0.14180  0.80080  Biso   1.000  H
  H15      1.0000 0.13970  0.39180  0.05080  Biso   1.000  H
  H16      1.0000 0.36030  0.10820  0.05080  Biso   1.000  H
  H17      1.0000 0.38240  0.41580  0.80950  Biso   1.000  H
  H18      1.0000 0.61760  0.58420  0.80950  Biso   1.000  H
  H19      1.0000 0.63240  0.83420  0.05950  Biso   1.000  H
  H20      1.0000 0.86760  0.66580  0.05950  Biso   1.000  H
  H21      1.0000 0.38240  0.91580  0.30950  Biso   1.000  H
  H22      1.0000 0.61760  0.08420  0.30950  Biso   1.000  H
  H23      1.0000 0.63240  0.33420  0.55950  Biso   1.000  H
  H24      1.0000 0.86760  0.16580  0.55950  Biso   1.000  H
  H25      1.0000 0.88240  0.41580  0.30950  Biso   1.000  H
  H26      1.0000 0.11760  0.58420  0.30950  Biso   1.000  H
  H27      1.0000 0.13240  0.83420  0.55950  Biso   1.000  H
  H28      1.0000 0.36760  0.66580  0.55950  Biso   1.000  H
  H29      1.0000 0.88240  0.91580  0.80950  Biso   1.000  H
  H30      1.0000 0.11760  0.08420  0.80950  Biso   1.000  H
  H31      1.0000 0.13240  0.33420  0.05950  Biso   1.000  H
  H32      1.0000 0.36760  0.16580  0.05950  Biso   1.000  H
  C65      1.0000 0.42430  0.40640  0.78600  Biso   1.000  C
  C66      1.0000 0.57570  0.59360  0.78600  Biso   1.000  C
  C67      1.0000 0.67430  0.84360  0.03600  Biso   1.000  C
  C68      1.0000 0.82570  0.65640  0.03600  Biso   1.000  C
  C69      1.0000 0.42430  0.90640  0.28600  Biso   1.000  C
  C70      1.0000 0.57570  0.09360  0.28600  Biso   1.000  C
  C71      1.0000 0.67430  0.34360  0.53600  Biso   1.000  C
  C72      1.0000 0.82570  0.15640  0.53600  Biso   1.000  C
  C73      1.0000 0.92430  0.40640  0.28600  Biso   1.000  C
  C74      1.0000 0.07570  0.59360  0.28600  Biso   1.000  C
  C75      1.0000 0.17430  0.84360  0.53600  Biso   1.000  C
  C76      1.0000 0.32570  0.65640  0.53600  Biso   1.000  C
  C77      1.0000 0.92430  0.90640  0.78600  Biso   1.000  C
  C78      1.0000 0.07570  0.09360  0.78600  Biso   1.000  C
  C79      1.0000 0.17430  0.34360  0.03600  Biso   1.000  C
  C80      1.0000 0.32570  0.15640  0.03600  Biso   1.000  C
  H33      1.0000 0.42650  0.44180  0.77850  Biso   1.000  H
  H34      1.0000 0.57350  0.55820  0.77850  Biso   1.000  H
  H35      1.0000 0.67650  0.80820  0.02850  Biso   1.000  H
  H36      1.0000 0.82350  0.69180  0.02850  Biso   1.000  H
  H37      1.0000 0.42650  0.94180  0.27850  Biso   1.000  H
  H38      1.0000 0.57350  0.05820  0.27850  Biso   1.000  H
  H39      1.0000 0.67650  0.30820  0.52850  Biso   1.000  H
  H40      1.0000 0.82350  0.19180  0.52850  Biso   1.000  H
  H41      1.0000 0.92650  0.44180  0.27850  Biso   1.000  H
  H42      1.0000 0.07350  0.55820  0.27850  Biso   1.000  H
  H43      1.0000 0.17650  0.80820  0.52850  Biso   1.000  H
  H44      1.0000 0.32350  0.69180  0.52850  Biso   1.000  H
  H45      1.0000 0.92650  0.94180  0.77850  Biso   1.000  H
  H46      1.0000 0.07350  0.05820  0.77850  Biso   1.000  H
  H47      1.0000 0.17650  0.30820  0.02850  Biso   1.000  H
  H48      1.0000 0.32350  0.19180  0.02850  Biso   1.000  H
  H49      1.0000 0.43370  0.38400  0.76880  Biso   1.000  H
  H50      1.0000 0.56630  0.61600  0.76880  Biso   1.000  H
  H51      1.0000 0.68370  0.86600  0.01880  Biso   1.000  H
  H52      1.0000 0.81630  0.63400  0.01880  Biso   1.000  H
  H53      1.0000 0.43370  0.88400  0.26880  Biso   1.000  H
  H54      1.0000 0.56630  0.11600  0.26880  Biso   1.000  H
  H55      1.0000 0.68370  0.36600  0.51880  Biso   1.000  H
  H56      1.0000 0.81630  0.13400  0.51880  Biso   1.000  H
  H57      1.0000 0.93370  0.38400  0.26880  Biso   1.000  H
  H58      1.0000 0.06630  0.61600  0.26880  Biso   1.000  H
  H59      1.0000 0.18370  0.86600  0.51880  Biso   1.000  H
  H60      1.0000 0.31630  0.63400  0.51880  Biso   1.000  H
  H61      1.0000 0.93370  0.88400  0.76880  Biso   1.000  H
  H62      1.0000 0.06630  0.11600  0.76880  Biso   1.000  H
  H63      1.0000 0.18370  0.36600  0.01880  Biso   1.000  H
  H64      1.0000 0.31630  0.13400  0.01880  Biso   1.000  H
  C81      1.0000 0.43850  0.39830  0.82080  Biso   1.000  C
  C82      1.0000 0.56150  0.60170  0.82080  Biso   1.000  C
  C83      1.0000 0.68850  0.85170  0.07080  Biso   1.000  C
  C84      1.0000 0.81150  0.64830  0.07080  Biso   1.000  C
  C85      1.0000 0.43850  0.89830  0.32080  Biso   1.000  C
  C86      1.0000 0.56150  0.10170  0.32080  Biso   1.000  C
  C87      1.0000 0.68850  0.35170  0.57080  Biso   1.000  C
  C88      1.0000 0.81150  0.14830  0.57080  Biso   1.000  C
  C89      1.0000 0.93850  0.39830  0.32080  Biso   1.000  C
  C90      1.0000 0.06150  0.60170  0.32080  Biso   1.000  C
  C91      1.0000 0.18850  0.85170  0.57080  Biso   1.000  C
  C92      1.0000 0.31150  0.64830  0.57080  Biso   1.000  C
  C93      1.0000 0.93850  0.89830  0.82080  Biso   1.000  C
  C94      1.0000 0.06150  0.10170  0.82080  Biso   1.000  C
  C95      1.0000 0.18850  0.35170  0.07080  Biso   1.000  C
  C96      1.0000 0.31150  0.14830  0.07080  Biso   1.000  C
  H65      1.0000 0.45550  0.42230  0.82410  Biso   1.000  H
  H66      1.0000 0.54450  0.57770  0.82410  Biso   1.000  H
  H67      1.0000 0.70550  0.82770  0.07410  Biso   1.000  H
  H68      1.0000 0.79450  0.67230  0.07410  Biso   1.000  H
  H69      1.0000 0.45550  0.92230  0.32410  Biso   1.000  H
  H70      1.0000 0.54450  0.07770  0.32410  Biso   1.000  H
  H71      1.0000 0.70550  0.32770  0.57410  Biso   1.000  H
  H72      1.0000 0.79450  0.17230  0.57410  Biso   1.000  H
  H73      1.0000 0.95550  0.42230  0.32410  Biso   1.000  H
  H74      1.0000 0.04450  0.57770  0.32410  Biso   1.000  H
  H75      1.0000 0.20550  0.82770  0.57410  Biso   1.000  H
  H76      1.0000 0.29450  0.67230  0.57410  Biso   1.000  H
  H77      1.0000 0.95550  0.92230  0.82410  Biso   1.000  H
  H78      1.0000 0.04450  0.07770  0.82410  Biso   1.000  H
  H79      1.0000 0.20550  0.32770  0.07410  Biso   1.000  H
  H80      1.0000 0.29450  0.17230  0.07410  Biso   1.000  H
  H81      1.0000 0.42300  0.40450  0.83860  Biso   1.000  H
  H82      1.0000 0.57700  0.59550  0.83860  Biso   1.000  H
  H83      1.0000 0.67300  0.84550  0.08860  Biso   1.000  H
  H84      1.0000 0.82700  0.65450  0.08860  Biso   1.000  H
  H85      1.0000 0.42300  0.90450  0.33860  Biso   1.000  H
  H86      1.0000 0.57700  0.09550  0.33860  Biso   1.000  H
  H87      1.0000 0.67300  0.34550  0.58860  Biso   1.000  H
  H88      1.0000 0.82700  0.15450  0.58860  Biso   1.000  H
  H89      1.0000 0.92300  0.40450  0.33860  Biso   1.000  H
  H90      1.0000 0.07700  0.59550  0.33860  Biso   1.000  H
  H91      1.0000 0.17300  0.84550  0.58860  Biso   1.000  H
  H92      1.0000 0.32700  0.65450  0.58860  Biso   1.000  H
  H93      1.0000 0.92300  0.90450  0.83860  Biso   1.000  H
  H94      1.0000 0.07700  0.09550  0.83860  Biso   1.000  H
  H95      1.0000 0.17300  0.34550  0.08860  Biso   1.000  H
  H96      1.0000 0.32700  0.15450  0.08860  Biso   1.000  H
  C97      1.0000 0.45060  0.34420  0.82390  Biso   1.000  C
  C98      1.0000 0.54940  0.65580  0.82390  Biso   1.000  C
  C99      1.0000 0.70060  0.90580  0.07390  Biso   1.000  C
  C100     1.0000 0.79940  0.59420  0.07390  Biso   1.000  C
  C101     1.0000 0.45060  0.84420  0.32390  Biso   1.000  C
  C102     1.0000 0.54940  0.15580  0.32390  Biso   1.000  C
  C103     1.0000 0.70060  0.40580  0.57390  Biso   1.000  C
  C104     1.0000 0.79940  0.09420  0.57390  Biso   1.000  C
  C105     1.0000 0.95060  0.34420  0.32390  Biso   1.000  C
  C106     1.0000 0.04940  0.65580  0.32390  Biso   1.000  C
  C107     1.0000 0.20060  0.90580  0.57390  Biso   1.000  C
  C108     1.0000 0.29940  0.59420  0.57390  Biso   1.000  C
  C109     1.0000 0.95060  0.84420  0.82390  Biso   1.000  C
  C110     1.0000 0.04940  0.15580  0.82390  Biso   1.000  C
  C111     1.0000 0.20060  0.40580  0.07390  Biso   1.000  C
  C112     1.0000 0.29940  0.09420  0.07390  Biso   1.000  C
  H97      1.0000 0.46020  0.33970  0.84620  Biso   1.000  H
  H98      1.0000 0.53980  0.66030  0.84620  Biso   1.000  H
  H99      1.0000 0.71020  0.91030  0.09620  Biso   1.000  H
  H100     1.0000 0.78980  0.58970  0.09620  Biso   1.000  H
  H101     1.0000 0.46020  0.83970  0.34620  Biso   1.000  H
  H102     1.0000 0.53980  0.16030  0.34620  Biso   1.000  H
  H103     1.0000 0.71020  0.41030  0.59620  Biso   1.000  H
  H104     1.0000 0.78980  0.08970  0.59620  Biso   1.000  H
  H105     1.0000 0.96020  0.33970  0.34620  Biso   1.000  H
  H106     1.0000 0.03980  0.66030  0.34620  Biso   1.000  H
  H107     1.0000 0.21020  0.91030  0.59620  Biso   1.000  H
  H108     1.0000 0.28980  0.58970  0.59620  Biso   1.000  H
  H109     1.0000 0.96020  0.83970  0.84620  Biso   1.000  H
  H110     1.0000 0.03980  0.16030  0.84620  Biso   1.000  H
  H111     1.0000 0.21020  0.41030  0.09620  Biso   1.000  H
  H112     1.0000 0.28980  0.08970  0.09620  Biso   1.000  H
  H113     1.0000 0.43350  0.32050  0.82160  Biso   1.000  H
  H114     1.0000 0.56650  0.67950  0.82160  Biso   1.000  H
  H115     1.0000 0.68350  0.92950  0.07160  Biso   1.000  H
  H116     1.0000 0.81650  0.57050  0.07160  Biso   1.000  H
  H117     1.0000 0.43350  0.82050  0.32160  Biso   1.000  H
  H118     1.0000 0.56650  0.17950  0.32160  Biso   1.000  H
  H119     1.0000 0.68350  0.42950  0.57160  Biso   1.000  H
  H120     1.0000 0.81650  0.07050  0.57160  Biso   1.000  H
  H121     1.0000 0.93350  0.32050  0.32160  Biso   1.000  H
  H122     1.0000 0.06650  0.67950  0.32160  Biso   1.000  H
  H123     1.0000 0.18350  0.92950  0.57160  Biso   1.000  H
  H124     1.0000 0.31650  0.57050  0.57160  Biso   1.000  H
  H125     1.0000 0.93350  0.82050  0.82160  Biso   1.000  H
  H126     1.0000 0.06650  0.17950  0.82160  Biso   1.000  H
  H127     1.0000 0.18350  0.42950  0.07160  Biso   1.000  H
  H128     1.0000 0.31650  0.07050  0.07160  Biso   1.000  H
  H129     1.0000 0.46560  0.33790  0.80600  Biso   1.000  H
  H130     1.0000 0.53440  0.66210  0.80600  Biso   1.000  H
  H131     1.0000 0.71560  0.91210  0.05600  Biso   1.000  H
  H132     1.0000 0.78440  0.58790  0.05600  Biso   1.000  H
  H133     1.0000 0.46560  0.83790  0.30600  Biso   1.000  H
  H134     1.0000 0.53440  0.16210  0.30600  Biso   1.000  H
  H135     1.0000 0.71560  0.41210  0.55600  Biso   1.000  H
  H136     1.0000 0.78440  0.08790  0.55600  Biso   1.000  H
  H137     1.0000 0.96560  0.33790  0.30600  Biso   1.000  H
  H138     1.0000 0.03440  0.66210  0.30600  Biso   1.000  H
  H139     1.0000 0.21560  0.91210  0.55600  Biso   1.000  H
  H140     1.0000 0.28440  0.58790  0.55600  Biso   1.000  H
  H141     1.0000 0.96560  0.83790  0.80600  Biso   1.000  H
  H142     1.0000 0.03440  0.16210  0.80600  Biso   1.000  H
  H143     1.0000 0.21560  0.41210  0.05600  Biso   1.000  H
  H144     1.0000 0.28440  0.08790  0.05600  Biso   1.000  H
  C113     1.0000 0.37560  0.13870  0.04350  Biso   1.000  C
  C114     1.0000 0.62440  0.86130  0.04350  Biso   1.000  C
  C115     1.0000 0.62560  0.11130  0.29350  Biso   1.000  C
  C116     1.0000 0.87440  0.38870  0.29350  Biso   1.000  C
  C117     1.0000 0.37560  0.63870  0.54350  Biso   1.000  C
  C118     1.0000 0.62440  0.36130  0.54350  Biso   1.000  C
  C119     1.0000 0.62560  0.61130  0.79350  Biso   1.000  C
  C120     1.0000 0.87440  0.88870  0.79350  Biso   1.000  C
  C121     1.0000 0.87560  0.13870  0.54350  Biso   1.000  C
  C122     1.0000 0.12440  0.86130  0.54350  Biso   1.000  C
  C123     1.0000 0.12560  0.11130  0.79350  Biso   1.000  C
  C124     1.0000 0.37440  0.38870  0.79350  Biso   1.000  C
  C125     1.0000 0.87560  0.63870  0.04350  Biso   1.000  C
  C126     1.0000 0.12440  0.36130  0.04350  Biso   1.000  C
  C127     1.0000 0.12560  0.61130  0.29350  Biso   1.000  C
  C128     1.0000 0.37440  0.88870  0.29350  Biso   1.000  C
  H145     1.0000 0.38560  0.16480  0.05770  Biso   1.000  H
  H146     1.0000 0.61440  0.83520  0.05770  Biso   1.000  H
  H147     1.0000 0.63560  0.08520  0.30770  Biso   1.000  H
  H148     1.0000 0.86440  0.41480  0.30770  Biso   1.000  H
  H149     1.0000 0.38560  0.66480  0.55770  Biso   1.000  H
  H150     1.0000 0.61440  0.33520  0.55770  Biso   1.000  H
  H151     1.0000 0.63560  0.58520  0.80770  Biso   1.000  H
  H152     1.0000 0.86440  0.91480  0.80770  Biso   1.000  H
  H153     1.0000 0.88560  0.16480  0.55770  Biso   1.000  H
  H154     1.0000 0.11440  0.83520  0.55770  Biso   1.000  H
  H155     1.0000 0.13560  0.08520  0.80770  Biso   1.000  H
  H156     1.0000 0.36440  0.41480  0.80770  Biso   1.000  H
  H157     1.0000 0.88560  0.66480  0.05770  Biso   1.000  H
  H158     1.0000 0.11440  0.33520  0.05770  Biso   1.000  H
  H159     1.0000 0.13560  0.58520  0.30770  Biso   1.000  H
  H160     1.0000 0.36440  0.91480  0.30770  Biso   1.000  H
  H161     1.0000 0.38330  0.10510  0.05020  Biso   1.000  H
  H162     1.0000 0.61670  0.89490  0.05020  Biso   1.000  H
  H163     1.0000 0.63330  0.14490  0.30020  Biso   1.000  H
  H164     1.0000 0.86670  0.35510  0.30020  Biso   1.000  H
  H165     1.0000 0.38330  0.60510  0.55020  Biso   1.000  H
  H166     1.0000 0.61670  0.39490  0.55020  Biso   1.000  H
  H167     1.0000 0.63330  0.64490  0.80020  Biso   1.000  H
  H168     1.0000 0.86670  0.85510  0.80020  Biso   1.000  H
  H169     1.0000 0.88330  0.10510  0.55020  Biso   1.000  H
  H170     1.0000 0.11670  0.89490  0.55020  Biso   1.000  H
  H171     1.0000 0.13330  0.14490  0.80020  Biso   1.000  H
  H172     1.0000 0.36670  0.35510  0.80020  Biso   1.000  H
  H173     1.0000 0.88330  0.60510  0.05020  Biso   1.000  H
  H174     1.0000 0.11670  0.39490  0.05020  Biso   1.000  H
  H175     1.0000 0.13330  0.64490  0.30020  Biso   1.000  H
  H176     1.0000 0.36670  0.85510  0.30020  Biso   1.000  H
  C129     1.0000 0.34050  0.14530  0.04610  Biso   1.000  C
  C130     1.0000 0.65950  0.85470  0.04610  Biso   1.000  C
  C131     1.0000 0.59050  0.10470  0.29610  Biso   1.000  C
  C132     1.0000 0.90950  0.39530  0.29610  Biso   1.000  C
  C133     1.0000 0.34050  0.64530  0.54610  Biso   1.000  C
  C134     1.0000 0.65950  0.35470  0.54610  Biso   1.000  C
  C135     1.0000 0.59050  0.60470  0.79610  Biso   1.000  C
  C136     1.0000 0.90950  0.89530  0.79610  Biso   1.000  C
  C137     1.0000 0.84050  0.14530  0.54610  Biso   1.000  C
  C138     1.0000 0.15950  0.85470  0.54610  Biso   1.000  C
  C139     1.0000 0.09050  0.10470  0.79610  Biso   1.000  C
  C140     1.0000 0.40950  0.39530  0.79610  Biso   1.000  C
  C141     1.0000 0.84050  0.64530  0.04610  Biso   1.000  C
  C142     1.0000 0.15950  0.35470  0.04610  Biso   1.000  C
  C143     1.0000 0.09050  0.60470  0.29610  Biso   1.000  C
  C144     1.0000 0.40950  0.89530  0.29610  Biso   1.000  C
  H177     1.0000 0.33280  0.18040  0.04610  Biso   1.000  H
  H178     1.0000 0.66720  0.81960  0.04610  Biso   1.000  H
  H179     1.0000 0.58280  0.06960  0.29610  Biso   1.000  H
  H180     1.0000 0.91720  0.43040  0.29610  Biso   1.000  H
  H181     1.0000 0.33280  0.68040  0.54610  Biso   1.000  H
  H182     1.0000 0.66720  0.31960  0.54610  Biso   1.000  H
  H183     1.0000 0.58280  0.56960  0.79610  Biso   1.000  H
  H184     1.0000 0.91720  0.93040  0.79610  Biso   1.000  H
  H185     1.0000 0.83280  0.18040  0.54610  Biso   1.000  H
  H186     1.0000 0.16720  0.81960  0.54610  Biso   1.000  H
  H187     1.0000 0.08280  0.06960  0.79610  Biso   1.000  H
  H188     1.0000 0.41720  0.43040  0.79610  Biso   1.000  H
  H189     1.0000 0.83280  0.68040  0.04610  Biso   1.000  H
  H190     1.0000 0.16720  0.31960  0.04610  Biso   1.000  H
  H191     1.0000 0.08280  0.56960  0.29610  Biso   1.000  H
  H192     1.0000 0.41720  0.93040  0.29610  Biso   1.000  H
  H193     1.0000 0.33030  0.12550  0.02810  Biso   1.000  H
  H194     1.0000 0.66970  0.87450  0.02810  Biso   1.000  H
  H195     1.0000 0.58030  0.12450  0.27810  Biso   1.000  H
  H196     1.0000 0.91970  0.37550  0.27810  Biso   1.000  H
  H197     1.0000 0.33030  0.62550  0.52810  Biso   1.000  H
  H198     1.0000 0.66970  0.37450  0.52810  Biso   1.000  H
  H199     1.0000 0.58030  0.62450  0.77810  Biso   1.000  H
  H200     1.0000 0.91970  0.87550  0.77810  Biso   1.000  H
  H201     1.0000 0.83030  0.12550  0.52810  Biso   1.000  H
  H202     1.0000 0.16970  0.87450  0.52810  Biso   1.000  H
  H203     1.0000 0.08030  0.12450  0.77810  Biso   1.000  H
  H204     1.0000 0.41970  0.37550  0.77810  Biso   1.000  H
  H205     1.0000 0.83030  0.62550  0.02810  Biso   1.000  H
  H206     1.0000 0.16970  0.37450  0.02810  Biso   1.000  H
  H207     1.0000 0.08030  0.62450  0.27810  Biso   1.000  H
  H208     1.0000 0.41970  0.87550  0.27810  Biso   1.000  H
  C145     1.0000 0.32440  0.12050  0.07640  Biso   1.000  C
  C146     1.0000 0.67560  0.87950  0.07640  Biso   1.000  C
  C147     1.0000 0.57440  0.12950  0.32640  Biso   1.000  C
  C148     1.0000 0.92560  0.37050  0.32640  Biso   1.000  C
  C149     1.0000 0.32440  0.62050  0.57640  Biso   1.000  C
  C150     1.0000 0.67560  0.37950  0.57640  Biso   1.000  C
  C151     1.0000 0.57440  0.62950  0.82640  Biso   1.000  C
  C152     1.0000 0.92560  0.87050  0.82640  Biso   1.000  C
  C153     1.0000 0.82440  0.12050  0.57640  Biso   1.000  C
  C154     1.0000 0.17560  0.87950  0.57640  Biso   1.000  C
  C155     1.0000 0.07440  0.12950  0.82640  Biso   1.000  C
  C156     1.0000 0.42560  0.37050  0.82640  Biso   1.000  C
  C157     1.0000 0.82440  0.62050  0.07640  Biso   1.000  C
  C158     1.0000 0.17560  0.37950  0.07640  Biso   1.000  C
  C159     1.0000 0.07440  0.62950  0.32640  Biso   1.000  C
  C160     1.0000 0.42560  0.87050  0.32640  Biso   1.000  C
  H209     1.0000 0.33450  0.13910  0.09510  Biso   1.000  H
  H210     1.0000 0.66550  0.86090  0.09510  Biso   1.000  H
  H211     1.0000 0.58450  0.11090  0.34510  Biso   1.000  H
  H212     1.0000 0.91550  0.38910  0.34510  Biso   1.000  H
  H213     1.0000 0.33450  0.63910  0.59510  Biso   1.000  H
  H214     1.0000 0.66550  0.36090  0.59510  Biso   1.000  H
  H215     1.0000 0.58450  0.61090  0.84510  Biso   1.000  H
  H216     1.0000 0.91550  0.88910  0.84510  Biso   1.000  H
  H217     1.0000 0.83450  0.13910  0.59510  Biso   1.000  H
  H218     1.0000 0.16550  0.86090  0.59510  Biso   1.000  H
  H219     1.0000 0.08450  0.11090  0.84510  Biso   1.000  H
  H220     1.0000 0.41550  0.38910  0.84510  Biso   1.000  H
  H221     1.0000 0.83450  0.63910  0.09510  Biso   1.000  H
  H222     1.0000 0.16550  0.36090  0.09510  Biso   1.000  H
  H223     1.0000 0.08450  0.61090  0.34510  Biso   1.000  H
  H224     1.0000 0.41550  0.88910  0.34510  Biso   1.000  H
  H225     1.0000 0.32910  0.08410  0.07690  Biso   1.000  H
  H226     1.0000 0.67090  0.91590  0.07690  Biso   1.000  H
  H227     1.0000 0.57910  0.16590  0.32690  Biso   1.000  H
  H228     1.0000 0.92090  0.33410  0.32690  Biso   1.000  H
  H229     1.0000 0.32910  0.58410  0.57690  Biso   1.000  H
  H230     1.0000 0.67090  0.41590  0.57690  Biso   1.000  H
  H231     1.0000 0.57910  0.66590  0.82690  Biso   1.000  H
  H232     1.0000 0.92090  0.83410  0.82690  Biso   1.000  H
  H233     1.0000 0.82910  0.08410  0.57690  Biso   1.000  H
  H234     1.0000 0.17090  0.91590  0.57690  Biso   1.000  H
  H235     1.0000 0.07910  0.16590  0.82690  Biso   1.000  H
  H236     1.0000 0.42090  0.33410  0.82690  Biso   1.000  H
  H237     1.0000 0.82910  0.58410  0.07690  Biso   1.000  H
  H238     1.0000 0.17090  0.41590  0.07690  Biso   1.000  H
  H239     1.0000 0.07910  0.66590  0.32690  Biso   1.000  H
  H240     1.0000 0.42090  0.83410  0.32690  Biso   1.000  H
  C161     1.0000 0.28980  0.13000  0.07510  Biso   1.000  C
  C162     1.0000 0.71020  0.87000  0.07510  Biso   1.000  C
  C163     1.0000 0.53980  0.12000  0.32510  Biso   1.000  C
  C164     1.0000 0.96020  0.38000  0.32510  Biso   1.000  C
  C165     1.0000 0.28980  0.63000  0.57510  Biso   1.000  C
  C166     1.0000 0.71020  0.37000  0.57510  Biso   1.000  C
  C167     1.0000 0.53980  0.62000  0.82510  Biso   1.000  C
  C168     1.0000 0.96020  0.88000  0.82510  Biso   1.000  C
  C169     1.0000 0.78980  0.13000  0.57510  Biso   1.000  C
  C170     1.0000 0.21020  0.87000  0.57510  Biso   1.000  C
  C171     1.0000 0.03980  0.12000  0.82510  Biso   1.000  C
  C172     1.0000 0.46020  0.38000  0.82510  Biso   1.000  C
  C173     1.0000 0.78980  0.63000  0.07510  Biso   1.000  C
  C174     1.0000 0.21020  0.37000  0.07510  Biso   1.000  C
  C175     1.0000 0.03980  0.62000  0.32510  Biso   1.000  C
  C176     1.0000 0.46020  0.88000  0.32510  Biso   1.000  C
  H241     1.0000 0.27790  0.12150  0.09530  Biso   1.000  H
  H242     1.0000 0.72210  0.87850  0.09530  Biso   1.000  H
  H243     1.0000 0.52790  0.12850  0.34530  Biso   1.000  H
  H244     1.0000 0.97210  0.37150  0.34530  Biso   1.000  H
  H245     1.0000 0.27790  0.62150  0.59530  Biso   1.000  H
  H246     1.0000 0.72210  0.37850  0.59530  Biso   1.000  H
  H247     1.0000 0.52790  0.62850  0.84530  Biso   1.000  H
  H248     1.0000 0.97210  0.87150  0.84530  Biso   1.000  H
  H249     1.0000 0.77790  0.12150  0.59530  Biso   1.000  H
  H250     1.0000 0.22210  0.87850  0.59530  Biso   1.000  H
  H251     1.0000 0.02790  0.12850  0.84530  Biso   1.000  H
  H252     1.0000 0.47210  0.37150  0.84530  Biso   1.000  H
  H253     1.0000 0.77790  0.62150  0.09530  Biso   1.000  H
  H254     1.0000 0.22210  0.37850  0.09530  Biso   1.000  H
  H255     1.0000 0.02790  0.62850  0.34530  Biso   1.000  H
  H256     1.0000 0.47210  0.87150  0.34530  Biso   1.000  H
  H257     1.0000 0.28210  0.11110  0.05550  Biso   1.000  H
  H258     1.0000 0.71790  0.88890  0.05550  Biso   1.000  H
  H259     1.0000 0.53210  0.13890  0.30550  Biso   1.000  H
  H260     1.0000 0.96790  0.36110  0.30550  Biso   1.000  H
  H261     1.0000 0.28210  0.61110  0.55550  Biso   1.000  H
  H262     1.0000 0.71790  0.38890  0.55550  Biso   1.000  H
  H263     1.0000 0.53210  0.63890  0.80550  Biso   1.000  H
  H264     1.0000 0.96790  0.86110  0.80550  Biso   1.000  H
  H265     1.0000 0.78210  0.11110  0.55550  Biso   1.000  H
  H266     1.0000 0.21790  0.88890  0.55550  Biso   1.000  H
  H267     1.0000 0.03210  0.13890  0.80550  Biso   1.000  H
  H268     1.0000 0.46790  0.36110  0.80550  Biso   1.000  H
  H269     1.0000 0.78210  0.61110  0.05550  Biso   1.000  H
  H270     1.0000 0.21790  0.38890  0.05550  Biso   1.000  H
  H271     1.0000 0.03210  0.63890  0.30550  Biso   1.000  H
  H272     1.0000 0.46790  0.86110  0.30550  Biso   1.000  H
  H273     1.0000 0.28790  0.16630  0.07050  Biso   1.000  H
  H274     1.0000 0.71210  0.83370  0.07050  Biso   1.000  H
  H275     1.0000 0.53790  0.08370  0.32050  Biso   1.000  H
  H276     1.0000 0.96210  0.41630  0.32050  Biso   1.000  H
  H277     1.0000 0.28790  0.66630  0.57050  Biso   1.000  H
  H278     1.0000 0.71210  0.33370  0.57050  Biso   1.000  H
  H279     1.0000 0.53790  0.58370  0.82050  Biso   1.000  H
  H280     1.0000 0.96210  0.91630  0.82050  Biso   1.000  H
  H281     1.0000 0.78790  0.16630  0.57050  Biso   1.000  H
  H282     1.0000 0.21210  0.83370  0.57050  Biso   1.000  H
  H283     1.0000 0.03790  0.08370  0.82050  Biso   1.000  H
  H284     1.0000 0.46210  0.41630  0.82050  Biso   1.000  H
  H285     1.0000 0.78790  0.66630  0.07050  Biso   1.000  H
  H286     1.0000 0.21210  0.33370  0.07050  Biso   1.000  H
  H287     1.0000 0.03790  0.58370  0.32050  Biso   1.000  H
  H288     1.0000 0.46210  0.91630  0.32050  Biso   1.000  H
  C177     1.0000 0.35260  0.43410  0.71240  Biso   1.000  C
  C178     1.0000 0.64740  0.56590  0.71240  Biso   1.000  C
  C179     1.0000 0.60260  0.81590  0.96240  Biso   1.000  C
  C180     1.0000 0.89740  0.68410  0.96240  Biso   1.000  C
  C181     1.0000 0.35260  0.93410  0.21240  Biso   1.000  C
  C182     1.0000 0.64740  0.06590  0.21240  Biso   1.000  C
  C183     1.0000 0.60260  0.31590  0.46240  Biso   1.000  C
  C184     1.0000 0.89740  0.18410  0.46240  Biso   1.000  C
  C185     1.0000 0.85260  0.43410  0.21240  Biso   1.000  C
  C186     1.0000 0.14740  0.56590  0.21240  Biso   1.000  C
  C187     1.0000 0.10260  0.81590  0.46240  Biso   1.000  C
  C188     1.0000 0.39740  0.68410  0.46240  Biso   1.000  C
  C189     1.0000 0.85260  0.93410  0.71240  Biso   1.000  C
  C190     1.0000 0.14740  0.06590  0.71240  Biso   1.000  C
  C191     1.0000 0.10260  0.31590  0.96240  Biso   1.000  C
  C192     1.0000 0.39740  0.18410  0.96240  Biso   1.000  C
  C193     1.0000 0.34270  0.47140  0.68590  Biso   1.000  C
  C194     1.0000 0.65730  0.52860  0.68590  Biso   1.000  C
  C195     1.0000 0.59270  0.77860  0.93590  Biso   1.000  C
  C196     1.0000 0.90730  0.72140  0.93590  Biso   1.000  C
  C197     1.0000 0.34270  0.97140  0.18590  Biso   1.000  C
  C198     1.0000 0.65730  0.02860  0.18590  Biso   1.000  C
  C199     1.0000 0.59270  0.27860  0.43590  Biso   1.000  C
  C200     1.0000 0.90730  0.22140  0.43590  Biso   1.000  C
  C201     1.0000 0.84270  0.47140  0.18590  Biso   1.000  C
  C202     1.0000 0.15730  0.52860  0.18590  Biso   1.000  C
  C203     1.0000 0.09270  0.77860  0.43590  Biso   1.000  C
  C204     1.0000 0.40730  0.72140  0.43590  Biso   1.000  C
  C205     1.0000 0.84270  0.97140  0.68590  Biso   1.000  C
  C206     1.0000 0.15730  0.02860  0.68590  Biso   1.000  C
  C207     1.0000 0.09270  0.27860  0.93590  Biso   1.000  C
  C208     1.0000 0.40730  0.22140  0.93590  Biso   1.000  C
  H289     1.0000 0.33130  0.45360  0.66780  Biso   1.000  H
  H290     1.0000 0.66870  0.54640  0.66780  Biso   1.000  H
  H291     1.0000 0.58130  0.79640  0.91780  Biso   1.000  H
  H292     1.0000 0.91870  0.70360  0.91780  Biso   1.000  H
  H293     1.0000 0.33130  0.95360  0.16780  Biso   1.000  H
  H294     1.0000 0.66870  0.04640  0.16780  Biso   1.000  H
  H295     1.0000 0.58130  0.29640  0.41780  Biso   1.000  H
  H296     1.0000 0.91870  0.20360  0.41780  Biso   1.000  H
  H297     1.0000 0.83130  0.45360  0.16780  Biso   1.000  H
  H298     1.0000 0.16870  0.54640  0.16780  Biso   1.000  H
  H299     1.0000 0.08130  0.79640  0.41780  Biso   1.000  H
  H300     1.0000 0.41870  0.70360  0.41780  Biso   1.000  H
  H301     1.0000 0.83130  0.95360  0.66780  Biso   1.000  H
  H302     1.0000 0.16870  0.04640  0.66780  Biso   1.000  H
  H303     1.0000 0.08130  0.29640  0.91780  Biso   1.000  H
  H304     1.0000 0.41870  0.20360  0.91780  Biso   1.000  H
  H305     1.0000 0.32880  0.49620  0.69640  Biso   1.000  H
  H306     1.0000 0.67120  0.50380  0.69640  Biso   1.000  H
  H307     1.0000 0.57880  0.75380  0.94640  Biso   1.000  H
  H308     1.0000 0.92120  0.74620  0.94640  Biso   1.000  H
  H309     1.0000 0.32880  0.99620  0.19640  Biso   1.000  H
  H310     1.0000 0.67120  0.00380  0.19640  Biso   1.000  H
  H311     1.0000 0.57880  0.25380  0.44640  Biso   1.000  H
  H312     1.0000 0.92120  0.24620  0.44640  Biso   1.000  H
  H313     1.0000 0.82880  0.49620  0.19640  Biso   1.000  H
  H314     1.0000 0.17120  0.50380  0.19640  Biso   1.000  H
  H315     1.0000 0.07880  0.75380  0.44640  Biso   1.000  H
  H316     1.0000 0.42120  0.74620  0.44640  Biso   1.000  H
  H317     1.0000 0.82880  0.99620  0.69640  Biso   1.000  H
  H318     1.0000 0.17120  0.00380  0.69640  Biso   1.000  H
  H319     1.0000 0.07880  0.25380  0.94640  Biso   1.000  H
  H320     1.0000 0.42120  0.24620  0.94640  Biso   1.000  H
  C209     1.0000 0.36960  0.49880  0.67020  Biso   1.000  C
  C210     1.0000 0.63040  0.50120  0.67020  Biso   1.000  C
  C211     1.0000 0.61960  0.75120  0.92020  Biso   1.000  C
  C212     1.0000 0.88040  0.74880  0.92020  Biso   1.000  C
  C213     1.0000 0.36960  0.99880  0.17020  Biso   1.000  C
  C214     1.0000 0.63040  0.00120  0.17020  Biso   1.000  C
  C215     1.0000 0.61960  0.25120  0.42020  Biso   1.000  C
  C216     1.0000 0.88040  0.24880  0.42020  Biso   1.000  C
  C217     1.0000 0.86960  0.49880  0.17020  Biso   1.000  C
  C218     1.0000 0.13040  0.50120  0.17020  Biso   1.000  C
  C219     1.0000 0.11960  0.75120  0.42020  Biso   1.000  C
  C220     1.0000 0.38040  0.74880  0.42020  Biso   1.000  C
  C221     1.0000 0.86960  0.99880  0.67020  Biso   1.000  C
  C222     1.0000 0.13040  0.00120  0.67020  Biso   1.000  C
  C223     1.0000 0.11960  0.25120  0.92020  Biso   1.000  C
  C224     1.0000 0.38040  0.24880  0.92020  Biso   1.000  C
  H321     1.0000 0.38100  0.51690  0.68820  Biso   1.000  H
  H322     1.0000 0.61900  0.48310  0.68820  Biso   1.000  H
  H323     1.0000 0.63100  0.73310  0.93820  Biso   1.000  H
  H324     1.0000 0.86900  0.76690  0.93820  Biso   1.000  H
  H325     1.0000 0.38100  0.01690  0.18820  Biso   1.000  H
  H326     1.0000 0.61900  0.98310  0.18820  Biso   1.000  H
  H327     1.0000 0.63100  0.23310  0.43820  Biso   1.000  H
  H328     1.0000 0.86900  0.26690  0.43820  Biso   1.000  H
  H329     1.0000 0.88100  0.51690  0.18820  Biso   1.000  H
  H330     1.0000 0.11900  0.48310  0.18820  Biso   1.000  H
  H331     1.0000 0.13100  0.73310  0.43820  Biso   1.000  H
  H332     1.0000 0.36900  0.76690  0.43820  Biso   1.000  H
  H333     1.0000 0.88100  0.01690  0.68820  Biso   1.000  H
  H334     1.0000 0.11900  0.98310  0.68820  Biso   1.000  H
  H335     1.0000 0.13100  0.23310  0.93820  Biso   1.000  H
  H336     1.0000 0.36900  0.26690  0.93820  Biso   1.000  H
  H337     1.0000 0.38360  0.47400  0.65970  Biso   1.000  H
  H338     1.0000 0.61640  0.52600  0.65970  Biso   1.000  H
  H339     1.0000 0.63360  0.77600  0.90970  Biso   1.000  H
  H340     1.0000 0.86640  0.72400  0.90970  Biso   1.000  H
  H341     1.0000 0.38360  0.97400  0.15970  Biso   1.000  H
  H342     1.0000 0.61640  0.02600  0.15970  Biso   1.000  H
  H343     1.0000 0.63360  0.27600  0.40970  Biso   1.000  H
  H344     1.0000 0.86640  0.22400  0.40970  Biso   1.000  H
  H345     1.0000 0.88360  0.47400  0.15970  Biso   1.000  H
  H346     1.0000 0.11640  0.52600  0.15970  Biso   1.000  H
  H347     1.0000 0.13360  0.77600  0.40970  Biso   1.000  H
  H348     1.0000 0.36640  0.72400  0.40970  Biso   1.000  H
  H349     1.0000 0.88360  0.97400  0.65970  Biso   1.000  H
  H350     1.0000 0.11640  0.02600  0.65970  Biso   1.000  H
  H351     1.0000 0.13360  0.27600  0.90970  Biso   1.000  H
  H352     1.0000 0.36640  0.22400  0.90970  Biso   1.000  H
  C225     1.0000 0.35880  0.53670  0.64290  Biso   1.000  C
  C226     1.0000 0.64120  0.46330  0.64290  Biso   1.000  C
  C227     1.0000 0.60880  0.71330  0.89290  Biso   1.000  C
  C228     1.0000 0.89120  0.78670  0.89290  Biso   1.000  C
  C229     1.0000 0.35880  0.03670  0.14290  Biso   1.000  C
  C230     1.0000 0.64120  0.96330  0.14290  Biso   1.000  C
  C231     1.0000 0.60880  0.21330  0.39290  Biso   1.000  C
  C232     1.0000 0.89120  0.28670  0.39290  Biso   1.000  C
  C233     1.0000 0.85880  0.53670  0.14290  Biso   1.000  C
  C234     1.0000 0.14120  0.46330  0.14290  Biso   1.000  C
  C235     1.0000 0.10880  0.71330  0.39290  Biso   1.000  C
  C236     1.0000 0.39120  0.78670  0.39290  Biso   1.000  C
  C237     1.0000 0.85880  0.03670  0.64290  Biso   1.000  C
  C238     1.0000 0.14120  0.96330  0.64290  Biso   1.000  C
  C239     1.0000 0.10880  0.21330  0.89290  Biso   1.000  C
  C240     1.0000 0.39120  0.28670  0.89290  Biso   1.000  C
  H353     1.0000 0.34880  0.51930  0.62360  Biso   1.000  H
  H354     1.0000 0.65120  0.48070  0.62360  Biso   1.000  H
  H355     1.0000 0.59880  0.73070  0.87360  Biso   1.000  H
  H356     1.0000 0.90120  0.76930  0.87360  Biso   1.000  H
  H357     1.0000 0.34880  0.01930  0.12360  Biso   1.000  H
  H358     1.0000 0.65120  0.98070  0.12360  Biso   1.000  H
  H359     1.0000 0.59880  0.23070  0.37360  Biso   1.000  H
  H360     1.0000 0.90120  0.26930  0.37360  Biso   1.000  H
  H361     1.0000 0.84880  0.51930  0.12360  Biso   1.000  H
  H362     1.0000 0.15120  0.48070  0.12360  Biso   1.000  H
  H363     1.0000 0.09880  0.73070  0.37360  Biso   1.000  H
  H364     1.0000 0.40120  0.76930  0.37360  Biso   1.000  H
  H365     1.0000 0.84880  0.01930  0.62360  Biso   1.000  H
  H366     1.0000 0.15120  0.98070  0.62360  Biso   1.000  H
  H367     1.0000 0.09880  0.23070  0.87360  Biso   1.000  H
  H368     1.0000 0.40120  0.26930  0.87360  Biso   1.000  H
  H369     1.0000 0.34440  0.56160  0.65260  Biso   1.000  H
  H370     1.0000 0.65560  0.43840  0.65260  Biso   1.000  H
  H371     1.0000 0.59440  0.68840  0.90260  Biso   1.000  H
  H372     1.0000 0.90560  0.81160  0.90260  Biso   1.000  H
  H373     1.0000 0.34440  0.06160  0.15260  Biso   1.000  H
  H374     1.0000 0.65560  0.93840  0.15260  Biso   1.000  H
  H375     1.0000 0.59440  0.18840  0.40260  Biso   1.000  H
  H376     1.0000 0.90560  0.31160  0.40260  Biso   1.000  H
  H377     1.0000 0.84440  0.56160  0.15260  Biso   1.000  H
  H378     1.0000 0.15560  0.43840  0.15260  Biso   1.000  H
  H379     1.0000 0.09440  0.68840  0.40260  Biso   1.000  H
  H380     1.0000 0.40560  0.81160  0.40260  Biso   1.000  H
  H381     1.0000 0.84440  0.06160  0.65260  Biso   1.000  H
  H382     1.0000 0.15560  0.93840  0.65260  Biso   1.000  H
  H383     1.0000 0.09440  0.18840  0.90260  Biso   1.000  H
  H384     1.0000 0.40560  0.31160  0.90260  Biso   1.000  H
  C241     1.0000 0.38950  0.56250  0.63160  Biso   1.000  C
  C242     1.0000 0.61050  0.43750  0.63160  Biso   1.000  C
  C243     1.0000 0.63950  0.68750  0.88160  Biso   1.000  C
  C244     1.0000 0.86050  0.81250  0.88160  Biso   1.000  C
  C245     1.0000 0.38950  0.06250  0.13160  Biso   1.000  C
  C246     1.0000 0.61050  0.93750  0.13160  Biso   1.000  C
  C247     1.0000 0.63950  0.18750  0.38160  Biso   1.000  C
  C248     1.0000 0.86050  0.31250  0.38160  Biso   1.000  C
  C249     1.0000 0.88950  0.56250  0.13160  Biso   1.000  C
  C250     1.0000 0.11050  0.43750  0.13160  Biso   1.000  C
  C251     1.0000 0.13950  0.68750  0.38160  Biso   1.000  C
  C252     1.0000 0.36050  0.81250  0.38160  Biso   1.000  C
  C253     1.0000 0.88950  0.06250  0.63160  Biso   1.000  C
  C254     1.0000 0.11050  0.93750  0.63160  Biso   1.000  C
  C255     1.0000 0.13950  0.18750  0.88160  Biso   1.000  C
  C256     1.0000 0.36050  0.31250  0.88160  Biso   1.000  C
  H385     1.0000 0.38520  0.58770  0.61400  Biso   1.000  H
  H386     1.0000 0.61480  0.41230  0.61400  Biso   1.000  H
  H387     1.0000 0.63520  0.66230  0.86400  Biso   1.000  H
  H388     1.0000 0.86480  0.83770  0.86400  Biso   1.000  H
  H389     1.0000 0.38520  0.08770  0.11400  Biso   1.000  H
  H390     1.0000 0.61480  0.91230  0.11400  Biso   1.000  H
  H391     1.0000 0.63520  0.16230  0.36400  Biso   1.000  H
  H392     1.0000 0.86480  0.33770  0.36400  Biso   1.000  H
  H393     1.0000 0.88520  0.58770  0.11400  Biso   1.000  H
  H394     1.0000 0.11480  0.41230  0.11400  Biso   1.000  H
  H395     1.0000 0.13520  0.66230  0.36400  Biso   1.000  H
  H396     1.0000 0.36480  0.83770  0.36400  Biso   1.000  H
  H397     1.0000 0.88520  0.08770  0.61400  Biso   1.000  H
  H398     1.0000 0.11480  0.91230  0.61400  Biso   1.000  H
  H399     1.0000 0.13520  0.16230  0.86400  Biso   1.000  H
  H400     1.0000 0.36480  0.33770  0.86400  Biso   1.000  H
  H401     1.0000 0.39910  0.57890  0.65120  Biso   1.000  H
  H402     1.0000 0.60090  0.42110  0.65120  Biso   1.000  H
  H403     1.0000 0.64910  0.67110  0.90120  Biso   1.000  H
  H404     1.0000 0.85090  0.82890  0.90120  Biso   1.000  H
  H405     1.0000 0.39910  0.07890  0.15120  Biso   1.000  H
  H406     1.0000 0.60090  0.92110  0.15120  Biso   1.000  H
  H407     1.0000 0.64910  0.17110  0.40120  Biso   1.000  H
  H408     1.0000 0.85090  0.32890  0.40120  Biso   1.000  H
  H409     1.0000 0.89910  0.57890  0.15120  Biso   1.000  H
  H410     1.0000 0.10090  0.42110  0.15120  Biso   1.000  H
  H411     1.0000 0.14910  0.67110  0.40120  Biso   1.000  H
  H412     1.0000 0.35090  0.82890  0.40120  Biso   1.000  H
  H413     1.0000 0.89910  0.07890  0.65120  Biso   1.000  H
  H414     1.0000 0.10090  0.92110  0.65120  Biso   1.000  H
  H415     1.0000 0.14910  0.17110  0.90120  Biso   1.000  H
  H416     1.0000 0.35090  0.32890  0.90120  Biso   1.000  H
  H417     1.0000 0.40350  0.53700  0.62240  Biso   1.000  H
  H418     1.0000 0.59650  0.46300  0.62240  Biso   1.000  H
  H419     1.0000 0.65350  0.71300  0.87240  Biso   1.000  H
  H420     1.0000 0.84650  0.78700  0.87240  Biso   1.000  H
  H421     1.0000 0.40350  0.03700  0.12240  Biso   1.000  H
  H422     1.0000 0.59650  0.96300  0.12240  Biso   1.000  H
  H423     1.0000 0.65350  0.21300  0.37240  Biso   1.000  H
  H424     1.0000 0.84650  0.28700  0.37240  Biso   1.000  H
  H425     1.0000 0.90350  0.53700  0.12240  Biso   1.000  H
  H426     1.0000 0.09650  0.46300  0.12240  Biso   1.000  H
  H427     1.0000 0.15350  0.71300  0.37240  Biso   1.000  H
  H428     1.0000 0.34650  0.78700  0.37240  Biso   1.000  H
  H429     1.0000 0.90350  0.03700  0.62240  Biso   1.000  H
  H430     1.0000 0.09650  0.96300  0.62240  Biso   1.000  H
  H431     1.0000 0.15350  0.21300  0.87240  Biso   1.000  H
  H432     1.0000 0.34650  0.28700  0.87240  Biso   1.000  H
  C257     1.0000 0.37220  0.28190  0.89400  Biso   1.000  C
  C258     1.0000 0.62780  0.71810  0.89400  Biso   1.000  C
  C259     1.0000 0.62220  0.96810  0.14400  Biso   1.000  C
  C260     1.0000 0.87780  0.53190  0.14400  Biso   1.000  C
  C261     1.0000 0.37220  0.78190  0.39400  Biso   1.000  C
  C262     1.0000 0.62780  0.21810  0.39400  Biso   1.000  C
  C263     1.0000 0.62220  0.46810  0.64400  Biso   1.000  C
  C264     1.0000 0.87780  0.03190  0.64400  Biso   1.000  C
  C265     1.0000 0.87220  0.28190  0.39400  Biso   1.000  C
  C266     1.0000 0.12780  0.71810  0.39400  Biso   1.000  C
  C267     1.0000 0.12220  0.96810  0.64400  Biso   1.000  C
  C268     1.0000 0.37780  0.53190  0.64400  Biso   1.000  C
  C269     1.0000 0.87220  0.78190  0.89400  Biso   1.000  C
  C270     1.0000 0.12780  0.21810  0.89400  Biso   1.000  C
  C271     1.0000 0.12220  0.46810  0.14400  Biso   1.000  C
  C272     1.0000 0.37780  0.03190  0.14400  Biso   1.000  C
  H433     1.0000 0.36650  0.25720  0.87620  Biso   1.000  H
  H434     1.0000 0.63350  0.74280  0.87620  Biso   1.000  H
  H435     1.0000 0.61650  0.99280  0.12620  Biso   1.000  H
  H436     1.0000 0.88350  0.50720  0.12620  Biso   1.000  H
  H437     1.0000 0.36650  0.75720  0.37620  Biso   1.000  H
  H438     1.0000 0.63350  0.24280  0.37620  Biso   1.000  H
  H439     1.0000 0.61650  0.49280  0.62620  Biso   1.000  H
  H440     1.0000 0.88350  0.00720  0.62620  Biso   1.000  H
  H441     1.0000 0.86650  0.25720  0.37620  Biso   1.000  H
  H442     1.0000 0.13350  0.74280  0.37620  Biso   1.000  H
  H443     1.0000 0.11650  0.99280  0.62620  Biso   1.000  H
  H444     1.0000 0.38350  0.50720  0.62620  Biso   1.000  H
  H445     1.0000 0.86650  0.75720  0.87620  Biso   1.000  H
  H446     1.0000 0.13350  0.24280  0.87620  Biso   1.000  H
  H447     1.0000 0.11650  0.49280  0.12620  Biso   1.000  H
  H448     1.0000 0.38350  0.00720  0.12620  Biso   1.000  H
  H449     1.0000 0.35240  0.29400  0.90290  Biso   1.000  H
  H450     1.0000 0.64760  0.70600  0.90290  Biso   1.000  H
  H451     1.0000 0.60240  0.95600  0.15290  Biso   1.000  H
  H452     1.0000 0.89760  0.54400  0.15290  Biso   1.000  H
  H453     1.0000 0.35240  0.79400  0.40290  Biso   1.000  H
  H454     1.0000 0.64760  0.20600  0.40290  Biso   1.000  H
  H455     1.0000 0.60240  0.45600  0.65290  Biso   1.000  H
  H456     1.0000 0.89760  0.04400  0.65290  Biso   1.000  H
  H457     1.0000 0.85240  0.29400  0.40290  Biso   1.000  H
  H458     1.0000 0.14760  0.70600  0.40290  Biso   1.000  H
  H459     1.0000 0.10240  0.95600  0.65290  Biso   1.000  H
  H460     1.0000 0.39760  0.54400  0.65290  Biso   1.000  H
  H461     1.0000 0.85240  0.79400  0.90290  Biso   1.000  H
  H462     1.0000 0.14760  0.20600  0.90290  Biso   1.000  H
  H463     1.0000 0.10240  0.45600  0.15290  Biso   1.000  H
  H464     1.0000 0.39760  0.04400  0.15290  Biso   1.000  H
  C273     1.0000 0.37960  0.32050  0.87450  Biso   1.000  C
  C274     1.0000 0.62040  0.67950  0.87450  Biso   1.000  C
  C275     1.0000 0.62960  0.92950  0.12450  Biso   1.000  C
  C276     1.0000 0.87040  0.57050  0.12450  Biso   1.000  C
  C277     1.0000 0.37960  0.82050  0.37450  Biso   1.000  C
  C278     1.0000 0.62040  0.17950  0.37450  Biso   1.000  C
  C279     1.0000 0.62960  0.42950  0.62450  Biso   1.000  C
  C280     1.0000 0.87040  0.07050  0.62450  Biso   1.000  C
  C281     1.0000 0.87960  0.32050  0.37450  Biso   1.000  C
  C282     1.0000 0.12040  0.67950  0.37450  Biso   1.000  C
  C283     1.0000 0.12960  0.92950  0.62450  Biso   1.000  C
  C284     1.0000 0.37040  0.57050  0.62450  Biso   1.000  C
  C285     1.0000 0.87960  0.82050  0.87450  Biso   1.000  C
  C286     1.0000 0.12040  0.17950  0.87450  Biso   1.000  C
  C287     1.0000 0.12960  0.42950  0.12450  Biso   1.000  C
  C288     1.0000 0.37040  0.07050  0.12450  Biso   1.000  C
  H465     1.0000 0.36160  0.33160  0.86180  Biso   1.000  H
  H466     1.0000 0.63840  0.66840  0.86180  Biso   1.000  H
  H467     1.0000 0.61160  0.91840  0.11180  Biso   1.000  H
  H468     1.0000 0.88840  0.58160  0.11180  Biso   1.000  H
  H469     1.0000 0.36160  0.83160  0.36180  Biso   1.000  H
  H470     1.0000 0.63840  0.16840  0.36180  Biso   1.000  H
  H471     1.0000 0.61160  0.41840  0.61180  Biso   1.000  H
  H472     1.0000 0.88840  0.08160  0.61180  Biso   1.000  H
  H473     1.0000 0.86160  0.33160  0.36180  Biso   1.000  H
  H474     1.0000 0.13840  0.66840  0.36180  Biso   1.000  H
  H475     1.0000 0.11160  0.91840  0.61180  Biso   1.000  H
  H476     1.0000 0.38840  0.58160  0.61180  Biso   1.000  H
  H477     1.0000 0.86160  0.83160  0.86180  Biso   1.000  H
  H478     1.0000 0.13840  0.16840  0.86180  Biso   1.000  H
  H479     1.0000 0.11160  0.41840  0.11180  Biso   1.000  H
  H480     1.0000 0.38840  0.08160  0.11180  Biso   1.000  H
  H481     1.0000 0.39570  0.31040  0.85860  Biso   1.000  H
  H482     1.0000 0.60430  0.68960  0.85860  Biso   1.000  H
  H483     1.0000 0.64570  0.93960  0.10860  Biso   1.000  H
  H484     1.0000 0.85430  0.56040  0.10860  Biso   1.000  H
  H485     1.0000 0.39570  0.81040  0.35860  Biso   1.000  H
  H486     1.0000 0.60430  0.18960  0.35860  Biso   1.000  H
  H487     1.0000 0.64570  0.43960  0.60860  Biso   1.000  H
  H488     1.0000 0.85430  0.06040  0.60860  Biso   1.000  H
  H489     1.0000 0.89570  0.31040  0.35860  Biso   1.000  H
  H490     1.0000 0.10430  0.68960  0.35860  Biso   1.000  H
  H491     1.0000 0.14570  0.93960  0.60860  Biso   1.000  H
  H492     1.0000 0.35430  0.56040  0.60860  Biso   1.000  H
  H493     1.0000 0.89570  0.81040  0.85860  Biso   1.000  H
  H494     1.0000 0.10430  0.18960  0.85860  Biso   1.000  H
  H495     1.0000 0.14570  0.43960  0.10860  Biso   1.000  H
  H496     1.0000 0.35430  0.06040  0.10860  Biso   1.000  H
  H497     1.0000 0.38710  0.34820  0.88880  Biso   1.000  H
  H498     1.0000 0.61290  0.65180  0.88880  Biso   1.000  H
  H499     1.0000 0.63710  0.90180  0.13880  Biso   1.000  H
  H500     1.0000 0.86290  0.59820  0.13880  Biso   1.000  H
  H501     1.0000 0.38710  0.84820  0.38880  Biso   1.000  H
  H502     1.0000 0.61290  0.15180  0.38880  Biso   1.000  H
  H503     1.0000 0.63710  0.40180  0.63880  Biso   1.000  H
  H504     1.0000 0.86290  0.09820  0.63880  Biso   1.000  H
  H505     1.0000 0.88710  0.34820  0.38880  Biso   1.000  H
  H506     1.0000 0.11290  0.65180  0.38880  Biso   1.000  H
  H507     1.0000 0.13710  0.90180  0.63880  Biso   1.000  H
  H508     1.0000 0.36290  0.59820  0.63880  Biso   1.000  H
  H509     1.0000 0.88710  0.84820  0.88880  Biso   1.000  H
  H510     1.0000 0.11290  0.15180  0.88880  Biso   1.000  H
  H511     1.0000 0.13710  0.40180  0.13880  Biso   1.000  H
  H512     1.0000 0.36290  0.09820  0.13880  Biso   1.000  H
  C289     1.0000 0.37890  0.57760  0.81760  Biso   1.000  C
  C290     1.0000 0.62110  0.42240  0.81760  Biso   1.000  C
  C291     1.0000 0.62890  0.67240  0.06760  Biso   1.000  C
  C292     1.0000 0.87110  0.82760  0.06760  Biso   1.000  C
  C293     1.0000 0.37890  0.07760  0.31760  Biso   1.000  C
  C294     1.0000 0.62110  0.92240  0.31760  Biso   1.000  C
  C295     1.0000 0.62890  0.17240  0.56760  Biso   1.000  C
  C296     1.0000 0.87110  0.32760  0.56760  Biso   1.000  C
  C297     1.0000 0.87890  0.57760  0.31760  Biso   1.000  C
  C298     1.0000 0.12110  0.42240  0.31760  Biso   1.000  C
  C299     1.0000 0.12890  0.67240  0.56760  Biso   1.000  C
  C300     1.0000 0.37110  0.82760  0.56760  Biso   1.000  C
  C301     1.0000 0.87890  0.07760  0.81760  Biso   1.000  C
  C302     1.0000 0.12110  0.92240  0.81760  Biso   1.000  C
  C303     1.0000 0.12890  0.17240  0.06760  Biso   1.000  C
  C304     1.0000 0.37110  0.32760  0.06760  Biso   1.000  C
  C305     1.0000 0.38400  0.53710  0.84380  Biso   1.000  C
  C306     1.0000 0.61600  0.46290  0.84380  Biso   1.000  C
  C307     1.0000 0.63400  0.71290  0.09380  Biso   1.000  C
  C308     1.0000 0.86600  0.78710  0.09380  Biso   1.000  C
  C309     1.0000 0.38400  0.03710  0.34380  Biso   1.000  C
  C310     1.0000 0.61600  0.96290  0.34380  Biso   1.000  C
  C311     1.0000 0.63400  0.21290  0.59380  Biso   1.000  C
  C312     1.0000 0.86600  0.28710  0.59380  Biso   1.000  C
  C313     1.0000 0.88400  0.53710  0.34380  Biso   1.000  C
  C314     1.0000 0.11600  0.46290  0.34380  Biso   1.000  C
  C315     1.0000 0.13400  0.71290  0.59380  Biso   1.000  C
  C316     1.0000 0.36600  0.78710  0.59380  Biso   1.000  C
  C317     1.0000 0.88400  0.03710  0.84380  Biso   1.000  C
  C318     1.0000 0.11600  0.96290  0.84380  Biso   1.000  C
  C319     1.0000 0.13400  0.21290  0.09380  Biso   1.000  C
  C320     1.0000 0.36600  0.28710  0.09380  Biso   1.000  C
  H513     1.0000 0.39540  0.55150  0.86330  Biso   1.000  H
  H514     1.0000 0.60460  0.44850  0.86330  Biso   1.000  H
  H515     1.0000 0.64540  0.69850  0.11330  Biso   1.000  H
  H516     1.0000 0.85460  0.80150  0.11330  Biso   1.000  H
  H517     1.0000 0.39540  0.05150  0.36330  Biso   1.000  H
  H518     1.0000 0.60460  0.94850  0.36330  Biso   1.000  H
  H519     1.0000 0.64540  0.19850  0.61330  Biso   1.000  H
  H520     1.0000 0.85460  0.30150  0.61330  Biso   1.000  H
  H521     1.0000 0.89540  0.55150  0.36330  Biso   1.000  H
  H522     1.0000 0.10460  0.44850  0.36330  Biso   1.000  H
  H523     1.0000 0.14540  0.69850  0.61330  Biso   1.000  H
  H524     1.0000 0.35460  0.80150  0.61330  Biso   1.000  H
  H525     1.0000 0.89540  0.05150  0.86330  Biso   1.000  H
  H526     1.0000 0.10460  0.94850  0.86330  Biso   1.000  H
  H527     1.0000 0.14540  0.19850  0.11330  Biso   1.000  H
  H528     1.0000 0.35460  0.30150  0.11330  Biso   1.000  H
  H529     1.0000 0.39660  0.51010  0.83370  Biso   1.000  H
  H530     1.0000 0.60340  0.48990  0.83370  Biso   1.000  H
  H531     1.0000 0.64660  0.73990  0.08370  Biso   1.000  H
  H532     1.0000 0.85340  0.76010  0.08370  Biso   1.000  H
  H533     1.0000 0.39660  0.01010  0.33370  Biso   1.000  H
  H534     1.0000 0.60340  0.98990  0.33370  Biso   1.000  H
  H535     1.0000 0.64660  0.23990  0.58370  Biso   1.000  H
  H536     1.0000 0.85340  0.26010  0.58370  Biso   1.000  H
  H537     1.0000 0.89660  0.51010  0.33370  Biso   1.000  H
  H538     1.0000 0.10340  0.48990  0.33370  Biso   1.000  H
  H539     1.0000 0.14660  0.73990  0.58370  Biso   1.000  H
  H540     1.0000 0.35340  0.76010  0.58370  Biso   1.000  H
  H541     1.0000 0.89660  0.01010  0.83370  Biso   1.000  H
  H542     1.0000 0.10340  0.98990  0.83370  Biso   1.000  H
  H543     1.0000 0.14660  0.23990  0.08370  Biso   1.000  H
  H544     1.0000 0.35340  0.26010  0.08370  Biso   1.000  H
  C321     1.0000 0.35440  0.51500  0.85640  Biso   1.000  C
  C322     1.0000 0.64560  0.48500  0.85640  Biso   1.000  C
  C323     1.0000 0.60440  0.73500  0.10640  Biso   1.000  C
  C324     1.0000 0.89560  0.76500  0.10640  Biso   1.000  C
  C325     1.0000 0.35440  0.01500  0.35640  Biso   1.000  C
  C326     1.0000 0.64560  0.98500  0.35640  Biso   1.000  C
  C327     1.0000 0.60440  0.23500  0.60640  Biso   1.000  C
  C328     1.0000 0.89560  0.26500  0.60640  Biso   1.000  C
  C329     1.0000 0.85440  0.51500  0.35640  Biso   1.000  C
  C330     1.0000 0.14560  0.48500  0.35640  Biso   1.000  C
  C331     1.0000 0.10440  0.73500  0.60640  Biso   1.000  C
  C332     1.0000 0.39560  0.76500  0.60640  Biso   1.000  C
  C333     1.0000 0.85440  0.01500  0.85640  Biso   1.000  C
  C334     1.0000 0.14560  0.98500  0.85640  Biso   1.000  C
  C335     1.0000 0.10440  0.23500  0.10640  Biso   1.000  C
  C336     1.0000 0.39560  0.26500  0.10640  Biso   1.000  C
  H545     1.0000 0.34150  0.54250  0.86550  Biso   1.000  H
  H546     1.0000 0.65850  0.45750  0.86550  Biso   1.000  H
  H547     1.0000 0.59150  0.70750  0.11550  Biso   1.000  H
  H548     1.0000 0.90850  0.79250  0.11550  Biso   1.000  H
  H549     1.0000 0.34150  0.04250  0.36550  Biso   1.000  H
  H550     1.0000 0.65850  0.95750  0.36550  Biso   1.000  H
  H551     1.0000 0.59150  0.20750  0.61550  Biso   1.000  H
  H552     1.0000 0.90850  0.29250  0.61550  Biso   1.000  H
  H553     1.0000 0.84150  0.54250  0.36550  Biso   1.000  H
  H554     1.0000 0.15850  0.45750  0.36550  Biso   1.000  H
  H555     1.0000 0.09150  0.70750  0.61550  Biso   1.000  H
  H556     1.0000 0.40850  0.79250  0.61550  Biso   1.000  H
  H557     1.0000 0.84150  0.04250  0.86550  Biso   1.000  H
  H558     1.0000 0.15850  0.95750  0.86550  Biso   1.000  H
  H559     1.0000 0.09150  0.20750  0.11550  Biso   1.000  H
  H560     1.0000 0.40850  0.29250  0.11550  Biso   1.000  H
  H561     1.0000 0.34340  0.49990  0.83690  Biso   1.000  H
  H562     1.0000 0.65660  0.50010  0.83690  Biso   1.000  H
  H563     1.0000 0.59340  0.75010  0.08690  Biso   1.000  H
  H564     1.0000 0.90660  0.74990  0.08690  Biso   1.000  H
  H565     1.0000 0.34340  0.99990  0.33690  Biso   1.000  H
  H566     1.0000 0.65660  0.00010  0.33690  Biso   1.000  H
  H567     1.0000 0.59340  0.25010  0.58690  Biso   1.000  H
  H568     1.0000 0.90660  0.24990  0.58690  Biso   1.000  H
  H569     1.0000 0.84340  0.49990  0.33690  Biso   1.000  H
  H570     1.0000 0.15660  0.50010  0.33690  Biso   1.000  H
  H571     1.0000 0.09340  0.75010  0.58690  Biso   1.000  H
  H572     1.0000 0.40660  0.74990  0.58690  Biso   1.000  H
  H573     1.0000 0.84340  0.99990  0.83690  Biso   1.000  H
  H574     1.0000 0.15660  0.00010  0.83690  Biso   1.000  H
  H575     1.0000 0.09340  0.25010  0.08690  Biso   1.000  H
  H576     1.0000 0.40660  0.24990  0.08690  Biso   1.000  H
  C337     1.0000 0.35810  0.47490  0.88400  Biso   1.000  C
  C338     1.0000 0.64190  0.52510  0.88400  Biso   1.000  C
  C339     1.0000 0.60810  0.77510  0.13400  Biso   1.000  C
  C340     1.0000 0.89190  0.72490  0.13400  Biso   1.000  C
  C341     1.0000 0.35810  0.97490  0.38400  Biso   1.000  C
  C342     1.0000 0.64190  0.02510  0.38400  Biso   1.000  C
  C343     1.0000 0.60810  0.27510  0.63400  Biso   1.000  C
  C344     1.0000 0.89190  0.22490  0.63400  Biso   1.000  C
  C345     1.0000 0.85810  0.47490  0.38400  Biso   1.000  C
  C346     1.0000 0.14190  0.52510  0.38400  Biso   1.000  C
  C347     1.0000 0.10810  0.77510  0.63400  Biso   1.000  C
  C348     1.0000 0.39190  0.72490  0.63400  Biso   1.000  C
  C349     1.0000 0.85810  0.97490  0.88400  Biso   1.000  C
  C350     1.0000 0.14190  0.02510  0.88400  Biso   1.000  C
  C351     1.0000 0.10810  0.27510  0.13400  Biso   1.000  C
  C352     1.0000 0.39190  0.22490  0.13400  Biso   1.000  C
  H577     1.0000 0.37180  0.44810  0.87540  Biso   1.000  H
  H578     1.0000 0.62820  0.55190  0.87540  Biso   1.000  H
  H579     1.0000 0.62180  0.80190  0.12540  Biso   1.000  H
  H580     1.0000 0.87820  0.69810  0.12540  Biso   1.000  H
  H581     1.0000 0.37180  0.94810  0.37540  Biso   1.000  H
  H582     1.0000 0.62820  0.05190  0.37540  Biso   1.000  H
  H583     1.0000 0.62180  0.30190  0.62540  Biso   1.000  H
  H584     1.0000 0.87820  0.19810  0.62540  Biso   1.000  H
  H585     1.0000 0.87180  0.44810  0.37540  Biso   1.000  H
  H586     1.0000 0.12820  0.55190  0.37540  Biso   1.000  H
  H587     1.0000 0.12180  0.80190  0.62540  Biso   1.000  H
  H588     1.0000 0.37820  0.69810  0.62540  Biso   1.000  H
  H589     1.0000 0.87180  0.94810  0.87540  Biso   1.000  H
  H590     1.0000 0.12820  0.05190  0.87540  Biso   1.000  H
  H591     1.0000 0.12180  0.30190  0.12540  Biso   1.000  H
  H592     1.0000 0.37820  0.19810  0.12540  Biso   1.000  H
  H593     1.0000 0.36810  0.49030  0.90410  Biso   1.000  H
  H594     1.0000 0.63190  0.50970  0.90410  Biso   1.000  H
  H595     1.0000 0.61810  0.75970  0.15410  Biso   1.000  H
  H596     1.0000 0.88190  0.74030  0.15410  Biso   1.000  H
  H597     1.0000 0.36810  0.99030  0.40410  Biso   1.000  H
  H598     1.0000 0.63190  0.00970  0.40410  Biso   1.000  H
  H599     1.0000 0.61810  0.25970  0.65410  Biso   1.000  H
  H600     1.0000 0.88190  0.24030  0.65410  Biso   1.000  H
  H601     1.0000 0.86810  0.49030  0.40410  Biso   1.000  H
  H602     1.0000 0.13190  0.50970  0.40410  Biso   1.000  H
  H603     1.0000 0.11810  0.75970  0.65410  Biso   1.000  H
  H604     1.0000 0.38190  0.74030  0.65410  Biso   1.000  H
  H605     1.0000 0.86810  0.99030  0.90410  Biso   1.000  H
  H606     1.0000 0.13190  0.00970  0.90410  Biso   1.000  H
  H607     1.0000 0.11810  0.25970  0.15410  Biso   1.000  H
  H608     1.0000 0.38190  0.24030  0.15410  Biso   1.000  H
  C353     1.0000 0.32780  0.45120  0.89510  Biso   1.000  C
  C354     1.0000 0.67220  0.54880  0.89510  Biso   1.000  C
  C355     1.0000 0.57780  0.79880  0.14510  Biso   1.000  C
  C356     1.0000 0.92220  0.70120  0.14510  Biso   1.000  C
  C357     1.0000 0.32780  0.95120  0.39510  Biso   1.000  C
  C358     1.0000 0.67220  0.04880  0.39510  Biso   1.000  C
  C359     1.0000 0.57780  0.29880  0.64510  Biso   1.000  C
  C360     1.0000 0.92220  0.20120  0.64510  Biso   1.000  C
  C361     1.0000 0.82780  0.45120  0.39510  Biso   1.000  C
  C362     1.0000 0.17220  0.54880  0.39510  Biso   1.000  C
  C363     1.0000 0.07780  0.79880  0.64510  Biso   1.000  C
  C364     1.0000 0.42220  0.70120  0.64510  Biso   1.000  C
  C365     1.0000 0.82780  0.95120  0.89510  Biso   1.000  C
  C366     1.0000 0.17220  0.04880  0.89510  Biso   1.000  C
  C367     1.0000 0.07780  0.29880  0.14510  Biso   1.000  C
  C368     1.0000 0.42220  0.20120  0.14510  Biso   1.000  C
  H609     1.0000 0.33170  0.42570  0.91260  Biso   1.000  H
  H610     1.0000 0.66830  0.57430  0.91260  Biso   1.000  H
  H611     1.0000 0.58170  0.82430  0.16260  Biso   1.000  H
  H612     1.0000 0.91830  0.67570  0.16260  Biso   1.000  H
  H613     1.0000 0.33170  0.92570  0.41260  Biso   1.000  H
  H614     1.0000 0.66830  0.07430  0.41260  Biso   1.000  H
  H615     1.0000 0.58170  0.32430  0.66260  Biso   1.000  H
  H616     1.0000 0.91830  0.17570  0.66260  Biso   1.000  H
  H617     1.0000 0.83170  0.42570  0.41260  Biso   1.000  H
  H618     1.0000 0.16830  0.57430  0.41260  Biso   1.000  H
  H619     1.0000 0.08170  0.82430  0.66260  Biso   1.000  H
  H620     1.0000 0.41830  0.67570  0.66260  Biso   1.000  H
  H621     1.0000 0.83170  0.92570  0.91260  Biso   1.000  H
  H622     1.0000 0.16830  0.07430  0.91260  Biso   1.000  H
  H623     1.0000 0.08170  0.32430  0.16260  Biso   1.000  H
  H624     1.0000 0.41830  0.17570  0.16260  Biso   1.000  H
  H625     1.0000 0.31440  0.47730  0.90440  Biso   1.000  H
  H626     1.0000 0.68560  0.52270  0.90440  Biso   1.000  H
  H627     1.0000 0.56440  0.77270  0.15440  Biso   1.000  H
  H628     1.0000 0.93560  0.72730  0.15440  Biso   1.000  H
  H629     1.0000 0.31440  0.97730  0.40440  Biso   1.000  H
  H630     1.0000 0.68560  0.02270  0.40440  Biso   1.000  H
  H631     1.0000 0.56440  0.27270  0.65440  Biso   1.000  H
  H632     1.0000 0.93560  0.22730  0.65440  Biso   1.000  H
  H633     1.0000 0.81440  0.47730  0.40440  Biso   1.000  H
  H634     1.0000 0.18560  0.52270  0.40440  Biso   1.000  H
  H635     1.0000 0.06440  0.77270  0.65440  Biso   1.000  H
  H636     1.0000 0.43560  0.72730  0.65440  Biso   1.000  H
  H637     1.0000 0.81440  0.97730  0.90440  Biso   1.000  H
  H638     1.0000 0.18560  0.02270  0.90440  Biso   1.000  H
  H639     1.0000 0.06440  0.27270  0.15440  Biso   1.000  H
  H640     1.0000 0.43560  0.22730  0.15440  Biso   1.000  H
  H641     1.0000 0.31790  0.43540  0.87550  Biso   1.000  H
  H642     1.0000 0.68210  0.56460  0.87550  Biso   1.000  H
  H643     1.0000 0.56790  0.81460  0.12550  Biso   1.000  H
  H644     1.0000 0.93210  0.68540  0.12550  Biso   1.000  H
  H645     1.0000 0.31790  0.93540  0.37550  Biso   1.000  H
  H646     1.0000 0.68210  0.06460  0.37550  Biso   1.000  H
  H647     1.0000 0.56790  0.31460  0.62550  Biso   1.000  H
  H648     1.0000 0.93210  0.18540  0.62550  Biso   1.000  H
  H649     1.0000 0.81790  0.43540  0.37550  Biso   1.000  H
  H650     1.0000 0.18210  0.56460  0.37550  Biso   1.000  H
  H651     1.0000 0.06790  0.81460  0.62550  Biso   1.000  H
  H652     1.0000 0.43210  0.68540  0.62550  Biso   1.000  H
  H653     1.0000 0.81790  0.93540  0.87550  Biso   1.000  H
  H654     1.0000 0.18210  0.06460  0.87550  Biso   1.000  H
  H655     1.0000 0.06790  0.31460  0.12550  Biso   1.000  H
  H656     1.0000 0.43210  0.18540  0.12550  Biso   1.000  H
  C369     1.0000 0.37260  0.61530  0.77020  Biso   1.000  C
  C370     1.0000 0.62740  0.38470  0.77020  Biso   1.000  C
  C371     1.0000 0.62260  0.63470  0.02020  Biso   1.000  C
  C372     1.0000 0.87740  0.86530  0.02020  Biso   1.000  C
  C373     1.0000 0.37260  0.11530  0.27020  Biso   1.000  C
  C374     1.0000 0.62740  0.88470  0.27020  Biso   1.000  C
  C375     1.0000 0.62260  0.13470  0.52020  Biso   1.000  C
  C376     1.0000 0.87740  0.36530  0.52020  Biso   1.000  C
  C377     1.0000 0.87260  0.61530  0.27020  Biso   1.000  C
  C378     1.0000 0.12740  0.38470  0.27020  Biso   1.000  C
  C379     1.0000 0.12260  0.63470  0.52020  Biso   1.000  C
  C380     1.0000 0.37740  0.86530  0.52020  Biso   1.000  C
  C381     1.0000 0.87260  0.11530  0.77020  Biso   1.000  C
  C382     1.0000 0.12740  0.88470  0.77020  Biso   1.000  C
  C383     1.0000 0.12260  0.13470  0.02020  Biso   1.000  C
  C384     1.0000 0.37740  0.36530  0.02020  Biso   1.000  C
  C385     1.0000 0.36880  0.62740  0.73300  Biso   1.000  C
  C386     1.0000 0.63120  0.37260  0.73300  Biso   1.000  C
  C387     1.0000 0.61880  0.62260  0.98300  Biso   1.000  C
  C388     1.0000 0.88120  0.87740  0.98300  Biso   1.000  C
  C389     1.0000 0.36880  0.12740  0.23300  Biso   1.000  C
  C390     1.0000 0.63120  0.87260  0.23300  Biso   1.000  C
  C391     1.0000 0.61880  0.12260  0.48300  Biso   1.000  C
  C392     1.0000 0.88120  0.37740  0.48300  Biso   1.000  C
  C393     1.0000 0.86880  0.62740  0.23300  Biso   1.000  C
  C394     1.0000 0.13120  0.37260  0.23300  Biso   1.000  C
  C395     1.0000 0.11880  0.62260  0.48300  Biso   1.000  C
  C396     1.0000 0.38120  0.87740  0.48300  Biso   1.000  C
  C397     1.0000 0.86880  0.12740  0.73300  Biso   1.000  C
  C398     1.0000 0.13120  0.87260  0.73300  Biso   1.000  C
  C399     1.0000 0.11880  0.12260  0.98300  Biso   1.000  C
  C400     1.0000 0.38120  0.37740  0.98300  Biso   1.000  C
  H657     1.0000 0.37750  0.66110  0.72830  Biso   1.000  H
  H658     1.0000 0.62250  0.33890  0.72830  Biso   1.000  H
  H659     1.0000 0.62750  0.58890  0.97830  Biso   1.000  H
  H660     1.0000 0.87250  0.91110  0.97830  Biso   1.000  H
  H661     1.0000 0.37750  0.16110  0.22830  Biso   1.000  H
  H662     1.0000 0.62250  0.83890  0.22830  Biso   1.000  H
  H663     1.0000 0.62750  0.08890  0.47830  Biso   1.000  H
  H664     1.0000 0.87250  0.41110  0.47830  Biso   1.000  H
  H665     1.0000 0.87750  0.66110  0.22830  Biso   1.000  H
  H666     1.0000 0.12250  0.33890  0.22830  Biso   1.000  H
  H667     1.0000 0.12750  0.58890  0.47830  Biso   1.000  H
  H668     1.0000 0.37250  0.91110  0.47830  Biso   1.000  H
  H669     1.0000 0.87750  0.16110  0.72830  Biso   1.000  H
  H670     1.0000 0.12250  0.83890  0.72830  Biso   1.000  H
  H671     1.0000 0.12750  0.08890  0.97830  Biso   1.000  H
  H672     1.0000 0.37250  0.41110  0.97830  Biso   1.000  H
  H673     1.0000 0.38030  0.60250  0.71920  Biso   1.000  H
  H674     1.0000 0.61970  0.39750  0.71920  Biso   1.000  H
  H675     1.0000 0.63030  0.64750  0.96920  Biso   1.000  H
  H676     1.0000 0.86970  0.85250  0.96920  Biso   1.000  H
  H677     1.0000 0.38030  0.10250  0.21920  Biso   1.000  H
  H678     1.0000 0.61970  0.89750  0.21920  Biso   1.000  H
  H679     1.0000 0.63030  0.14750  0.46920  Biso   1.000  H
  H680     1.0000 0.86970  0.35250  0.46920  Biso   1.000  H
  H681     1.0000 0.88030  0.60250  0.21920  Biso   1.000  H
  H682     1.0000 0.11970  0.39750  0.21920  Biso   1.000  H
  H683     1.0000 0.13030  0.64750  0.46920  Biso   1.000  H
  H684     1.0000 0.36970  0.85250  0.46920  Biso   1.000  H
  H685     1.0000 0.88030  0.10250  0.71920  Biso   1.000  H
  H686     1.0000 0.11970  0.89750  0.71920  Biso   1.000  H
  H687     1.0000 0.13030  0.14750  0.96920  Biso   1.000  H
  H688     1.0000 0.36970  0.35250  0.96920  Biso   1.000  H
  C401     1.0000 0.33450  0.62660  0.72250  Biso   1.000  C
  C402     1.0000 0.66550  0.37340  0.72250  Biso   1.000  C
  C403     1.0000 0.58450  0.62340  0.97250  Biso   1.000  C
  C404     1.0000 0.91550  0.87660  0.97250  Biso   1.000  C
  C405     1.0000 0.33450  0.12660  0.22250  Biso   1.000  C
  C406     1.0000 0.66550  0.87340  0.22250  Biso   1.000  C
  C407     1.0000 0.58450  0.12340  0.47250  Biso   1.000  C
  C408     1.0000 0.91550  0.37660  0.47250  Biso   1.000  C
  C409     1.0000 0.83450  0.62660  0.22250  Biso   1.000  C
  C410     1.0000 0.16550  0.37340  0.22250  Biso   1.000  C
  C411     1.0000 0.08450  0.62340  0.47250  Biso   1.000  C
  C412     1.0000 0.41550  0.87660  0.47250  Biso   1.000  C
  C413     1.0000 0.83450  0.12660  0.72250  Biso   1.000  C
  C414     1.0000 0.16550  0.87340  0.72250  Biso   1.000  C
  C415     1.0000 0.08450  0.12340  0.97250  Biso   1.000  C
  C416     1.0000 0.41550  0.37660  0.97250  Biso   1.000  C
  H689     1.0000 0.32200  0.64320  0.74020  Biso   1.000  H
  H690     1.0000 0.67800  0.35680  0.74020  Biso   1.000  H
  H691     1.0000 0.57200  0.60680  0.99020  Biso   1.000  H
  H692     1.0000 0.92800  0.89320  0.99020  Biso   1.000  H
  H693     1.0000 0.32200  0.14320  0.24020  Biso   1.000  H
  H694     1.0000 0.67800  0.85680  0.24020  Biso   1.000  H
  H695     1.0000 0.57200  0.10680  0.49020  Biso   1.000  H
  H696     1.0000 0.92800  0.39320  0.49020  Biso   1.000  H
  H697     1.0000 0.82200  0.64320  0.24020  Biso   1.000  H
  H698     1.0000 0.17800  0.35680  0.24020  Biso   1.000  H
  H699     1.0000 0.07200  0.60680  0.49020  Biso   1.000  H
  H700     1.0000 0.42800  0.89320  0.49020  Biso   1.000  H
  H701     1.0000 0.82200  0.14320  0.74020  Biso   1.000  H
  H702     1.0000 0.17800  0.85680  0.74020  Biso   1.000  H
  H703     1.0000 0.07200  0.10680  0.99020  Biso   1.000  H
  H704     1.0000 0.42800  0.39320  0.99020  Biso   1.000  H
  H705     1.0000 0.32740  0.59130  0.72030  Biso   1.000  H
  H706     1.0000 0.67260  0.40870  0.72030  Biso   1.000  H
  H707     1.0000 0.57740  0.65870  0.97030  Biso   1.000  H
  H708     1.0000 0.92260  0.84130  0.97030  Biso   1.000  H
  H709     1.0000 0.32740  0.09130  0.22030  Biso   1.000  H
  H710     1.0000 0.67260  0.90870  0.22030  Biso   1.000  H
  H711     1.0000 0.57740  0.15870  0.47030  Biso   1.000  H
  H712     1.0000 0.92260  0.34130  0.47030  Biso   1.000  H
  H713     1.0000 0.82740  0.59130  0.22030  Biso   1.000  H
  H714     1.0000 0.17260  0.40870  0.22030  Biso   1.000  H
  H715     1.0000 0.07740  0.65870  0.47030  Biso   1.000  H
  H716     1.0000 0.42260  0.84130  0.47030  Biso   1.000  H
  H717     1.0000 0.82740  0.09130  0.72030  Biso   1.000  H
  H718     1.0000 0.17260  0.90870  0.72030  Biso   1.000  H
  H719     1.0000 0.07740  0.15870  0.97030  Biso   1.000  H
  H720     1.0000 0.42260  0.34130  0.97030  Biso   1.000  H
  C417     1.0000 0.33030  0.65410  0.68820  Biso   1.000  C
  C418     1.0000 0.66970  0.34590  0.68820  Biso   1.000  C
  C419     1.0000 0.58030  0.59590  0.93820  Biso   1.000  C
  C420     1.0000 0.91970  0.90410  0.93820  Biso   1.000  C
  C421     1.0000 0.33030  0.15410  0.18820  Biso   1.000  C
  C422     1.0000 0.66970  0.84590  0.18820  Biso   1.000  C
  C423     1.0000 0.58030  0.09590  0.43820  Biso   1.000  C
  C424     1.0000 0.91970  0.40410  0.43820  Biso   1.000  C
  C425     1.0000 0.83030  0.65410  0.18820  Biso   1.000  C
  C426     1.0000 0.16970  0.34590  0.18820  Biso   1.000  C
  C427     1.0000 0.08030  0.59590  0.43820  Biso   1.000  C
  C428     1.0000 0.41970  0.90410  0.43820  Biso   1.000  C
  C429     1.0000 0.83030  0.15410  0.68820  Biso   1.000  C
  C430     1.0000 0.16970  0.84590  0.68820  Biso   1.000  C
  C431     1.0000 0.08030  0.09590  0.93820  Biso   1.000  C
  C432     1.0000 0.41970  0.40410  0.93820  Biso   1.000  C
  H721     1.0000 0.34430  0.63950  0.67110  Biso   1.000  H
  H722     1.0000 0.65570  0.36050  0.67110  Biso   1.000  H
  H723     1.0000 0.59430  0.61050  0.92110  Biso   1.000  H
  H724     1.0000 0.90570  0.88950  0.92110  Biso   1.000  H
  H725     1.0000 0.34430  0.13950  0.17110  Biso   1.000  H
  H726     1.0000 0.65570  0.86050  0.17110  Biso   1.000  H
  H727     1.0000 0.59430  0.11050  0.42110  Biso   1.000  H
  H728     1.0000 0.90570  0.38950  0.42110  Biso   1.000  H
  H729     1.0000 0.84430  0.63950  0.17110  Biso   1.000  H
  H730     1.0000 0.15570  0.36050  0.17110  Biso   1.000  H
  H731     1.0000 0.09430  0.61050  0.42110  Biso   1.000  H
  H732     1.0000 0.40570  0.88950  0.42110  Biso   1.000  H
  H733     1.0000 0.84430  0.13950  0.67110  Biso   1.000  H
  H734     1.0000 0.15570  0.86050  0.67110  Biso   1.000  H
  H735     1.0000 0.09430  0.11050  0.92110  Biso   1.000  H
  H736     1.0000 0.40570  0.38950  0.92110  Biso   1.000  H
  H737     1.0000 0.33570  0.69010  0.69100  Biso   1.000  H
  H738     1.0000 0.66430  0.30990  0.69100  Biso   1.000  H
  H739     1.0000 0.58570  0.55990  0.94100  Biso   1.000  H
  H740     1.0000 0.91430  0.94010  0.94100  Biso   1.000  H
  H741     1.0000 0.33570  0.19010  0.19100  Biso   1.000  H
  H742     1.0000 0.66430  0.80990  0.19100  Biso   1.000  H
  H743     1.0000 0.58570  0.05990  0.44100  Biso   1.000  H
  H744     1.0000 0.91430  0.44010  0.44100  Biso   1.000  H
  H745     1.0000 0.83570  0.69010  0.19100  Biso   1.000  H
  H746     1.0000 0.16430  0.30990  0.19100  Biso   1.000  H
  H747     1.0000 0.08570  0.55990  0.44100  Biso   1.000  H
  H748     1.0000 0.41430  0.94010  0.44100  Biso   1.000  H
  H749     1.0000 0.83570  0.19010  0.69100  Biso   1.000  H
  H750     1.0000 0.16430  0.80990  0.69100  Biso   1.000  H
  H751     1.0000 0.08570  0.05990  0.94100  Biso   1.000  H
  H752     1.0000 0.41430  0.44010  0.94100  Biso   1.000  H
  C433     1.0000 0.29710  0.64950  0.67570  Biso   1.000  C
  C434     1.0000 0.70290  0.35050  0.67570  Biso   1.000  C
  C435     1.0000 0.54710  0.60050  0.92570  Biso   1.000  C
  C436     1.0000 0.95290  0.89950  0.92570  Biso   1.000  C
  C437     1.0000 0.29710  0.14950  0.17570  Biso   1.000  C
  C438     1.0000 0.70290  0.85050  0.17570  Biso   1.000  C
  C439     1.0000 0.54710  0.10050  0.42570  Biso   1.000  C
  C440     1.0000 0.95290  0.39950  0.42570  Biso   1.000  C
  C441     1.0000 0.79710  0.64950  0.17570  Biso   1.000  C
  C442     1.0000 0.20290  0.35050  0.17570  Biso   1.000  C
  C443     1.0000 0.04710  0.60050  0.42570  Biso   1.000  C
  C444     1.0000 0.45290  0.89950  0.42570  Biso   1.000  C
  C445     1.0000 0.79710  0.14950  0.67570  Biso   1.000  C
  C446     1.0000 0.20290  0.85050  0.67570  Biso   1.000  C
  C447     1.0000 0.04710  0.10050  0.92570  Biso   1.000  C
  C448     1.0000 0.45290  0.39950  0.92570  Biso   1.000  C
  H753     1.0000 0.29480  0.66790  0.65420  Biso   1.000  H
  H754     1.0000 0.70520  0.33210  0.65420  Biso   1.000  H
  H755     1.0000 0.54480  0.58210  0.90420  Biso   1.000  H
  H756     1.0000 0.95520  0.91790  0.90420  Biso   1.000  H
  H757     1.0000 0.29480  0.16790  0.15420  Biso   1.000  H
  H758     1.0000 0.70520  0.83210  0.15420  Biso   1.000  H
  H759     1.0000 0.54480  0.08210  0.40420  Biso   1.000  H
  H760     1.0000 0.95520  0.41790  0.40420  Biso   1.000  H
  H761     1.0000 0.79480  0.66790  0.15420  Biso   1.000  H
  H762     1.0000 0.20520  0.33210  0.15420  Biso   1.000  H
  H763     1.0000 0.04480  0.58210  0.40420  Biso   1.000  H
  H764     1.0000 0.45520  0.91790  0.40420  Biso   1.000  H
  H765     1.0000 0.79480  0.16790  0.65420  Biso   1.000  H
  H766     1.0000 0.20520  0.83210  0.65420  Biso   1.000  H
  H767     1.0000 0.04480  0.08210  0.90420  Biso   1.000  H
  H768     1.0000 0.45520  0.41790  0.90420  Biso   1.000  H
  H769     1.0000 0.29200  0.61400  0.67210  Biso   1.000  H
  H770     1.0000 0.70800  0.38600  0.67210  Biso   1.000  H
  H771     1.0000 0.54200  0.63600  0.92210  Biso   1.000  H
  H772     1.0000 0.95800  0.86400  0.92210  Biso   1.000  H
  H773     1.0000 0.29200  0.11400  0.17210  Biso   1.000  H
  H774     1.0000 0.70800  0.88600  0.17210  Biso   1.000  H
  H775     1.0000 0.54200  0.13600  0.42210  Biso   1.000  H
  H776     1.0000 0.95800  0.36400  0.42210  Biso   1.000  H
  H777     1.0000 0.79200  0.61400  0.17210  Biso   1.000  H
  H778     1.0000 0.20800  0.38600  0.17210  Biso   1.000  H
  H779     1.0000 0.04200  0.63600  0.42210  Biso   1.000  H
  H780     1.0000 0.45800  0.86400  0.42210  Biso   1.000  H
  H781     1.0000 0.79200  0.11400  0.67210  Biso   1.000  H
  H782     1.0000 0.20800  0.88600  0.67210  Biso   1.000  H
  H783     1.0000 0.04200  0.13600  0.92210  Biso   1.000  H
  H784     1.0000 0.45800  0.36400  0.92210  Biso   1.000  H
  H785     1.0000 0.28320  0.66380  0.69270  Biso   1.000  H
  H786     1.0000 0.71680  0.33620  0.69270  Biso   1.000  H
  H787     1.0000 0.53320  0.58620  0.94270  Biso   1.000  H
  H788     1.0000 0.96680  0.91380  0.94270  Biso   1.000  H
  H789     1.0000 0.28320  0.16380  0.19270  Biso   1.000  H
  H790     1.0000 0.71680  0.83620  0.19270  Biso   1.000  H
  H791     1.0000 0.53320  0.08620  0.44270  Biso   1.000  H
  H792     1.0000 0.96680  0.41380  0.44270  Biso   1.000  H
  H793     1.0000 0.78320  0.66380  0.19270  Biso   1.000  H
  H794     1.0000 0.21680  0.33620  0.19270  Biso   1.000  H
  H795     1.0000 0.03320  0.58620  0.44270  Biso   1.000  H
  H796     1.0000 0.46680  0.91380  0.44270  Biso   1.000  H
  H797     1.0000 0.78320  0.16380  0.69270  Biso   1.000  H
  H798     1.0000 0.21680  0.83620  0.69270  Biso   1.000  H
  H799     1.0000 0.03320  0.08620  0.94270  Biso   1.000  H
  H800     1.0000 0.46680  0.41380  0.94270  Biso   1.000  H
  C449     1.0000 0.31320  0.74220  0.77620  Biso   1.000  C
  C450     1.0000 0.68680  0.25780  0.77620  Biso   1.000  C
  C451     1.0000 0.56320  0.50780  0.02620  Biso   1.000  C
  C452     1.0000 0.93680  0.99220  0.02620  Biso   1.000  C
  C453     1.0000 0.31320  0.24220  0.27620  Biso   1.000  C
  C454     1.0000 0.68680  0.75780  0.27620  Biso   1.000  C
  C455     1.0000 0.56320  0.00780  0.52620  Biso   1.000  C
  C456     1.0000 0.93680  0.49220  0.52620  Biso   1.000  C
  C457     1.0000 0.81320  0.74220  0.27620  Biso   1.000  C
  C458     1.0000 0.18680  0.25780  0.27620  Biso   1.000  C
  C459     1.0000 0.06320  0.50780  0.52620  Biso   1.000  C
  C460     1.0000 0.43680  0.99220  0.52620  Biso   1.000  C
  C461     1.0000 0.81320  0.24220  0.77620  Biso   1.000  C
  C462     1.0000 0.18680  0.75780  0.77620  Biso   1.000  C
  C463     1.0000 0.06320  0.00780  0.02620  Biso   1.000  C
  C464     1.0000 0.43680  0.49220  0.02620  Biso   1.000  C
  C465     1.0000 0.30470  0.72170  0.80910  Biso   1.000  C
  C466     1.0000 0.69530  0.27830  0.80910  Biso   1.000  C
  C467     1.0000 0.55470  0.52830  0.05910  Biso   1.000  C
  C468     1.0000 0.94530  0.97170  0.05910  Biso   1.000  C
  C469     1.0000 0.30470  0.22170  0.30910  Biso   1.000  C
  C470     1.0000 0.69530  0.77830  0.30910  Biso   1.000  C
  C471     1.0000 0.55470  0.02830  0.55910  Biso   1.000  C
  C472     1.0000 0.94530  0.47170  0.55910  Biso   1.000  C
  C473     1.0000 0.80470  0.72170  0.30910  Biso   1.000  C
  C474     1.0000 0.19530  0.27830  0.30910  Biso   1.000  C
  C475     1.0000 0.05470  0.52830  0.55910  Biso   1.000  C
  C476     1.0000 0.44530  0.97170  0.55910  Biso   1.000  C
  C477     1.0000 0.80470  0.22170  0.80910  Biso   1.000  C
  C478     1.0000 0.19530  0.77830  0.80910  Biso   1.000  C
  C479     1.0000 0.05470  0.02830  0.05910  Biso   1.000  C
  C480     1.0000 0.44530  0.47170  0.05910  Biso   1.000  C
  H801     1.0000 0.28520  0.70600  0.80550  Biso   1.000  H
  H802     1.0000 0.71480  0.29400  0.80550  Biso   1.000  H
  H803     1.0000 0.53520  0.54400  0.05550  Biso   1.000  H
  H804     1.0000 0.96480  0.95600  0.05550  Biso   1.000  H
  H805     1.0000 0.28520  0.20600  0.30550  Biso   1.000  H
  H806     1.0000 0.71480  0.79400  0.30550  Biso   1.000  H
  H807     1.0000 0.53520  0.04400  0.55550  Biso   1.000  H
  H808     1.0000 0.96480  0.45600  0.55550  Biso   1.000  H
  H809     1.0000 0.78520  0.70600  0.30550  Biso   1.000  H
  H810     1.0000 0.21480  0.29400  0.30550  Biso   1.000  H
  H811     1.0000 0.03520  0.54400  0.55550  Biso   1.000  H
  H812     1.0000 0.46480  0.95600  0.55550  Biso   1.000  H
  H813     1.0000 0.78520  0.20600  0.80550  Biso   1.000  H
  H814     1.0000 0.21480  0.79400  0.80550  Biso   1.000  H
  H815     1.0000 0.03520  0.04400  0.05550  Biso   1.000  H
  H816     1.0000 0.46480  0.45600  0.05550  Biso   1.000  H
  H817     1.0000 0.31890  0.69490  0.81360  Biso   1.000  H
  H818     1.0000 0.68110  0.30510  0.81360  Biso   1.000  H
  H819     1.0000 0.56890  0.55510  0.06360  Biso   1.000  H
  H820     1.0000 0.93110  0.94490  0.06360  Biso   1.000  H
  H821     1.0000 0.31890  0.19490  0.31360  Biso   1.000  H
  H822     1.0000 0.68110  0.80510  0.31360  Biso   1.000  H
  H823     1.0000 0.56890  0.05510  0.56360  Biso   1.000  H
  H824     1.0000 0.93110  0.44490  0.56360  Biso   1.000  H
  H825     1.0000 0.81890  0.69490  0.31360  Biso   1.000  H
  H826     1.0000 0.18110  0.30510  0.31360  Biso   1.000  H
  H827     1.0000 0.06890  0.55510  0.56360  Biso   1.000  H
  H828     1.0000 0.43110  0.94490  0.56360  Biso   1.000  H
  H829     1.0000 0.81890  0.19490  0.81360  Biso   1.000  H
  H830     1.0000 0.18110  0.80510  0.81360  Biso   1.000  H
  H831     1.0000 0.06890  0.05510  0.06360  Biso   1.000  H
  H832     1.0000 0.43110  0.44490  0.06360  Biso   1.000  H
  C481     1.0000 0.30170  0.74760  0.84240  Biso   1.000  C
  C482     1.0000 0.69830  0.25240  0.84240  Biso   1.000  C
  C483     1.0000 0.55170  0.50240  0.09240  Biso   1.000  C
  C484     1.0000 0.94830  0.99760  0.09240  Biso   1.000  C
  C485     1.0000 0.30170  0.24760  0.34240  Biso   1.000  C
  C486     1.0000 0.69830  0.75240  0.34240  Biso   1.000  C
  C487     1.0000 0.55170  0.00240  0.59240  Biso   1.000  C
  C488     1.0000 0.94830  0.49760  0.59240  Biso   1.000  C
  C489     1.0000 0.80170  0.74760  0.34240  Biso   1.000  C
  C490     1.0000 0.19830  0.25240  0.34240  Biso   1.000  C
  C491     1.0000 0.05170  0.50240  0.59240  Biso   1.000  C
  C492     1.0000 0.44830  0.99760  0.59240  Biso   1.000  C
  C493     1.0000 0.80170  0.24760  0.84240  Biso   1.000  C
  C494     1.0000 0.19830  0.75240  0.84240  Biso   1.000  C
  C495     1.0000 0.05170  0.00240  0.09240  Biso   1.000  C
  C496     1.0000 0.44830  0.49760  0.09240  Biso   1.000  C
  H833     1.0000 0.31960  0.76980  0.84580  Biso   1.000  H
  H834     1.0000 0.68040  0.23020  0.84580  Biso   1.000  H
  H835     1.0000 0.56960  0.48020  0.09580  Biso   1.000  H
  H836     1.0000 0.93040  0.01980  0.09580  Biso   1.000  H
  H837     1.0000 0.31960  0.26980  0.34580  Biso   1.000  H
  H838     1.0000 0.68040  0.73020  0.34580  Biso   1.000  H
  H839     1.0000 0.56960  0.98020  0.59580  Biso   1.000  H
  H840     1.0000 0.93040  0.51980  0.59580  Biso   1.000  H
  H841     1.0000 0.81960  0.76980  0.34580  Biso   1.000  H
  H842     1.0000 0.18040  0.23020  0.34580  Biso   1.000  H
  H843     1.0000 0.06960  0.48020  0.59580  Biso   1.000  H
  H844     1.0000 0.43040  0.01980  0.59580  Biso   1.000  H
  H845     1.0000 0.81960  0.26980  0.84580  Biso   1.000  H
  H846     1.0000 0.18040  0.73020  0.84580  Biso   1.000  H
  H847     1.0000 0.06960  0.98020  0.09580  Biso   1.000  H
  H848     1.0000 0.43040  0.51980  0.09580  Biso   1.000  H
  H849     1.0000 0.28320  0.76920  0.84190  Biso   1.000  H
  H850     1.0000 0.71680  0.23080  0.84190  Biso   1.000  H
  H851     1.0000 0.53320  0.48080  0.09190  Biso   1.000  H
  H852     1.0000 0.96680  0.01920  0.09190  Biso   1.000  H
  H853     1.0000 0.28320  0.26920  0.34190  Biso   1.000  H
  H854     1.0000 0.71680  0.73080  0.34190  Biso   1.000  H
  H855     1.0000 0.53320  0.98080  0.59190  Biso   1.000  H
  H856     1.0000 0.96680  0.51920  0.59190  Biso   1.000  H
  H857     1.0000 0.78320  0.76920  0.34190  Biso   1.000  H
  H858     1.0000 0.21680  0.23080  0.34190  Biso   1.000  H
  H859     1.0000 0.03320  0.48080  0.59190  Biso   1.000  H
  H860     1.0000 0.46680  0.01920  0.59190  Biso   1.000  H
  H861     1.0000 0.78320  0.26920  0.84190  Biso   1.000  H
  H862     1.0000 0.21680  0.73080  0.84190  Biso   1.000  H
  H863     1.0000 0.03320  0.98080  0.09190  Biso   1.000  H
  H864     1.0000 0.46680  0.51920  0.09190  Biso   1.000  H
  C497     1.0000 0.29930  0.71160  0.87240  Biso   1.000  C
  C498     1.0000 0.70070  0.28840  0.87240  Biso   1.000  C
  C499     1.0000 0.54930  0.53840  0.12240  Biso   1.000  C
  C500     1.0000 0.95070  0.96160  0.12240  Biso   1.000  C
  C501     1.0000 0.29930  0.21160  0.37240  Biso   1.000  C
  C502     1.0000 0.70070  0.78840  0.37240  Biso   1.000  C
  C503     1.0000 0.54930  0.03840  0.62240  Biso   1.000  C
  C504     1.0000 0.95070  0.46160  0.62240  Biso   1.000  C
  C505     1.0000 0.79930  0.71160  0.37240  Biso   1.000  C
  C506     1.0000 0.20070  0.28840  0.37240  Biso   1.000  C
  C507     1.0000 0.04930  0.53840  0.62240  Biso   1.000  C
  C508     1.0000 0.45070  0.96160  0.62240  Biso   1.000  C
  C509     1.0000 0.79930  0.21160  0.87240  Biso   1.000  C
  C510     1.0000 0.20070  0.78840  0.87240  Biso   1.000  C
  C511     1.0000 0.04930  0.03840  0.12240  Biso   1.000  C
  C512     1.0000 0.45070  0.46160  0.12240  Biso   1.000  C
  H865     1.0000 0.28070  0.69020  0.87180  Biso   1.000  H
  H866     1.0000 0.71930  0.30980  0.87180  Biso   1.000  H
  H867     1.0000 0.53070  0.55980  0.12180  Biso   1.000  H
  H868     1.0000 0.96930  0.94020  0.12180  Biso   1.000  H
  H869     1.0000 0.28070  0.19020  0.37180  Biso   1.000  H
  H870     1.0000 0.71930  0.80980  0.37180  Biso   1.000  H
  H871     1.0000 0.53070  0.05980  0.62180  Biso   1.000  H
  H872     1.0000 0.96930  0.44020  0.62180  Biso   1.000  H
  H873     1.0000 0.78070  0.69020  0.37180  Biso   1.000  H
  H874     1.0000 0.21930  0.30980  0.37180  Biso   1.000  H
  H875     1.0000 0.03070  0.55980  0.62180  Biso   1.000  H
  H876     1.0000 0.46930  0.94020  0.62180  Biso   1.000  H
  H877     1.0000 0.78070  0.19020  0.87180  Biso   1.000  H
  H878     1.0000 0.21930  0.80980  0.87180  Biso   1.000  H
  H879     1.0000 0.03070  0.05980  0.12180  Biso   1.000  H
  H880     1.0000 0.46930  0.44020  0.12180  Biso   1.000  H
  H881     1.0000 0.31780  0.69080  0.87570  Biso   1.000  H
  H882     1.0000 0.68220  0.30920  0.87570  Biso   1.000  H
  H883     1.0000 0.56780  0.55920  0.12570  Biso   1.000  H
  H884     1.0000 0.93220  0.94080  0.12570  Biso   1.000  H
  H885     1.0000 0.31780  0.19080  0.37570  Biso   1.000  H
  H886     1.0000 0.68220  0.80920  0.37570  Biso   1.000  H
  H887     1.0000 0.56780  0.05920  0.62570  Biso   1.000  H
  H888     1.0000 0.93220  0.44080  0.62570  Biso   1.000  H
  H889     1.0000 0.81780  0.69080  0.37570  Biso   1.000  H
  H890     1.0000 0.18220  0.30920  0.37570  Biso   1.000  H
  H891     1.0000 0.06780  0.55920  0.62570  Biso   1.000  H
  H892     1.0000 0.43220  0.94080  0.62570  Biso   1.000  H
  H893     1.0000 0.81780  0.19080  0.87570  Biso   1.000  H
  H894     1.0000 0.18220  0.80920  0.87570  Biso   1.000  H
  H895     1.0000 0.06780  0.05920  0.12570  Biso   1.000  H
  H896     1.0000 0.43220  0.44080  0.12570  Biso   1.000  H
  C513     1.0000 0.29680  0.75500  0.89800  Biso   1.000  C
  C514     1.0000 0.70320  0.24500  0.89800  Biso   1.000  C
  C515     1.0000 0.54680  0.49500  0.14800  Biso   1.000  C
  C516     1.0000 0.95320  0.00500  0.14800  Biso   1.000  C
  C517     1.0000 0.29680  0.25500  0.39800  Biso   1.000  C
  C518     1.0000 0.70320  0.74500  0.39800  Biso   1.000  C
  C519     1.0000 0.54680  0.99500  0.64800  Biso   1.000  C
  C520     1.0000 0.95320  0.50500  0.64800  Biso   1.000  C
  C521     1.0000 0.79680  0.75500  0.39800  Biso   1.000  C
  C522     1.0000 0.20320  0.24500  0.39800  Biso   1.000  C
  C523     1.0000 0.04680  0.49500  0.64800  Biso   1.000  C
  C524     1.0000 0.45320  0.00500  0.64800  Biso   1.000  C
  C525     1.0000 0.79680  0.25500  0.89800  Biso   1.000  C
  C526     1.0000 0.20320  0.74500  0.89800  Biso   1.000  C
  C527     1.0000 0.04680  0.99500  0.14800  Biso   1.000  C
  C528     1.0000 0.45320  0.50500  0.14800  Biso   1.000  C
  H897     1.0000 0.29540  0.74210  0.92090  Biso   1.000  H
  H898     1.0000 0.70460  0.25790  0.92090  Biso   1.000  H
  H899     1.0000 0.54540  0.50790  0.17090  Biso   1.000  H
  H900     1.0000 0.95460  0.99210  0.17090  Biso   1.000  H
  H901     1.0000 0.29540  0.24210  0.42090  Biso   1.000  H
  H902     1.0000 0.70460  0.75790  0.42090  Biso   1.000  H
  H903     1.0000 0.54540  0.00790  0.67090  Biso   1.000  H
  H904     1.0000 0.95460  0.49210  0.67090  Biso   1.000  H
  H905     1.0000 0.79540  0.74210  0.42090  Biso   1.000  H
  H906     1.0000 0.20460  0.25790  0.42090  Biso   1.000  H
  H907     1.0000 0.04540  0.50790  0.67090  Biso   1.000  H
  H908     1.0000 0.45460  0.99210  0.67090  Biso   1.000  H
  H909     1.0000 0.79540  0.24210  0.92090  Biso   1.000  H
  H910     1.0000 0.20460  0.75790  0.92090  Biso   1.000  H
  H911     1.0000 0.04540  0.00790  0.17090  Biso   1.000  H
  H912     1.0000 0.45460  0.49210  0.17090  Biso   1.000  H
  H913     1.0000 0.31500  0.77680  0.89580  Biso   1.000  H
  H914     1.0000 0.68500  0.22320  0.89580  Biso   1.000  H
  H915     1.0000 0.56500  0.47320  0.14580  Biso   1.000  H
  H916     1.0000 0.93500  0.02680  0.14580  Biso   1.000  H
  H917     1.0000 0.31500  0.27680  0.39580  Biso   1.000  H
  H918     1.0000 0.68500  0.72320  0.39580  Biso   1.000  H
  H919     1.0000 0.56500  0.97320  0.64580  Biso   1.000  H
  H920     1.0000 0.93500  0.52680  0.64580  Biso   1.000  H
  H921     1.0000 0.81500  0.77680  0.39580  Biso   1.000  H
  H922     1.0000 0.18500  0.22320  0.39580  Biso   1.000  H
  H923     1.0000 0.06500  0.47320  0.64580  Biso   1.000  H
  H924     1.0000 0.43500  0.02680  0.64580  Biso   1.000  H
  H925     1.0000 0.81500  0.27680  0.89580  Biso   1.000  H
  H926     1.0000 0.18500  0.72320  0.89580  Biso   1.000  H
  H927     1.0000 0.06500  0.97320  0.14580  Biso   1.000  H
  H928     1.0000 0.43500  0.52680  0.14580  Biso   1.000  H
  H929     1.0000 0.27850  0.77530  0.89260  Biso   1.000  H
  H930     1.0000 0.72150  0.22470  0.89260  Biso   1.000  H
  H931     1.0000 0.52850  0.47470  0.14260  Biso   1.000  H
  H932     1.0000 0.97150  0.02530  0.14260  Biso   1.000  H
  H933     1.0000 0.27850  0.27530  0.39260  Biso   1.000  H
  H934     1.0000 0.72150  0.72470  0.39260  Biso   1.000  H
  H935     1.0000 0.52850  0.97470  0.64260  Biso   1.000  H
  H936     1.0000 0.97150  0.52530  0.64260  Biso   1.000  H
  H937     1.0000 0.77850  0.77530  0.39260  Biso   1.000  H
  H938     1.0000 0.22150  0.22470  0.39260  Biso   1.000  H
  H939     1.0000 0.02850  0.47470  0.64260  Biso   1.000  H
  H940     1.0000 0.47150  0.02530  0.64260  Biso   1.000  H
  H941     1.0000 0.77850  0.27530  0.89260  Biso   1.000  H
  H942     1.0000 0.22150  0.72470  0.89260  Biso   1.000  H
  H943     1.0000 0.02850  0.97470  0.14260  Biso   1.000  H
  H944     1.0000 0.47150  0.52530  0.14260  Biso   1.000  H
  C529     1.0000 0.45500  0.42020  0.05970  Biso   1.000  C
  C530     1.0000 0.54500  0.57980  0.05970  Biso   1.000  C
  C531     1.0000 0.70500  0.82980  0.30970  Biso   1.000  C
  C532     1.0000 0.79500  0.67020  0.30970  Biso   1.000  C
  C533     1.0000 0.45500  0.92020  0.55970  Biso   1.000  C
  C534     1.0000 0.54500  0.07980  0.55970  Biso   1.000  C
  C535     1.0000 0.70500  0.32980  0.80970  Biso   1.000  C
  C536     1.0000 0.79500  0.17020  0.80970  Biso   1.000  C
  C537     1.0000 0.95500  0.42020  0.55970  Biso   1.000  C
  C538     1.0000 0.04500  0.57980  0.55970  Biso   1.000  C
  C539     1.0000 0.20500  0.82980  0.80970  Biso   1.000  C
  C540     1.0000 0.29500  0.67020  0.80970  Biso   1.000  C
  C541     1.0000 0.95500  0.92020  0.05970  Biso   1.000  C
  C542     1.0000 0.04500  0.07980  0.05970  Biso   1.000  C
  C543     1.0000 0.20500  0.32980  0.30970  Biso   1.000  C
  C544     1.0000 0.29500  0.17020  0.30970  Biso   1.000  C
  H945     1.0000 0.47320  0.41630  0.04490  Biso   1.000  H
  H946     1.0000 0.52680  0.58370  0.04490  Biso   1.000  H
  H947     1.0000 0.72320  0.83370  0.29490  Biso   1.000  H
  H948     1.0000 0.77680  0.66630  0.29490  Biso   1.000  H
  H949     1.0000 0.47320  0.91630  0.54490  Biso   1.000  H
  H950     1.0000 0.52680  0.08370  0.54490  Biso   1.000  H
  H951     1.0000 0.72320  0.33370  0.79490  Biso   1.000  H
  H952     1.0000 0.77680  0.16630  0.79490  Biso   1.000  H
  H953     1.0000 0.97320  0.41630  0.54490  Biso   1.000  H
  H954     1.0000 0.02680  0.58370  0.54490  Biso   1.000  H
  H955     1.0000 0.22320  0.83370  0.79490  Biso   1.000  H
  H956     1.0000 0.27680  0.66630  0.79490  Biso   1.000  H
  H957     1.0000 0.97320  0.91630  0.04490  Biso   1.000  H
  H958     1.0000 0.02680  0.08370  0.04490  Biso   1.000  H
  H959     1.0000 0.22320  0.33370  0.29490  Biso   1.000  H
  H960     1.0000 0.27680  0.16630  0.29490  Biso   1.000  H
  H961     1.0000 0.43850  0.39870  0.05040  Biso   1.000  H
  H962     1.0000 0.56150  0.60130  0.05040  Biso   1.000  H
  H963     1.0000 0.68850  0.85130  0.30040  Biso   1.000  H
  H964     1.0000 0.81150  0.64870  0.30040  Biso   1.000  H
  H965     1.0000 0.43850  0.89870  0.55040  Biso   1.000  H
  H966     1.0000 0.56150  0.10130  0.55040  Biso   1.000  H
  H967     1.0000 0.68850  0.35130  0.80040  Biso   1.000  H
  H968     1.0000 0.81150  0.14870  0.80040  Biso   1.000  H
  H969     1.0000 0.93850  0.39870  0.55040  Biso   1.000  H
  H970     1.0000 0.06150  0.60130  0.55040  Biso   1.000  H
  H971     1.0000 0.18850  0.85130  0.80040  Biso   1.000  H
  H972     1.0000 0.31150  0.64870  0.80040  Biso   1.000  H
  H973     1.0000 0.93850  0.89870  0.05040  Biso   1.000  H
  H974     1.0000 0.06150  0.10130  0.05040  Biso   1.000  H
  H975     1.0000 0.18850  0.35130  0.30040  Biso   1.000  H
  H976     1.0000 0.31150  0.14870  0.30040  Biso   1.000  H
  C545     1.0000 0.46290  0.40250  0.09570  Biso   1.000  C
  C546     1.0000 0.53710  0.59750  0.09570  Biso   1.000  C
  C547     1.0000 0.71290  0.84750  0.34570  Biso   1.000  C
  C548     1.0000 0.78710  0.65250  0.34570  Biso   1.000  C
  C549     1.0000 0.46290  0.90250  0.59570  Biso   1.000  C
  C550     1.0000 0.53710  0.09750  0.59570  Biso   1.000  C
  C551     1.0000 0.71290  0.34750  0.84570  Biso   1.000  C
  C552     1.0000 0.78710  0.15250  0.84570  Biso   1.000  C
  C553     1.0000 0.96290  0.40250  0.59570  Biso   1.000  C
  C554     1.0000 0.03710  0.59750  0.59570  Biso   1.000  C
  C555     1.0000 0.21290  0.84750  0.84570  Biso   1.000  C
  C556     1.0000 0.28710  0.65250  0.84570  Biso   1.000  C
  C557     1.0000 0.96290  0.90250  0.09570  Biso   1.000  C
  C558     1.0000 0.03710  0.09750  0.09570  Biso   1.000  C
  C559     1.0000 0.21290  0.34750  0.34570  Biso   1.000  C
  C560     1.0000 0.28710  0.15250  0.34570  Biso   1.000  C
  H977     1.0000 0.44450  0.40090  0.11030  Biso   1.000  H
  H978     1.0000 0.55550  0.59910  0.11030  Biso   1.000  H
  H979     1.0000 0.69450  0.84910  0.36030  Biso   1.000  H
  H980     1.0000 0.80550  0.65090  0.36030  Biso   1.000  H
  H981     1.0000 0.44450  0.90090  0.61030  Biso   1.000  H
  H982     1.0000 0.55550  0.09910  0.61030  Biso   1.000  H
  H983     1.0000 0.69450  0.34910  0.86030  Biso   1.000  H
  H984     1.0000 0.80550  0.15090  0.86030  Biso   1.000  H
  H985     1.0000 0.94450  0.40090  0.61030  Biso   1.000  H
  H986     1.0000 0.05550  0.59910  0.61030  Biso   1.000  H
  H987     1.0000 0.19450  0.84910  0.86030  Biso   1.000  H
  H988     1.0000 0.30550  0.65090  0.86030  Biso   1.000  H
  H989     1.0000 0.94450  0.90090  0.11030  Biso   1.000  H
  H990     1.0000 0.05550  0.09910  0.11030  Biso   1.000  H
  H991     1.0000 0.19450  0.34910  0.36030  Biso   1.000  H
  H992     1.0000 0.30550  0.15090  0.36030  Biso   1.000  H
  H993     1.0000 0.47840  0.42450  0.10640  Biso   1.000  H
  H994     1.0000 0.52160  0.57550  0.10640  Biso   1.000  H
  H995     1.0000 0.72840  0.82550  0.35640  Biso   1.000  H
  H996     1.0000 0.77160  0.67450  0.35640  Biso   1.000  H
  H997     1.0000 0.47840  0.92450  0.60640  Biso   1.000  H
  H998     1.0000 0.52160  0.07550  0.60640  Biso   1.000  H
  H999     1.0000 0.72840  0.32550  0.85640  Biso   1.000  H
  H1000    1.0000 0.77160  0.17450  0.85640  Biso   1.000  H
  H1001    1.0000 0.97840  0.42450  0.60640  Biso   1.000  H
  H1002    1.0000 0.02160  0.57550  0.60640  Biso   1.000  H
  H1003    1.0000 0.22840  0.82550  0.85640  Biso   1.000  H
  H1004    1.0000 0.27160  0.67450  0.85640  Biso   1.000  H
  H1005    1.0000 0.97840  0.92450  0.10640  Biso   1.000  H
  H1006    1.0000 0.02160  0.07550  0.10640  Biso   1.000  H
  H1007    1.0000 0.22840  0.32550  0.35640  Biso   1.000  H
  H1008    1.0000 0.27160  0.17450  0.35640  Biso   1.000  H
  C561     1.0000 0.47580  0.34980  0.08840  Biso   1.000  C
  C562     1.0000 0.52420  0.65020  0.08840  Biso   1.000  C
  C563     1.0000 0.72580  0.90020  0.33840  Biso   1.000  C
  C564     1.0000 0.77420  0.59980  0.33840  Biso   1.000  C
  C565     1.0000 0.47580  0.84980  0.58840  Biso   1.000  C
  C566     1.0000 0.52420  0.15020  0.58840  Biso   1.000  C
  C567     1.0000 0.72580  0.40020  0.83840  Biso   1.000  C
  C568     1.0000 0.77420  0.09980  0.83840  Biso   1.000  C
  C569     1.0000 0.97580  0.34980  0.58840  Biso   1.000  C
  C570     1.0000 0.02420  0.65020  0.58840  Biso   1.000  C
  C571     1.0000 0.22580  0.90020  0.83840  Biso   1.000  C
  C572     1.0000 0.27420  0.59980  0.83840  Biso   1.000  C
  C573     1.0000 0.97580  0.84980  0.08840  Biso   1.000  C
  C574     1.0000 0.02420  0.15020  0.08840  Biso   1.000  C
  C575     1.0000 0.22580  0.40020  0.33840  Biso   1.000  C
  C576     1.0000 0.27420  0.09980  0.33840  Biso   1.000  C
  H1009    1.0000 0.48210  0.33400  0.10980  Biso   1.000  H
  H1010    1.0000 0.51790  0.66600  0.10980  Biso   1.000  H
  H1011    1.0000 0.73210  0.91600  0.35980  Biso   1.000  H
  H1012    1.0000 0.76790  0.58400  0.35980  Biso   1.000  H
  H1013    1.0000 0.48210  0.83400  0.60980  Biso   1.000  H
  H1014    1.0000 0.51790  0.16600  0.60980  Biso   1.000  H
  H1015    1.0000 0.73210  0.41600  0.85980  Biso   1.000  H
  H1016    1.0000 0.76790  0.08400  0.85980  Biso   1.000  H
  H1017    1.0000 0.98210  0.33400  0.60980  Biso   1.000  H
  H1018    1.0000 0.01790  0.66600  0.60980  Biso   1.000  H
  H1019    1.0000 0.23210  0.91600  0.85980  Biso   1.000  H
  H1020    1.0000 0.26790  0.58400  0.85980  Biso   1.000  H
  H1021    1.0000 0.98210  0.83400  0.10980  Biso   1.000  H
  H1022    1.0000 0.01790  0.16600  0.10980  Biso   1.000  H
  H1023    1.0000 0.23210  0.41600  0.35980  Biso   1.000  H
  H1024    1.0000 0.26790  0.08400  0.35980  Biso   1.000  H
  H1025    1.0000 0.49360  0.35270  0.07330  Biso   1.000  H
  H1026    1.0000 0.50640  0.64730  0.07330  Biso   1.000  H
  H1027    1.0000 0.74360  0.89730  0.32330  Biso   1.000  H
  H1028    1.0000 0.75640  0.60270  0.32330  Biso   1.000  H
  H1029    1.0000 0.49360  0.85270  0.57330  Biso   1.000  H
  H1030    1.0000 0.50640  0.14730  0.57330  Biso   1.000  H
  H1031    1.0000 0.74360  0.39730  0.82330  Biso   1.000  H
  H1032    1.0000 0.75640  0.10270  0.82330  Biso   1.000  H
  H1033    1.0000 0.99360  0.35270  0.57330  Biso   1.000  H
  H1034    1.0000 0.00640  0.64730  0.57330  Biso   1.000  H
  H1035    1.0000 0.24360  0.89730  0.82330  Biso   1.000  H
  H1036    1.0000 0.25640  0.60270  0.82330  Biso   1.000  H
  H1037    1.0000 0.99360  0.85270  0.07330  Biso   1.000  H
  H1038    1.0000 0.00640  0.14730  0.07330  Biso   1.000  H
  H1039    1.0000 0.24360  0.39730  0.32330  Biso   1.000  H
  H1040    1.0000 0.25640  0.10270  0.32330  Biso   1.000  H
  H1041    1.0000 0.46010  0.32920  0.07740  Biso   1.000  H
  H1042    1.0000 0.53990  0.67080  0.07740  Biso   1.000  H
  H1043    1.0000 0.71010  0.92080  0.32740  Biso   1.000  H
  H1044    1.0000 0.78990  0.57920  0.32740  Biso   1.000  H
  H1045    1.0000 0.46010  0.82920  0.57740  Biso   1.000  H
  H1046    1.0000 0.53990  0.17080  0.57740  Biso   1.000  H
  H1047    1.0000 0.71010  0.42080  0.82740  Biso   1.000  H
  H1048    1.0000 0.78990  0.07920  0.82740  Biso   1.000  H
  H1049    1.0000 0.96010  0.32920  0.57740  Biso   1.000  H
  H1050    1.0000 0.03990  0.67080  0.57740  Biso   1.000  H
  H1051    1.0000 0.21010  0.92080  0.82740  Biso   1.000  H
  H1052    1.0000 0.28990  0.57920  0.82740  Biso   1.000  H
  H1053    1.0000 0.96010  0.82920  0.07740  Biso   1.000  H
  H1054    1.0000 0.03990  0.17080  0.07740  Biso   1.000  H
  H1055    1.0000 0.21010  0.42080  0.32740  Biso   1.000  H
  H1056    1.0000 0.28990  0.07920  0.32740  Biso   1.000  H
  C577     1.0000 0.31010  0.78010  0.73060  Biso   1.000  C
  C578     1.0000 0.68990  0.21990  0.73060  Biso   1.000  C
  C579     1.0000 0.56010  0.46990  0.98060  Biso   1.000  C
  C580     1.0000 0.93990  0.03010  0.98060  Biso   1.000  C
  C581     1.0000 0.31010  0.28010  0.23060  Biso   1.000  C
  C582     1.0000 0.68990  0.71990  0.23060  Biso   1.000  C
  C583     1.0000 0.56010  0.96990  0.48060  Biso   1.000  C
  C584     1.0000 0.93990  0.53010  0.48060  Biso   1.000  C
  C585     1.0000 0.81010  0.78010  0.23060  Biso   1.000  C
  C586     1.0000 0.18990  0.21990  0.23060  Biso   1.000  C
  C587     1.0000 0.06010  0.46990  0.48060  Biso   1.000  C
  C588     1.0000 0.43990  0.03010  0.48060  Biso   1.000  C
  C589     1.0000 0.81010  0.28010  0.73060  Biso   1.000  C
  C590     1.0000 0.18990  0.71990  0.73060  Biso   1.000  C
  C591     1.0000 0.06010  0.96990  0.98060  Biso   1.000  C
  C592     1.0000 0.43990  0.53010  0.98060  Biso   1.000  C
  C593     1.0000 0.29630  0.81100  0.70120  Biso   1.000  C
  C594     1.0000 0.70370  0.18900  0.70120  Biso   1.000  C
  C595     1.0000 0.54630  0.43900  0.95120  Biso   1.000  C
  C596     1.0000 0.95370  0.06100  0.95120  Biso   1.000  C
  C597     1.0000 0.29630  0.31100  0.20120  Biso   1.000  C
  C598     1.0000 0.70370  0.68900  0.20120  Biso   1.000  C
  C599     1.0000 0.54630  0.93900  0.45120  Biso   1.000  C
  C600     1.0000 0.95370  0.56100  0.45120  Biso   1.000  C
  C601     1.0000 0.79630  0.81100  0.20120  Biso   1.000  C
  C602     1.0000 0.20370  0.18900  0.20120  Biso   1.000  C
  C603     1.0000 0.04630  0.43900  0.45120  Biso   1.000  C
  C604     1.0000 0.45370  0.06100  0.45120  Biso   1.000  C
  C605     1.0000 0.79630  0.31100  0.70120  Biso   1.000  C
  C606     1.0000 0.20370  0.68900  0.70120  Biso   1.000  C
  C607     1.0000 0.04630  0.93900  0.95120  Biso   1.000  C
  C608     1.0000 0.45370  0.56100  0.95120  Biso   1.000  C
  H1057    1.0000 0.30990  0.83960  0.69560  Biso   1.000  H
  H1058    1.0000 0.69010  0.16040  0.69560  Biso   1.000  H
  H1059    1.0000 0.55990  0.41040  0.94560  Biso   1.000  H
  H1060    1.0000 0.94010  0.08960  0.94560  Biso   1.000  H
  H1061    1.0000 0.30990  0.33960  0.19560  Biso   1.000  H
  H1062    1.0000 0.69010  0.66040  0.19560  Biso   1.000  H
  H1063    1.0000 0.55990  0.91040  0.44560  Biso   1.000  H
  H1064    1.0000 0.94010  0.58960  0.44560  Biso   1.000  H
  H1065    1.0000 0.80990  0.83960  0.19560  Biso   1.000  H
  H1066    1.0000 0.19010  0.16040  0.19560  Biso   1.000  H
  H1067    1.0000 0.05990  0.41040  0.44560  Biso   1.000  H
  H1068    1.0000 0.44010  0.08960  0.44560  Biso   1.000  H
  H1069    1.0000 0.80990  0.33960  0.69560  Biso   1.000  H
  H1070    1.0000 0.19010  0.66040  0.69560  Biso   1.000  H
  H1071    1.0000 0.05990  0.91040  0.94560  Biso   1.000  H
  H1072    1.0000 0.44010  0.58960  0.94560  Biso   1.000  H
  H1073    1.0000 0.27620  0.82470  0.70800  Biso   1.000  H
  H1074    1.0000 0.72380  0.17530  0.70800  Biso   1.000  H
  H1075    1.0000 0.52620  0.42530  0.95800  Biso   1.000  H
  H1076    1.0000 0.97380  0.07470  0.95800  Biso   1.000  H
  H1077    1.0000 0.27620  0.32470  0.20800  Biso   1.000  H
  H1078    1.0000 0.72380  0.67530  0.20800  Biso   1.000  H
  H1079    1.0000 0.52620  0.92530  0.45800  Biso   1.000  H
  H1080    1.0000 0.97380  0.57470  0.45800  Biso   1.000  H
  H1081    1.0000 0.77620  0.82470  0.20800  Biso   1.000  H
  H1082    1.0000 0.22380  0.17530  0.20800  Biso   1.000  H
  H1083    1.0000 0.02620  0.42530  0.45800  Biso   1.000  H
  H1084    1.0000 0.47380  0.07470  0.45800  Biso   1.000  H
  H1085    1.0000 0.77620  0.32470  0.70800  Biso   1.000  H
  H1086    1.0000 0.22380  0.67530  0.70800  Biso   1.000  H
  H1087    1.0000 0.02620  0.92530  0.95800  Biso   1.000  H
  H1088    1.0000 0.47380  0.57470  0.95800  Biso   1.000  H
  C609     1.0000 0.29270  0.77660  0.67020  Biso   1.000  C
  C610     1.0000 0.70730  0.22340  0.67020  Biso   1.000  C
  C611     1.0000 0.54270  0.47340  0.92020  Biso   1.000  C
  C612     1.0000 0.95730  0.02660  0.92020  Biso   1.000  C
  C613     1.0000 0.29270  0.27660  0.17020  Biso   1.000  C
  C614     1.0000 0.70730  0.72340  0.17020  Biso   1.000  C
  C615     1.0000 0.54270  0.97340  0.42020  Biso   1.000  C
  C616     1.0000 0.95730  0.52660  0.42020  Biso   1.000  C
  C617     1.0000 0.79270  0.77660  0.17020  Biso   1.000  C
  C618     1.0000 0.20730  0.22340  0.17020  Biso   1.000  C
  C619     1.0000 0.04270  0.47340  0.42020  Biso   1.000  C
  C620     1.0000 0.45730  0.02660  0.42020  Biso   1.000  C
  C621     1.0000 0.79270  0.27660  0.67020  Biso   1.000  C
  C622     1.0000 0.20730  0.72340  0.67020  Biso   1.000  C
  C623     1.0000 0.04270  0.97340  0.92020  Biso   1.000  C
  C624     1.0000 0.45730  0.52660  0.92020  Biso   1.000  C
  H1089    1.0000 0.27870  0.74840  0.67580  Biso   1.000  H
  H1090    1.0000 0.72130  0.25160  0.67580  Biso   1.000  H
  H1091    1.0000 0.52870  0.50160  0.92580  Biso   1.000  H
  H1092    1.0000 0.97130  0.99840  0.92580  Biso   1.000  H
  H1093    1.0000 0.27870  0.24840  0.17580  Biso   1.000  H
  H1094    1.0000 0.72130  0.75160  0.17580  Biso   1.000  H
  H1095    1.0000 0.52870  0.00160  0.42580  Biso   1.000  H
  H1096    1.0000 0.97130  0.49840  0.42580  Biso   1.000  H
  H1097    1.0000 0.77870  0.74840  0.17580  Biso   1.000  H
  H1098    1.0000 0.22130  0.25160  0.17580  Biso   1.000  H
  H1099    1.0000 0.02870  0.50160  0.42580  Biso   1.000  H
  H1100    1.0000 0.47130  0.99840  0.42580  Biso   1.000  H
  H1101    1.0000 0.77870  0.24840  0.67580  Biso   1.000  H
  H1102    1.0000 0.22130  0.75160  0.67580  Biso   1.000  H
  H1103    1.0000 0.02870  0.00160  0.92580  Biso   1.000  H
  H1104    1.0000 0.47130  0.49840  0.92580  Biso   1.000  H
  H1105    1.0000 0.31280  0.76220  0.66390  Biso   1.000  H
  H1106    1.0000 0.68720  0.23780  0.66390  Biso   1.000  H
  H1107    1.0000 0.56280  0.48780  0.91390  Biso   1.000  H
  H1108    1.0000 0.93720  0.01220  0.91390  Biso   1.000  H
  H1109    1.0000 0.31280  0.26220  0.16390  Biso   1.000  H
  H1110    1.0000 0.68720  0.73780  0.16390  Biso   1.000  H
  H1111    1.0000 0.56280  0.98780  0.41390  Biso   1.000  H
  H1112    1.0000 0.93720  0.51220  0.41390  Biso   1.000  H
  H1113    1.0000 0.81280  0.76220  0.16390  Biso   1.000  H
  H1114    1.0000 0.18720  0.23780  0.16390  Biso   1.000  H
  H1115    1.0000 0.06280  0.48780  0.41390  Biso   1.000  H
  H1116    1.0000 0.43720  0.01220  0.41390  Biso   1.000  H
  H1117    1.0000 0.81280  0.26220  0.66390  Biso   1.000  H
  H1118    1.0000 0.18720  0.73780  0.66390  Biso   1.000  H
  H1119    1.0000 0.06280  0.98780  0.91390  Biso   1.000  H
  H1120    1.0000 0.43720  0.51220  0.91390  Biso   1.000  H
  C625     1.0000 0.27980  0.80640  0.64040  Biso   1.000  C
  C626     1.0000 0.72020  0.19360  0.64040  Biso   1.000  C
  C627     1.0000 0.52980  0.44360  0.89040  Biso   1.000  C
  C628     1.0000 0.97020  0.05640  0.89040  Biso   1.000  C
  C629     1.0000 0.27980  0.30640  0.14040  Biso   1.000  C
  C630     1.0000 0.72020  0.69360  0.14040  Biso   1.000  C
  C631     1.0000 0.52980  0.94360  0.39040  Biso   1.000  C
  C632     1.0000 0.97020  0.55640  0.39040  Biso   1.000  C
  C633     1.0000 0.77980  0.80640  0.14040  Biso   1.000  C
  C634     1.0000 0.22020  0.19360  0.14040  Biso   1.000  C
  C635     1.0000 0.02980  0.44360  0.39040  Biso   1.000  C
  C636     1.0000 0.47020  0.05640  0.39040  Biso   1.000  C
  C637     1.0000 0.77980  0.30640  0.64040  Biso   1.000  C
  C638     1.0000 0.22020  0.69360  0.64040  Biso   1.000  C
  C639     1.0000 0.02980  0.94360  0.89040  Biso   1.000  C
  C640     1.0000 0.47020  0.55640  0.89040  Biso   1.000  C
  H1121    1.0000 0.26040  0.82240  0.64770  Biso   1.000  H
  H1122    1.0000 0.73960  0.17760  0.64770  Biso   1.000  H
  H1123    1.0000 0.51040  0.42760  0.89770  Biso   1.000  H
  H1124    1.0000 0.98960  0.07240  0.89770  Biso   1.000  H
  H1125    1.0000 0.26040  0.32240  0.14770  Biso   1.000  H
  H1126    1.0000 0.73960  0.67760  0.14770  Biso   1.000  H
  H1127    1.0000 0.51040  0.92760  0.39770  Biso   1.000  H
  H1128    1.0000 0.98960  0.57240  0.39770  Biso   1.000  H
  H1129    1.0000 0.76040  0.82240  0.14770  Biso   1.000  H
  H1130    1.0000 0.23960  0.17760  0.14770  Biso   1.000  H
  H1131    1.0000 0.01040  0.42760  0.39770  Biso   1.000  H
  H1132    1.0000 0.48960  0.07240  0.39770  Biso   1.000  H
  H1133    1.0000 0.76040  0.32240  0.64770  Biso   1.000  H
  H1134    1.0000 0.23960  0.67760  0.64770  Biso   1.000  H
  H1135    1.0000 0.01040  0.92760  0.89770  Biso   1.000  H
  H1136    1.0000 0.48960  0.57240  0.89770  Biso   1.000  H
  H1137    1.0000 0.29440  0.83370  0.63470  Biso   1.000  H
  H1138    1.0000 0.70560  0.16630  0.63470  Biso   1.000  H
  H1139    1.0000 0.54440  0.41630  0.88470  Biso   1.000  H
  H1140    1.0000 0.95560  0.08370  0.88470  Biso   1.000  H
  H1141    1.0000 0.29440  0.33370  0.13470  Biso   1.000  H
  H1142    1.0000 0.70560  0.66630  0.13470  Biso   1.000  H
  H1143    1.0000 0.54440  0.91630  0.38470  Biso   1.000  H
  H1144    1.0000 0.95560  0.58370  0.38470  Biso   1.000  H
  H1145    1.0000 0.79440  0.83370  0.13470  Biso   1.000  H
  H1146    1.0000 0.20560  0.16630  0.13470  Biso   1.000  H
  H1147    1.0000 0.04440  0.41630  0.38470  Biso   1.000  H
  H1148    1.0000 0.45560  0.08370  0.38470  Biso   1.000  H
  H1149    1.0000 0.79440  0.33370  0.63470  Biso   1.000  H
  H1150    1.0000 0.20560  0.66630  0.63470  Biso   1.000  H
  H1151    1.0000 0.04440  0.91630  0.88470  Biso   1.000  H
  H1152    1.0000 0.45560  0.58370  0.88470  Biso   1.000  H
  C641     1.0000 0.27370  0.77560  0.60820  Biso   1.000  C
  C642     1.0000 0.72630  0.22440  0.60820  Biso   1.000  C
  C643     1.0000 0.52370  0.47440  0.85820  Biso   1.000  C
  C644     1.0000 0.97630  0.02560  0.85820  Biso   1.000  C
  C645     1.0000 0.27370  0.27560  0.10820  Biso   1.000  C
  C646     1.0000 0.72630  0.72440  0.10820  Biso   1.000  C
  C647     1.0000 0.52370  0.97440  0.35820  Biso   1.000  C
  C648     1.0000 0.97630  0.52560  0.35820  Biso   1.000  C
  C649     1.0000 0.77370  0.77560  0.10820  Biso   1.000  C
  C650     1.0000 0.22630  0.22440  0.10820  Biso   1.000  C
  C651     1.0000 0.02370  0.47440  0.35820  Biso   1.000  C
  C652     1.0000 0.47630  0.02560  0.35820  Biso   1.000  C
  C653     1.0000 0.77370  0.27560  0.60820  Biso   1.000  C
  C654     1.0000 0.22630  0.72440  0.60820  Biso   1.000  C
  C655     1.0000 0.02370  0.97440  0.85820  Biso   1.000  C
  C656     1.0000 0.47630  0.52560  0.85820  Biso   1.000  C
  H1153    1.0000 0.26770  0.79820  0.58970  Biso   1.000  H
  H1154    1.0000 0.73230  0.20180  0.58970  Biso   1.000  H
  H1155    1.0000 0.51770  0.45180  0.83970  Biso   1.000  H
  H1156    1.0000 0.98230  0.04820  0.83970  Biso   1.000  H
  H1157    1.0000 0.26770  0.29820  0.08970  Biso   1.000  H
  H1158    1.0000 0.73230  0.70180  0.08970  Biso   1.000  H
  H1159    1.0000 0.51770  0.95180  0.33970  Biso   1.000  H
  H1160    1.0000 0.98230  0.54820  0.33970  Biso   1.000  H
  H1161    1.0000 0.76770  0.79820  0.08970  Biso   1.000  H
  H1162    1.0000 0.23230  0.20180  0.08970  Biso   1.000  H
  H1163    1.0000 0.01770  0.45180  0.33970  Biso   1.000  H
  H1164    1.0000 0.48230  0.04820  0.33970  Biso   1.000  H
  H1165    1.0000 0.76770  0.29820  0.58970  Biso   1.000  H
  H1166    1.0000 0.23230  0.70180  0.58970  Biso   1.000  H
  H1167    1.0000 0.01770  0.95180  0.83970  Biso   1.000  H
  H1168    1.0000 0.48230  0.54820  0.83970  Biso   1.000  H
  H1169    1.0000 0.29230  0.75740  0.60180  Biso   1.000  H
  H1170    1.0000 0.70770  0.24260  0.60180  Biso   1.000  H
  H1171    1.0000 0.54230  0.49260  0.85180  Biso   1.000  H
  H1172    1.0000 0.95770  0.00740  0.85180  Biso   1.000  H
  H1173    1.0000 0.29230  0.25740  0.10180  Biso   1.000  H
  H1174    1.0000 0.70770  0.74260  0.10180  Biso   1.000  H
  H1175    1.0000 0.54230  0.99260  0.35180  Biso   1.000  H
  H1176    1.0000 0.95770  0.50740  0.35180  Biso   1.000  H
  H1177    1.0000 0.79230  0.75740  0.10180  Biso   1.000  H
  H1178    1.0000 0.20770  0.24260  0.10180  Biso   1.000  H
  H1179    1.0000 0.04230  0.49260  0.35180  Biso   1.000  H
  H1180    1.0000 0.45770  0.00740  0.35180  Biso   1.000  H
  H1181    1.0000 0.79230  0.25740  0.60180  Biso   1.000  H
  H1182    1.0000 0.20770  0.74260  0.60180  Biso   1.000  H
  H1183    1.0000 0.04230  0.99260  0.85180  Biso   1.000  H
  H1184    1.0000 0.45770  0.50740  0.85180  Biso   1.000  H
  H1185    1.0000 0.49270  0.50150  0.86260  Biso   1.000  H
  H1186    1.0000 0.50730  0.49850  0.86260  Biso   1.000  H
  H1187    1.0000 0.74270  0.74850  0.11260  Biso   1.000  H
  H1188    1.0000 0.75730  0.75150  0.11260  Biso   1.000  H
  H1189    1.0000 0.49270  0.00150  0.36260  Biso   1.000  H
  H1190    1.0000 0.50730  0.99850  0.36260  Biso   1.000  H
  H1191    1.0000 0.74270  0.24850  0.61260  Biso   1.000  H
  H1192    1.0000 0.75730  0.25150  0.61260  Biso   1.000  H
  H1193    1.0000 0.99270  0.50150  0.36260  Biso   1.000  H
  H1194    1.0000 0.00730  0.49850  0.36260  Biso   1.000  H
  H1195    1.0000 0.24270  0.74850  0.61260  Biso   1.000  H
  H1196    1.0000 0.25730  0.75150  0.61260  Biso   1.000  H
  H1197    1.0000 0.99270  0.00150  0.86260  Biso   1.000  H
  H1198    1.0000 0.00730  0.99850  0.86260  Biso   1.000  H
  H1199    1.0000 0.24270  0.24850  0.11260  Biso   1.000  H
  H1200    1.0000 0.25730  0.25150  0.11260  Biso   1.000  H
  C657     1.0000 0.44650  0.54700  0.93680  Biso   1.000  C
  C658     1.0000 0.55350  0.45300  0.93680  Biso   1.000  C
  C659     1.0000 0.69650  0.70300  0.18680  Biso   1.000  C
  C660     1.0000 0.80350  0.79700  0.18680  Biso   1.000  C
  C661     1.0000 0.44650  0.04700  0.43680  Biso   1.000  C
  C662     1.0000 0.55350  0.95300  0.43680  Biso   1.000  C
  C663     1.0000 0.69650  0.20300  0.68680  Biso   1.000  C
  C664     1.0000 0.80350  0.29700  0.68680  Biso   1.000  C
  C665     1.0000 0.94650  0.54700  0.43680  Biso   1.000  C
  C666     1.0000 0.05350  0.45300  0.43680  Biso   1.000  C
  C667     1.0000 0.19650  0.70300  0.68680  Biso   1.000  C
  C668     1.0000 0.30350  0.79700  0.68680  Biso   1.000  C
  C669     1.0000 0.94650  0.04700  0.93680  Biso   1.000  C
  C670     1.0000 0.05350  0.95300  0.93680  Biso   1.000  C
  C671     1.0000 0.19650  0.20300  0.18680  Biso   1.000  C
  C672     1.0000 0.30350  0.29700  0.18680  Biso   1.000  C
  H1201    1.0000 0.46500  0.53060  0.92750  Biso   1.000  H
  H1202    1.0000 0.53500  0.46940  0.92750  Biso   1.000  H
  H1203    1.0000 0.71500  0.71940  0.17750  Biso   1.000  H
  H1204    1.0000 0.78500  0.78060  0.17750  Biso   1.000  H
  H1205    1.0000 0.46500  0.03060  0.42750  Biso   1.000  H
  H1206    1.0000 0.53500  0.96940  0.42750  Biso   1.000  H
  H1207    1.0000 0.71500  0.21940  0.67750  Biso   1.000  H
  H1208    1.0000 0.78500  0.28060  0.67750  Biso   1.000  H
  H1209    1.0000 0.96500  0.53060  0.42750  Biso   1.000  H
  H1210    1.0000 0.03500  0.46940  0.42750  Biso   1.000  H
  H1211    1.0000 0.21500  0.71940  0.67750  Biso   1.000  H
  H1212    1.0000 0.28500  0.78060  0.67750  Biso   1.000  H
  H1213    1.0000 0.96500  0.03060  0.92750  Biso   1.000  H
  H1214    1.0000 0.03500  0.96940  0.92750  Biso   1.000  H
  H1215    1.0000 0.21500  0.21940  0.17750  Biso   1.000  H
  H1216    1.0000 0.28500  0.28060  0.17750  Biso   1.000  H
  H1217    1.0000 0.42860  0.53900  0.92220  Biso   1.000  H
  H1218    1.0000 0.57140  0.46100  0.92220  Biso   1.000  H
  H1219    1.0000 0.67860  0.71100  0.17220  Biso   1.000  H
  H1220    1.0000 0.82140  0.78900  0.17220  Biso   1.000  H
  H1221    1.0000 0.42860  0.03900  0.42220  Biso   1.000  H
  H1222    1.0000 0.57140  0.96100  0.42220  Biso   1.000  H
  H1223    1.0000 0.67860  0.21100  0.67220  Biso   1.000  H
  H1224    1.0000 0.82140  0.28900  0.67220  Biso   1.000  H
  H1225    1.0000 0.92860  0.53900  0.42220  Biso   1.000  H
  H1226    1.0000 0.07140  0.46100  0.42220  Biso   1.000  H
  H1227    1.0000 0.17860  0.71100  0.67220  Biso   1.000  H
  H1228    1.0000 0.32140  0.78900  0.67220  Biso   1.000  H
  H1229    1.0000 0.92860  0.03900  0.92220  Biso   1.000  H
  H1230    1.0000 0.07140  0.96100  0.92220  Biso   1.000  H
  H1231    1.0000 0.17860  0.21100  0.17220  Biso   1.000  H
  H1232    1.0000 0.32140  0.28900  0.17220  Biso   1.000  H
  C673     1.0000 0.45090  0.60510  0.94140  Biso   1.000  C
  C674     1.0000 0.54910  0.39490  0.94140  Biso   1.000  C
  C675     1.0000 0.70090  0.64490  0.19140  Biso   1.000  C
  C676     1.0000 0.79910  0.85510  0.19140  Biso   1.000  C
  C677     1.0000 0.45090  0.10510  0.44140  Biso   1.000  C
  C678     1.0000 0.54910  0.89490  0.44140  Biso   1.000  C
  C679     1.0000 0.70090  0.14490  0.69140  Biso   1.000  C
  C680     1.0000 0.79910  0.35510  0.69140  Biso   1.000  C
  C681     1.0000 0.95090  0.60510  0.44140  Biso   1.000  C
  C682     1.0000 0.04910  0.39490  0.44140  Biso   1.000  C
  C683     1.0000 0.20090  0.64490  0.69140  Biso   1.000  C
  C684     1.0000 0.29910  0.85510  0.69140  Biso   1.000  C
  C685     1.0000 0.95090  0.10510  0.94140  Biso   1.000  C
  C686     1.0000 0.04910  0.89490  0.94140  Biso   1.000  C
  C687     1.0000 0.20090  0.14490  0.19140  Biso   1.000  C
  C688     1.0000 0.29910  0.35510  0.19140  Biso   1.000  C
  H1233    1.0000 0.43200  0.62070  0.95040  Biso   1.000  H
  H1234    1.0000 0.56800  0.37930  0.95040  Biso   1.000  H
  H1235    1.0000 0.68200  0.62930  0.20040  Biso   1.000  H
  H1236    1.0000 0.81800  0.87070  0.20040  Biso   1.000  H
  H1237    1.0000 0.43200  0.12070  0.45040  Biso   1.000  H
  H1238    1.0000 0.56800  0.87930  0.45040  Biso   1.000  H
  H1239    1.0000 0.68200  0.12930  0.70040  Biso   1.000  H
  H1240    1.0000 0.81800  0.37070  0.70040  Biso   1.000  H
  H1241    1.0000 0.93200  0.62070  0.45040  Biso   1.000  H
  H1242    1.0000 0.06800  0.37930  0.45040  Biso   1.000  H
  H1243    1.0000 0.18200  0.62930  0.70040  Biso   1.000  H
  H1244    1.0000 0.31800  0.87070  0.70040  Biso   1.000  H
  H1245    1.0000 0.93200  0.12070  0.95040  Biso   1.000  H
  H1246    1.0000 0.06800  0.87930  0.95040  Biso   1.000  H
  H1247    1.0000 0.18200  0.12930  0.20040  Biso   1.000  H
  H1248    1.0000 0.31800  0.37070  0.20040  Biso   1.000  H
  H1249    1.0000 0.46790  0.61210  0.95730  Biso   1.000  H
  H1250    1.0000 0.53210  0.38790  0.95730  Biso   1.000  H
  H1251    1.0000 0.71790  0.63790  0.20730  Biso   1.000  H
  H1252    1.0000 0.78210  0.86210  0.20730  Biso   1.000  H
  H1253    1.0000 0.46790  0.11210  0.45730  Biso   1.000  H
  H1254    1.0000 0.53210  0.88790  0.45730  Biso   1.000  H
  H1255    1.0000 0.71790  0.13790  0.70730  Biso   1.000  H
  H1256    1.0000 0.78210  0.36210  0.70730  Biso   1.000  H
  H1257    1.0000 0.96790  0.61210  0.45730  Biso   1.000  H
  H1258    1.0000 0.03210  0.38790  0.45730  Biso   1.000  H
  H1259    1.0000 0.21790  0.63790  0.70730  Biso   1.000  H
  H1260    1.0000 0.28210  0.86210  0.70730  Biso   1.000  H
  H1261    1.0000 0.96790  0.11210  0.95730  Biso   1.000  H
  H1262    1.0000 0.03210  0.88790  0.95730  Biso   1.000  H
  H1263    1.0000 0.21790  0.13790  0.20730  Biso   1.000  H
  H1264    1.0000 0.28210  0.36210  0.20730  Biso   1.000  H
  C689     1.0000 0.45820  0.62550  0.90540  Biso   1.000  C
  C690     1.0000 0.54180  0.37450  0.90540  Biso   1.000  C
  C691     1.0000 0.70820  0.62450  0.15540  Biso   1.000  C
  C692     1.0000 0.79180  0.87550  0.15540  Biso   1.000  C
  C693     1.0000 0.45820  0.12550  0.40540  Biso   1.000  C
  C694     1.0000 0.54180  0.87450  0.40540  Biso   1.000  C
  C695     1.0000 0.70820  0.12450  0.65540  Biso   1.000  C
  C696     1.0000 0.79180  0.37550  0.65540  Biso   1.000  C
  C697     1.0000 0.95820  0.62550  0.40540  Biso   1.000  C
  C698     1.0000 0.04180  0.37450  0.40540  Biso   1.000  C
  C699     1.0000 0.20820  0.62450  0.65540  Biso   1.000  C
  C700     1.0000 0.29180  0.87550  0.65540  Biso   1.000  C
  C701     1.0000 0.95820  0.12550  0.90540  Biso   1.000  C
  C702     1.0000 0.04180  0.87450  0.90540  Biso   1.000  C
  C703     1.0000 0.20820  0.12450  0.15540  Biso   1.000  C
  C704     1.0000 0.29180  0.37550  0.15540  Biso   1.000  C
  H1265    1.0000 0.47490  0.60460  0.89580  Biso   1.000  H
  H1266    1.0000 0.52510  0.39540  0.89580  Biso   1.000  H
  H1267    1.0000 0.72490  0.64540  0.14580  Biso   1.000  H
  H1268    1.0000 0.77510  0.85460  0.14580  Biso   1.000  H
  H1269    1.0000 0.47490  0.10460  0.39580  Biso   1.000  H
  H1270    1.0000 0.52510  0.89540  0.39580  Biso   1.000  H
  H1271    1.0000 0.72490  0.14540  0.64580  Biso   1.000  H
  H1272    1.0000 0.77510  0.35460  0.64580  Biso   1.000  H
  H1273    1.0000 0.97490  0.60460  0.39580  Biso   1.000  H
  H1274    1.0000 0.02510  0.39540  0.39580  Biso   1.000  H
  H1275    1.0000 0.22490  0.64540  0.64580  Biso   1.000  H
  H1276    1.0000 0.27510  0.85460  0.64580  Biso   1.000  H
  H1277    1.0000 0.97490  0.10460  0.89580  Biso   1.000  H
  H1278    1.0000 0.02510  0.89540  0.89580  Biso   1.000  H
  H1279    1.0000 0.22490  0.14540  0.14580  Biso   1.000  H
  H1280    1.0000 0.27510  0.35460  0.14580  Biso   1.000  H
  H1281    1.0000 0.44000  0.62000  0.89100  Biso   1.000  H
  H1282    1.0000 0.56000  0.38000  0.89100  Biso   1.000  H
  H1283    1.0000 0.69000  0.63000  0.14100  Biso   1.000  H
  H1284    1.0000 0.81000  0.87000  0.14100  Biso   1.000  H
  H1285    1.0000 0.44000  0.12000  0.39100  Biso   1.000  H
  H1286    1.0000 0.56000  0.88000  0.39100  Biso   1.000  H
  H1287    1.0000 0.69000  0.13000  0.64100  Biso   1.000  H
  H1288    1.0000 0.81000  0.37000  0.64100  Biso   1.000  H
  H1289    1.0000 0.94000  0.62000  0.39100  Biso   1.000  H
  H1290    1.0000 0.06000  0.38000  0.39100  Biso   1.000  H
  H1291    1.0000 0.19000  0.63000  0.64100  Biso   1.000  H
  H1292    1.0000 0.31000  0.87000  0.64100  Biso   1.000  H
  H1293    1.0000 0.94000  0.12000  0.89100  Biso   1.000  H
  H1294    1.0000 0.06000  0.88000  0.89100  Biso   1.000  H
  H1295    1.0000 0.19000  0.13000  0.14100  Biso   1.000  H
  H1296    1.0000 0.31000  0.37000  0.14100  Biso   1.000  H
  C705     1.0000 0.46760  0.68050  0.90170  Biso   1.000  C
  C706     1.0000 0.53240  0.31950  0.90170  Biso   1.000  C
  C707     1.0000 0.71760  0.56950  0.15170  Biso   1.000  C
  C708     1.0000 0.78240  0.93050  0.15170  Biso   1.000  C
  C709     1.0000 0.46760  0.18050  0.40170  Biso   1.000  C
  C710     1.0000 0.53240  0.81950  0.40170  Biso   1.000  C
  C711     1.0000 0.71760  0.06950  0.65170  Biso   1.000  C
  C712     1.0000 0.78240  0.43050  0.65170  Biso   1.000  C
  C713     1.0000 0.96760  0.68050  0.40170  Biso   1.000  C
  C714     1.0000 0.03240  0.31950  0.40170  Biso   1.000  C
  C715     1.0000 0.21760  0.56950  0.65170  Biso   1.000  C
  C716     1.0000 0.28240  0.93050  0.65170  Biso   1.000  C
  C717     1.0000 0.96760  0.18050  0.90170  Biso   1.000  C
  C718     1.0000 0.03240  0.81950  0.90170  Biso   1.000  C
  C719     1.0000 0.21760  0.06950  0.15170  Biso   1.000  C
  C720     1.0000 0.28240  0.43050  0.15170  Biso   1.000  C
  H1297    1.0000 0.47160  0.68800  0.87780  Biso   1.000  H
  H1298    1.0000 0.52840  0.31200  0.87780  Biso   1.000  H
  H1299    1.0000 0.72160  0.56200  0.12780  Biso   1.000  H
  H1300    1.0000 0.77840  0.93800  0.12780  Biso   1.000  H
  H1301    1.0000 0.47160  0.18800  0.37780  Biso   1.000  H
  H1302    1.0000 0.52840  0.81200  0.37780  Biso   1.000  H
  H1303    1.0000 0.72160  0.06200  0.62780  Biso   1.000  H
  H1304    1.0000 0.77840  0.43800  0.62780  Biso   1.000  H
  H1305    1.0000 0.97160  0.68800  0.37780  Biso   1.000  H
  H1306    1.0000 0.02840  0.31200  0.37780  Biso   1.000  H
  H1307    1.0000 0.22160  0.56200  0.62780  Biso   1.000  H
  H1308    1.0000 0.27840  0.93800  0.62780  Biso   1.000  H
  H1309    1.0000 0.97160  0.18800  0.87780  Biso   1.000  H
  H1310    1.0000 0.02840  0.81200  0.87780  Biso   1.000  H
  H1311    1.0000 0.22160  0.06200  0.12780  Biso   1.000  H
  H1312    1.0000 0.27840  0.43800  0.12780  Biso   1.000  H
  H1313    1.0000 0.48620  0.68670  0.91510  Biso   1.000  H
  H1314    1.0000 0.51380  0.31330  0.91510  Biso   1.000  H
  H1315    1.0000 0.73620  0.56330  0.16510  Biso   1.000  H
  H1316    1.0000 0.76380  0.93670  0.16510  Biso   1.000  H
  H1317    1.0000 0.48620  0.18670  0.41510  Biso   1.000  H
  H1318    1.0000 0.51380  0.81330  0.41510  Biso   1.000  H
  H1319    1.0000 0.73620  0.06330  0.66510  Biso   1.000  H
  H1320    1.0000 0.76380  0.43670  0.66510  Biso   1.000  H
  H1321    1.0000 0.98620  0.68670  0.41510  Biso   1.000  H
  H1322    1.0000 0.01380  0.31330  0.41510  Biso   1.000  H
  H1323    1.0000 0.23620  0.56330  0.66510  Biso   1.000  H
  H1324    1.0000 0.26380  0.93670  0.66510  Biso   1.000  H
  H1325    1.0000 0.98620  0.18670  0.91510  Biso   1.000  H
  H1326    1.0000 0.01380  0.81330  0.91510  Biso   1.000  H
  H1327    1.0000 0.23620  0.06330  0.16510  Biso   1.000  H
  H1328    1.0000 0.26380  0.43670  0.16510  Biso   1.000  H
  H1329    1.0000 0.45110  0.70210  0.91010  Biso   1.000  H
  H1330    1.0000 0.54890  0.29790  0.91010  Biso   1.000  H
  H1331    1.0000 0.70110  0.54790  0.16010  Biso   1.000  H
  H1332    1.0000 0.79890  0.95210  0.16010  Biso   1.000  H
  H1333    1.0000 0.45110  0.20210  0.41010  Biso   1.000  H
  H1334    1.0000 0.54890  0.79790  0.41010  Biso   1.000  H
  H1335    1.0000 0.70110  0.04790  0.66010  Biso   1.000  H
  H1336    1.0000 0.79890  0.45210  0.66010  Biso   1.000  H
  H1337    1.0000 0.95110  0.70210  0.41010  Biso   1.000  H
  H1338    1.0000 0.04890  0.29790  0.41010  Biso   1.000  H
  H1339    1.0000 0.20110  0.54790  0.66010  Biso   1.000  H
  H1340    1.0000 0.29890  0.95210  0.66010  Biso   1.000  H
  H1341    1.0000 0.95110  0.20210  0.91010  Biso   1.000  H
  H1342    1.0000 0.04890  0.79790  0.91010  Biso   1.000  H
  H1343    1.0000 0.20110  0.04790  0.16010  Biso   1.000  H
  H1344    1.0000 0.29890  0.45210  0.16010  Biso   1.000  H
  C721     1.0000 0.55630  0.21660  0.72110  Biso   1.000  C
  C722     1.0000 0.44370  0.78340  0.72110  Biso   1.000  C
  C723     1.0000 0.80630  0.03340  0.97110  Biso   1.000  C
  C724     1.0000 0.69370  0.46660  0.97110  Biso   1.000  C
  C725     1.0000 0.55630  0.71660  0.22110  Biso   1.000  C
  C726     1.0000 0.44370  0.28340  0.22110  Biso   1.000  C
  C727     1.0000 0.80630  0.53340  0.47110  Biso   1.000  C
  C728     1.0000 0.69370  0.96660  0.47110  Biso   1.000  C
  C729     1.0000 0.05630  0.21660  0.22110  Biso   1.000  C
  C730     1.0000 0.94370  0.78340  0.22110  Biso   1.000  C
  C731     1.0000 0.30630  0.03340  0.47110  Biso   1.000  C
  C732     1.0000 0.19370  0.46660  0.47110  Biso   1.000  C
  C733     1.0000 0.05630  0.71660  0.72110  Biso   1.000  C
  C734     1.0000 0.94370  0.28340  0.72110  Biso   1.000  C
  C735     1.0000 0.30630  0.53340  0.97110  Biso   1.000  C
  C736     1.0000 0.19370  0.96660  0.97110  Biso   1.000  C
  C737     1.0000 0.54770  0.17960  0.69370  Biso   1.000  C
  C738     1.0000 0.45230  0.82040  0.69370  Biso   1.000  C
  C739     1.0000 0.79770  0.07040  0.94370  Biso   1.000  C
  C740     1.0000 0.70230  0.42960  0.94370  Biso   1.000  C
  C741     1.0000 0.54770  0.67960  0.19370  Biso   1.000  C
  C742     1.0000 0.45230  0.32040  0.19370  Biso   1.000  C
  C743     1.0000 0.79770  0.57040  0.44370  Biso   1.000  C
  C744     1.0000 0.70230  0.92960  0.44370  Biso   1.000  C
  C745     1.0000 0.04770  0.17960  0.19370  Biso   1.000  C
  C746     1.0000 0.95230  0.82040  0.19370  Biso   1.000  C
  C747     1.0000 0.29770  0.07040  0.44370  Biso   1.000  C
  C748     1.0000 0.20230  0.42960  0.44370  Biso   1.000  C
  C749     1.0000 0.04770  0.67960  0.69370  Biso   1.000  C
  C750     1.0000 0.95230  0.32040  0.69370  Biso   1.000  C
  C751     1.0000 0.29770  0.57040  0.94370  Biso   1.000  C
  C752     1.0000 0.20230  0.92960  0.94370  Biso   1.000  C
  H1345    1.0000 0.53610  0.19710  0.67560  Biso   1.000  H
  H1346    1.0000 0.46390  0.80290  0.67560  Biso   1.000  H
  H1347    1.0000 0.78610  0.05290  0.92560  Biso   1.000  H
  H1348    1.0000 0.71390  0.44710  0.92560  Biso   1.000  H
  H1349    1.0000 0.53610  0.69710  0.17560  Biso   1.000  H
  H1350    1.0000 0.46390  0.30290  0.17560  Biso   1.000  H
  H1351    1.0000 0.78610  0.55290  0.42560  Biso   1.000  H
  H1352    1.0000 0.71390  0.94710  0.42560  Biso   1.000  H
  H1353    1.0000 0.03610  0.19710  0.17560  Biso   1.000  H
  H1354    1.0000 0.96390  0.80290  0.17560  Biso   1.000  H
  H1355    1.0000 0.28610  0.05290  0.42560  Biso   1.000  H
  H1356    1.0000 0.21390  0.44710  0.42560  Biso   1.000  H
  H1357    1.0000 0.03610  0.69710  0.67560  Biso   1.000  H
  H1358    1.0000 0.96390  0.30290  0.67560  Biso   1.000  H
  H1359    1.0000 0.28610  0.55290  0.92560  Biso   1.000  H
  H1360    1.0000 0.21390  0.94710  0.92560  Biso   1.000  H
  H1361    1.0000 0.56650  0.16540  0.68340  Biso   1.000  H
  H1362    1.0000 0.43350  0.83460  0.68340  Biso   1.000  H
  H1363    1.0000 0.81650  0.08460  0.93340  Biso   1.000  H
  H1364    1.0000 0.68350  0.41540  0.93340  Biso   1.000  H
  H1365    1.0000 0.56650  0.66540  0.18340  Biso   1.000  H
  H1366    1.0000 0.43350  0.33460  0.18340  Biso   1.000  H
  H1367    1.0000 0.81650  0.58460  0.43340  Biso   1.000  H
  H1368    1.0000 0.68350  0.91540  0.43340  Biso   1.000  H
  H1369    1.0000 0.06650  0.16540  0.18340  Biso   1.000  H
  H1370    1.0000 0.93350  0.83460  0.18340  Biso   1.000  H
  H1371    1.0000 0.31650  0.08460  0.43340  Biso   1.000  H
  H1372    1.0000 0.18350  0.41540  0.43340  Biso   1.000  H
  H1373    1.0000 0.06650  0.66540  0.68340  Biso   1.000  H
  H1374    1.0000 0.93350  0.33460  0.68340  Biso   1.000  H
  H1375    1.0000 0.31650  0.58460  0.93340  Biso   1.000  H
  H1376    1.0000 0.18350  0.91540  0.93340  Biso   1.000  H
  C753     1.0000 0.52850  0.13770  0.70840  Biso   1.000  C
  C754     1.0000 0.47150  0.86230  0.70840  Biso   1.000  C
  C755     1.0000 0.77850  0.11230  0.95840  Biso   1.000  C
  C756     1.0000 0.72150  0.38770  0.95840  Biso   1.000  C
  C757     1.0000 0.52850  0.63770  0.20840  Biso   1.000  C
  C758     1.0000 0.47150  0.36230  0.20840  Biso   1.000  C
  C759     1.0000 0.77850  0.61230  0.45840  Biso   1.000  C
  C760     1.0000 0.72150  0.88770  0.45840  Biso   1.000  C
  C761     1.0000 0.02850  0.13770  0.20840  Biso   1.000  C
  C762     1.0000 0.97150  0.86230  0.20840  Biso   1.000  C
  C763     1.0000 0.27850  0.11230  0.45840  Biso   1.000  C
  C764     1.0000 0.22150  0.38770  0.45840  Biso   1.000  C
  C765     1.0000 0.02850  0.63770  0.70840  Biso   1.000  C
  C766     1.0000 0.97150  0.36230  0.70840  Biso   1.000  C
  C767     1.0000 0.27850  0.61230  0.95840  Biso   1.000  C
  C768     1.0000 0.22150  0.88770  0.95840  Biso   1.000  C
  H1377    1.0000 0.52160  0.11570  0.68960  Biso   1.000  H
  H1378    1.0000 0.47840  0.88430  0.68960  Biso   1.000  H
  H1379    1.0000 0.77160  0.13430  0.93960  Biso   1.000  H
  H1380    1.0000 0.72840  0.36570  0.93960  Biso   1.000  H
  H1381    1.0000 0.52160  0.61570  0.18960  Biso   1.000  H
  H1382    1.0000 0.47840  0.38430  0.18960  Biso   1.000  H
  H1383    1.0000 0.77160  0.63430  0.43960  Biso   1.000  H
  H1384    1.0000 0.72840  0.86570  0.43960  Biso   1.000  H
  H1385    1.0000 0.02160  0.11570  0.18960  Biso   1.000  H
  H1386    1.0000 0.97840  0.88430  0.18960  Biso   1.000  H
  H1387    1.0000 0.27160  0.13430  0.43960  Biso   1.000  H
  H1388    1.0000 0.22840  0.36570  0.43960  Biso   1.000  H
  H1389    1.0000 0.02160  0.61570  0.68960  Biso   1.000  H
  H1390    1.0000 0.97840  0.38430  0.68960  Biso   1.000  H
  H1391    1.0000 0.27160  0.63430  0.93960  Biso   1.000  H
  H1392    1.0000 0.22840  0.86570  0.93960  Biso   1.000  H
  H1393    1.0000 0.51010  0.15260  0.71890  Biso   1.000  H
  H1394    1.0000 0.48990  0.84740  0.71890  Biso   1.000  H
  H1395    1.0000 0.76010  0.09740  0.96890  Biso   1.000  H
  H1396    1.0000 0.73990  0.40260  0.96890  Biso   1.000  H
  H1397    1.0000 0.51010  0.65260  0.21890  Biso   1.000  H
  H1398    1.0000 0.48990  0.34740  0.21890  Biso   1.000  H
  H1399    1.0000 0.76010  0.59740  0.46890  Biso   1.000  H
  H1400    1.0000 0.73990  0.90260  0.46890  Biso   1.000  H
  H1401    1.0000 0.01010  0.15260  0.21890  Biso   1.000  H
  H1402    1.0000 0.98990  0.84740  0.21890  Biso   1.000  H
  H1403    1.0000 0.26010  0.09740  0.46890  Biso   1.000  H
  H1404    1.0000 0.23990  0.40260  0.46890  Biso   1.000  H
  H1405    1.0000 0.01010  0.65260  0.71890  Biso   1.000  H
  H1406    1.0000 0.98990  0.34740  0.71890  Biso   1.000  H
  H1407    1.0000 0.26010  0.59740  0.96890  Biso   1.000  H
  H1408    1.0000 0.23990  0.90260  0.96890  Biso   1.000  H
  C769     1.0000 0.54400  0.10590  0.73420  Biso   1.000  C
  C770     1.0000 0.45600  0.89410  0.73420  Biso   1.000  C
  C771     1.0000 0.79400  0.14410  0.98420  Biso   1.000  C
  C772     1.0000 0.70600  0.35590  0.98420  Biso   1.000  C
  C773     1.0000 0.54400  0.60590  0.23420  Biso   1.000  C
  C774     1.0000 0.45600  0.39410  0.23420  Biso   1.000  C
  C775     1.0000 0.79400  0.64410  0.48420  Biso   1.000  C
  C776     1.0000 0.70600  0.85590  0.48420  Biso   1.000  C
  C777     1.0000 0.04400  0.10590  0.23420  Biso   1.000  C
  C778     1.0000 0.95600  0.89410  0.23420  Biso   1.000  C
  C779     1.0000 0.29400  0.14410  0.48420  Biso   1.000  C
  C780     1.0000 0.20600  0.35590  0.48420  Biso   1.000  C
  C781     1.0000 0.04400  0.60590  0.73420  Biso   1.000  C
  C782     1.0000 0.95600  0.39410  0.73420  Biso   1.000  C
  C783     1.0000 0.29400  0.64410  0.98420  Biso   1.000  C
  C784     1.0000 0.20600  0.85590  0.98420  Biso   1.000  C
  H1409    1.0000 0.56140  0.08770  0.72380  Biso   1.000  H
  H1410    1.0000 0.43860  0.91230  0.72380  Biso   1.000  H
  H1411    1.0000 0.81140  0.16230  0.97380  Biso   1.000  H
  H1412    1.0000 0.68860  0.33770  0.97380  Biso   1.000  H
  H1413    1.0000 0.56140  0.58770  0.22380  Biso   1.000  H
  H1414    1.0000 0.43860  0.41230  0.22380  Biso   1.000  H
  H1415    1.0000 0.81140  0.66230  0.47380  Biso   1.000  H
  H1416    1.0000 0.68860  0.83770  0.47380  Biso   1.000  H
  H1417    1.0000 0.06140  0.08770  0.22380  Biso   1.000  H
  H1418    1.0000 0.93860  0.91230  0.22380  Biso   1.000  H
  H1419    1.0000 0.31140  0.16230  0.47380  Biso   1.000  H
  H1420    1.0000 0.18860  0.33770  0.47380  Biso   1.000  H
  H1421    1.0000 0.06140  0.58770  0.72380  Biso   1.000  H
  H1422    1.0000 0.93860  0.41230  0.72380  Biso   1.000  H
  H1423    1.0000 0.31140  0.66230  0.97380  Biso   1.000  H
  H1424    1.0000 0.18860  0.83770  0.97380  Biso   1.000  H
  H1425    1.0000 0.55180  0.12700  0.75300  Biso   1.000  H
  H1426    1.0000 0.44820  0.87300  0.75300  Biso   1.000  H
  H1427    1.0000 0.80180  0.12300  0.00300  Biso   1.000  H
  H1428    1.0000 0.69820  0.37700  0.00300  Biso   1.000  H
  H1429    1.0000 0.55180  0.62700  0.25300  Biso   1.000  H
  H1430    1.0000 0.44820  0.37300  0.25300  Biso   1.000  H
  H1431    1.0000 0.80180  0.62300  0.50300  Biso   1.000  H
  H1432    1.0000 0.69820  0.87700  0.50300  Biso   1.000  H
  H1433    1.0000 0.05180  0.12700  0.25300  Biso   1.000  H
  H1434    1.0000 0.94820  0.87300  0.25300  Biso   1.000  H
  H1435    1.0000 0.30180  0.12300  0.50300  Biso   1.000  H
  H1436    1.0000 0.19820  0.37700  0.50300  Biso   1.000  H
  H1437    1.0000 0.05180  0.62700  0.75300  Biso   1.000  H
  H1438    1.0000 0.94820  0.37300  0.75300  Biso   1.000  H
  H1439    1.0000 0.30180  0.62300  0.00300  Biso   1.000  H
  H1440    1.0000 0.19820  0.87700  0.00300  Biso   1.000  H
  C785     1.0000 0.51950  0.06750  0.74780  Biso   1.000  C
  C786     1.0000 0.48050  0.93250  0.74780  Biso   1.000  C
  C787     1.0000 0.76950  0.18250  0.99780  Biso   1.000  C
  C788     1.0000 0.73050  0.31750  0.99780  Biso   1.000  C
  C789     1.0000 0.51950  0.56750  0.24780  Biso   1.000  C
  C790     1.0000 0.48050  0.43250  0.24780  Biso   1.000  C
  C791     1.0000 0.76950  0.68250  0.49780  Biso   1.000  C
  C792     1.0000 0.73050  0.81750  0.49780  Biso   1.000  C
  C793     1.0000 0.01950  0.06750  0.24780  Biso   1.000  C
  C794     1.0000 0.98050  0.93250  0.24780  Biso   1.000  C
  C795     1.0000 0.26950  0.18250  0.49780  Biso   1.000  C
  C796     1.0000 0.23050  0.31750  0.49780  Biso   1.000  C
  C797     1.0000 0.01950  0.56750  0.74780  Biso   1.000  C
  C798     1.0000 0.98050  0.43250  0.74780  Biso   1.000  C
  C799     1.0000 0.26950  0.68250  0.99780  Biso   1.000  C
  C800     1.0000 0.23050  0.81750  0.99780  Biso   1.000  C
  H1441    1.0000 0.52880  0.04590  0.76510  Biso   1.000  H
  H1442    1.0000 0.47120  0.95410  0.76510  Biso   1.000  H
  H1443    1.0000 0.77880  0.20410  0.01510  Biso   1.000  H
  H1444    1.0000 0.72120  0.29590  0.01510  Biso   1.000  H
  H1445    1.0000 0.52880  0.54590  0.26510  Biso   1.000  H
  H1446    1.0000 0.47120  0.45410  0.26510  Biso   1.000  H
  H1447    1.0000 0.77880  0.70410  0.51510  Biso   1.000  H
  H1448    1.0000 0.72120  0.79590  0.51510  Biso   1.000  H
  H1449    1.0000 0.02880  0.04590  0.26510  Biso   1.000  H
  H1450    1.0000 0.97120  0.95410  0.26510  Biso   1.000  H
  H1451    1.0000 0.27880  0.20410  0.51510  Biso   1.000  H
  H1452    1.0000 0.22120  0.29590  0.51510  Biso   1.000  H
  H1453    1.0000 0.02880  0.54590  0.76510  Biso   1.000  H
  H1454    1.0000 0.97120  0.45410  0.76510  Biso   1.000  H
  H1455    1.0000 0.27880  0.70410  0.01510  Biso   1.000  H
  H1456    1.0000 0.22120  0.79590  0.01510  Biso   1.000  H
  H1457    1.0000 0.50230  0.08600  0.75790  Biso   1.000  H
  H1458    1.0000 0.49770  0.91400  0.75790  Biso   1.000  H
  H1459    1.0000 0.75230  0.16400  0.00790  Biso   1.000  H
  H1460    1.0000 0.74770  0.33600  0.00790  Biso   1.000  H
  H1461    1.0000 0.50230  0.58600  0.25790  Biso   1.000  H
  H1462    1.0000 0.49770  0.41400  0.25790  Biso   1.000  H
  H1463    1.0000 0.75230  0.66400  0.50790  Biso   1.000  H
  H1464    1.0000 0.74770  0.83600  0.50790  Biso   1.000  H
  H1465    1.0000 0.00230  0.08600  0.25790  Biso   1.000  H
  H1466    1.0000 0.99770  0.91400  0.25790  Biso   1.000  H
  H1467    1.0000 0.25230  0.16400  0.50790  Biso   1.000  H
  H1468    1.0000 0.24770  0.33600  0.50790  Biso   1.000  H
  H1469    1.0000 0.00230  0.58600  0.75790  Biso   1.000  H
  H1470    1.0000 0.99770  0.41400  0.75790  Biso   1.000  H
  H1471    1.0000 0.25230  0.66400  0.00790  Biso   1.000  H
  H1472    1.0000 0.24770  0.83600  0.00790  Biso   1.000  H
  H1473    1.0000 0.51200  0.04670  0.72900  Biso   1.000  H
  H1474    1.0000 0.48800  0.95330  0.72900  Biso   1.000  H
  H1475    1.0000 0.76200  0.20330  0.97900  Biso   1.000  H
  H1476    1.0000 0.73800  0.29670  0.97900  Biso   1.000  H
  H1477    1.0000 0.51200  0.54670  0.22900  Biso   1.000  H
  H1478    1.0000 0.48800  0.45330  0.22900  Biso   1.000  H
  H1479    1.0000 0.76200  0.70330  0.47900  Biso   1.000  H
  H1480    1.0000 0.73800  0.79670  0.47900  Biso   1.000  H
  H1481    1.0000 0.01200  0.04670  0.22900  Biso   1.000  H
  H1482    1.0000 0.98800  0.95330  0.22900  Biso   1.000  H
  H1483    1.0000 0.26200  0.20330  0.47900  Biso   1.000  H
  H1484    1.0000 0.23800  0.29670  0.47900  Biso   1.000  H
  H1485    1.0000 0.01200  0.54670  0.72900  Biso   1.000  H
  H1486    1.0000 0.98800  0.45330  0.72900  Biso   1.000  H
  H1487    1.0000 0.26200  0.70330  0.97900  Biso   1.000  H
  H1488    1.0000 0.23800  0.79670  0.97900  Biso   1.000  H
  C801     1.0000 0.55580  0.27140  0.75960  Biso   1.000  C
  C802     1.0000 0.44420  0.72860  0.75960  Biso   1.000  C
  C803     1.0000 0.80580  0.97860  0.00960  Biso   1.000  C
  C804     1.0000 0.69420  0.52140  0.00960  Biso   1.000  C
  C805     1.0000 0.55580  0.77140  0.25960  Biso   1.000  C
  C806     1.0000 0.44420  0.22860  0.25960  Biso   1.000  C
  C807     1.0000 0.80580  0.47860  0.50960  Biso   1.000  C
  C808     1.0000 0.69420  0.02140  0.50960  Biso   1.000  C
  C809     1.0000 0.05580  0.27140  0.25960  Biso   1.000  C
  C810     1.0000 0.94420  0.72860  0.25960  Biso   1.000  C
  C811     1.0000 0.30580  0.97860  0.50960  Biso   1.000  C
  C812     1.0000 0.19420  0.52140  0.50960  Biso   1.000  C
  C813     1.0000 0.05580  0.77140  0.75960  Biso   1.000  C
  C814     1.0000 0.94420  0.22860  0.75960  Biso   1.000  C
  C815     1.0000 0.30580  0.47860  0.00960  Biso   1.000  C
  C816     1.0000 0.19420  0.02140  0.00960  Biso   1.000  C
  C817     1.0000 0.54610  0.31050  0.78460  Biso   1.000  C
  C818     1.0000 0.45390  0.68950  0.78460  Biso   1.000  C
  C819     1.0000 0.79610  0.93950  0.03460  Biso   1.000  C
  C820     1.0000 0.70390  0.56050  0.03460  Biso   1.000  C
  C821     1.0000 0.54610  0.81050  0.28460  Biso   1.000  C
  C822     1.0000 0.45390  0.18950  0.28460  Biso   1.000  C
  C823     1.0000 0.79610  0.43950  0.53460  Biso   1.000  C
  C824     1.0000 0.70390  0.06050  0.53460  Biso   1.000  C
  C825     1.0000 0.04610  0.31050  0.28460  Biso   1.000  C
  C826     1.0000 0.95390  0.68950  0.28460  Biso   1.000  C
  C827     1.0000 0.29610  0.93950  0.53460  Biso   1.000  C
  C828     1.0000 0.20390  0.56050  0.53460  Biso   1.000  C
  C829     1.0000 0.04610  0.81050  0.78460  Biso   1.000  C
  C830     1.0000 0.95390  0.18950  0.78460  Biso   1.000  C
  C831     1.0000 0.29610  0.43950  0.03460  Biso   1.000  C
  C832     1.0000 0.20390  0.06050  0.03460  Biso   1.000  C
  H1489    1.0000 0.52660  0.29970  0.79520  Biso   1.000  H
  H1490    1.0000 0.47340  0.70030  0.79520  Biso   1.000  H
  H1491    1.0000 0.77660  0.95030  0.04520  Biso   1.000  H
  H1492    1.0000 0.72340  0.54970  0.04520  Biso   1.000  H
  H1493    1.0000 0.52660  0.79970  0.29520  Biso   1.000  H
  H1494    1.0000 0.47340  0.20030  0.29520  Biso   1.000  H
  H1495    1.0000 0.77660  0.45030  0.54520  Biso   1.000  H
  H1496    1.0000 0.72340  0.04970  0.54520  Biso   1.000  H
  H1497    1.0000 0.02660  0.29970  0.29520  Biso   1.000  H
  H1498    1.0000 0.97340  0.70030  0.29520  Biso   1.000  H
  H1499    1.0000 0.27660  0.95030  0.54520  Biso   1.000  H
  H1500    1.0000 0.22340  0.54970  0.54520  Biso   1.000  H
  H1501    1.0000 0.02660  0.79970  0.79520  Biso   1.000  H
  H1502    1.0000 0.97340  0.20030  0.79520  Biso   1.000  H
  H1503    1.0000 0.27660  0.45030  0.04520  Biso   1.000  H
  H1504    1.0000 0.22340  0.04970  0.04520  Biso   1.000  H
  H1505    1.0000 0.56160  0.31260  0.80290  Biso   1.000  H
  H1506    1.0000 0.43840  0.68740  0.80290  Biso   1.000  H
  H1507    1.0000 0.81160  0.93740  0.05290  Biso   1.000  H
  H1508    1.0000 0.68840  0.56260  0.05290  Biso   1.000  H
  H1509    1.0000 0.56160  0.81260  0.30290  Biso   1.000  H
  H1510    1.0000 0.43840  0.18740  0.30290  Biso   1.000  H
  H1511    1.0000 0.81160  0.43740  0.55290  Biso   1.000  H
  H1512    1.0000 0.68840  0.06260  0.55290  Biso   1.000  H
  H1513    1.0000 0.06160  0.31260  0.30290  Biso   1.000  H
  H1514    1.0000 0.93840  0.68740  0.30290  Biso   1.000  H
  H1515    1.0000 0.31160  0.93740  0.55290  Biso   1.000  H
  H1516    1.0000 0.18840  0.56260  0.55290  Biso   1.000  H
  H1517    1.0000 0.06160  0.81260  0.80290  Biso   1.000  H
  H1518    1.0000 0.93840  0.18740  0.80290  Biso   1.000  H
  H1519    1.0000 0.31160  0.43740  0.05290  Biso   1.000  H
  H1520    1.0000 0.18840  0.06260  0.05290  Biso   1.000  H
  C833     1.0000 0.54160  0.36300  0.76930  Biso   1.000  C
  C834     1.0000 0.45840  0.63700  0.76930  Biso   1.000  C
  C835     1.0000 0.79160  0.88700  0.01930  Biso   1.000  C
  C836     1.0000 0.70840  0.61300  0.01930  Biso   1.000  C
  C837     1.0000 0.54160  0.86300  0.26930  Biso   1.000  C
  C838     1.0000 0.45840  0.13700  0.26930  Biso   1.000  C
  C839     1.0000 0.79160  0.38700  0.51930  Biso   1.000  C
  C840     1.0000 0.70840  0.11300  0.51930  Biso   1.000  C
  C841     1.0000 0.04160  0.36300  0.26930  Biso   1.000  C
  C842     1.0000 0.95840  0.63700  0.26930  Biso   1.000  C
  C843     1.0000 0.29160  0.88700  0.51930  Biso   1.000  C
  C844     1.0000 0.20840  0.61300  0.51930  Biso   1.000  C
  C845     1.0000 0.04160  0.86300  0.76930  Biso   1.000  C
  C846     1.0000 0.95840  0.13700  0.76930  Biso   1.000  C
  C847     1.0000 0.29160  0.38700  0.01930  Biso   1.000  C
  C848     1.0000 0.20840  0.11300  0.01930  Biso   1.000  C
  H1521    1.0000 0.52350  0.36380  0.75420  Biso   1.000  H
  H1522    1.0000 0.47650  0.63620  0.75420  Biso   1.000  H
  H1523    1.0000 0.77350  0.88620  0.00420  Biso   1.000  H
  H1524    1.0000 0.72650  0.61380  0.00420  Biso   1.000  H
  H1525    1.0000 0.52350  0.86380  0.25420  Biso   1.000  H
  H1526    1.0000 0.47650  0.13620  0.25420  Biso   1.000  H
  H1527    1.0000 0.77350  0.38620  0.50420  Biso   1.000  H
  H1528    1.0000 0.72650  0.11380  0.50420  Biso   1.000  H
  H1529    1.0000 0.02350  0.36380  0.25420  Biso   1.000  H
  H1530    1.0000 0.97650  0.63620  0.25420  Biso   1.000  H
  H1531    1.0000 0.27350  0.88620  0.50420  Biso   1.000  H
  H1532    1.0000 0.22650  0.61380  0.50420  Biso   1.000  H
  H1533    1.0000 0.02350  0.86380  0.75420  Biso   1.000  H
  H1534    1.0000 0.97650  0.13620  0.75420  Biso   1.000  H
  H1535    1.0000 0.27350  0.38620  0.00420  Biso   1.000  H
  H1536    1.0000 0.22650  0.11380  0.00420  Biso   1.000  H
  H1537    1.0000 0.55990  0.37330  0.75610  Biso   1.000  H
  H1538    1.0000 0.44010  0.62670  0.75610  Biso   1.000  H
  H1539    1.0000 0.80990  0.87670  0.00610  Biso   1.000  H
  H1540    1.0000 0.69010  0.62330  0.00610  Biso   1.000  H
  H1541    1.0000 0.55990  0.87330  0.25610  Biso   1.000  H
  H1542    1.0000 0.44010  0.12670  0.25610  Biso   1.000  H
  H1543    1.0000 0.80990  0.37670  0.50610  Biso   1.000  H
  H1544    1.0000 0.69010  0.12330  0.50610  Biso   1.000  H
  H1545    1.0000 0.05990  0.37330  0.25610  Biso   1.000  H
  H1546    1.0000 0.94010  0.62670  0.25610  Biso   1.000  H
  H1547    1.0000 0.30990  0.87670  0.50610  Biso   1.000  H
  H1548    1.0000 0.19010  0.62330  0.50610  Biso   1.000  H
  H1549    1.0000 0.05990  0.87330  0.75610  Biso   1.000  H
  H1550    1.0000 0.94010  0.12670  0.75610  Biso   1.000  H
  H1551    1.0000 0.30990  0.37670  0.00610  Biso   1.000  H
  H1552    1.0000 0.19010  0.12330  0.00610  Biso   1.000  H
  C849     1.0000 0.53700  0.39740  0.80000  Biso   1.000  C
  C850     1.0000 0.46300  0.60260  0.80000  Biso   1.000  C
  C851     1.0000 0.78700  0.85260  0.05000  Biso   1.000  C
  C852     1.0000 0.71300  0.64740  0.05000  Biso   1.000  C
  C853     1.0000 0.53700  0.89740  0.30000  Biso   1.000  C
  C854     1.0000 0.46300  0.10260  0.30000  Biso   1.000  C
  C855     1.0000 0.78700  0.35260  0.55000  Biso   1.000  C
  C856     1.0000 0.71300  0.14740  0.55000  Biso   1.000  C
  C857     1.0000 0.03700  0.39740  0.30000  Biso   1.000  C
  C858     1.0000 0.96300  0.60260  0.30000  Biso   1.000  C
  C859     1.0000 0.28700  0.85260  0.55000  Biso   1.000  C
  C860     1.0000 0.21300  0.64740  0.55000  Biso   1.000  C
  C861     1.0000 0.03700  0.89740  0.80000  Biso   1.000  C
  C862     1.0000 0.96300  0.10260  0.80000  Biso   1.000  C
  C863     1.0000 0.28700  0.35260  0.05000  Biso   1.000  C
  C864     1.0000 0.21300  0.14740  0.05000  Biso   1.000  C
  H1553    1.0000 0.51790  0.39020  0.81260  Biso   1.000  H
  H1554    1.0000 0.48210  0.60980  0.81260  Biso   1.000  H
  H1555    1.0000 0.76790  0.85980  0.06260  Biso   1.000  H
  H1556    1.0000 0.73210  0.64020  0.06260  Biso   1.000  H
  H1557    1.0000 0.51790  0.89020  0.31260  Biso   1.000  H
  H1558    1.0000 0.48210  0.10980  0.31260  Biso   1.000  H
  H1559    1.0000 0.76790  0.35980  0.56260  Biso   1.000  H
  H1560    1.0000 0.73210  0.14020  0.56260  Biso   1.000  H
  H1561    1.0000 0.01790  0.39020  0.31260  Biso   1.000  H
  H1562    1.0000 0.98210  0.60980  0.31260  Biso   1.000  H
  H1563    1.0000 0.26790  0.85980  0.56260  Biso   1.000  H
  H1564    1.0000 0.23210  0.64020  0.56260  Biso   1.000  H
  H1565    1.0000 0.01790  0.89020  0.81260  Biso   1.000  H
  H1566    1.0000 0.98210  0.10980  0.81260  Biso   1.000  H
  H1567    1.0000 0.26790  0.35980  0.06260  Biso   1.000  H
  H1568    1.0000 0.23210  0.14020  0.06260  Biso   1.000  H
  H1569    1.0000 0.55470  0.39750  0.81570  Biso   1.000  H
  H1570    1.0000 0.44530  0.60250  0.81570  Biso   1.000  H
  H1571    1.0000 0.80470  0.85250  0.06570  Biso   1.000  H
  H1572    1.0000 0.69530  0.64750  0.06570  Biso   1.000  H
  H1573    1.0000 0.55470  0.89750  0.31570  Biso   1.000  H
  H1574    1.0000 0.44530  0.10250  0.31570  Biso   1.000  H
  H1575    1.0000 0.80470  0.35250  0.56570  Biso   1.000  H
  H1576    1.0000 0.69530  0.14750  0.56570  Biso   1.000  H
  H1577    1.0000 0.05470  0.39750  0.31570  Biso   1.000  H
  H1578    1.0000 0.94530  0.60250  0.31570  Biso   1.000  H
  H1579    1.0000 0.30470  0.85250  0.56570  Biso   1.000  H
  H1580    1.0000 0.19530  0.64750  0.56570  Biso   1.000  H
  H1581    1.0000 0.05470  0.89750  0.81570  Biso   1.000  H
  H1582    1.0000 0.94530  0.10250  0.81570  Biso   1.000  H
  H1583    1.0000 0.30470  0.35250  0.06570  Biso   1.000  H
  H1584    1.0000 0.19530  0.14750  0.06570  Biso   1.000  H
  C865     1.0000 0.53500  0.44560  0.77790  Biso   1.000  C
  C866     1.0000 0.46500  0.55440  0.77790  Biso   1.000  C
  C867     1.0000 0.78500  0.80440  0.02790  Biso   1.000  C
  C868     1.0000 0.71500  0.69560  0.02790  Biso   1.000  C
  C869     1.0000 0.53500  0.94560  0.27790  Biso   1.000  C
  C870     1.0000 0.46500  0.05440  0.27790  Biso   1.000  C
  C871     1.0000 0.78500  0.30440  0.52790  Biso   1.000  C
  C872     1.0000 0.71500  0.19560  0.52790  Biso   1.000  C
  C873     1.0000 0.03500  0.44560  0.27790  Biso   1.000  C
  C874     1.0000 0.96500  0.55440  0.27790  Biso   1.000  C
  C875     1.0000 0.28500  0.80440  0.52790  Biso   1.000  C
  C876     1.0000 0.21500  0.69560  0.52790  Biso   1.000  C
  C877     1.0000 0.03500  0.94560  0.77790  Biso   1.000  C
  C878     1.0000 0.96500  0.05440  0.77790  Biso   1.000  C
  C879     1.0000 0.28500  0.30440  0.02790  Biso   1.000  C
  C880     1.0000 0.21500  0.19560  0.02790  Biso   1.000  C
  H1585    1.0000 0.53240  0.47500  0.79270  Biso   1.000  H
  H1586    1.0000 0.46760  0.52500  0.79270  Biso   1.000  H
  H1587    1.0000 0.78240  0.77500  0.04270  Biso   1.000  H
  H1588    1.0000 0.71760  0.72500  0.04270  Biso   1.000  H
  H1589    1.0000 0.53240  0.97500  0.29270  Biso   1.000  H
  H1590    1.0000 0.46760  0.02500  0.29270  Biso   1.000  H
  H1591    1.0000 0.78240  0.27500  0.54270  Biso   1.000  H
  H1592    1.0000 0.71760  0.22500  0.54270  Biso   1.000  H
  H1593    1.0000 0.03240  0.47500  0.29270  Biso   1.000  H
  H1594    1.0000 0.96760  0.52500  0.29270  Biso   1.000  H
  H1595    1.0000 0.28240  0.77500  0.54270  Biso   1.000  H
  H1596    1.0000 0.21760  0.72500  0.54270  Biso   1.000  H
  H1597    1.0000 0.03240  0.97500  0.79270  Biso   1.000  H
  H1598    1.0000 0.96760  0.02500  0.79270  Biso   1.000  H
  H1599    1.0000 0.28240  0.27500  0.04270  Biso   1.000  H
  H1600    1.0000 0.21760  0.22500  0.04270  Biso   1.000  H
  H1601    1.0000 0.55380  0.44930  0.76460  Biso   1.000  H
  H1602    1.0000 0.44620  0.55070  0.76460  Biso   1.000  H
  H1603    1.0000 0.80380  0.80070  0.01460  Biso   1.000  H
  H1604    1.0000 0.69620  0.69930  0.01460  Biso   1.000  H
  H1605    1.0000 0.55380  0.94930  0.26460  Biso   1.000  H
  H1606    1.0000 0.44620  0.05070  0.26460  Biso   1.000  H
  H1607    1.0000 0.80380  0.30070  0.51460  Biso   1.000  H
  H1608    1.0000 0.69620  0.19930  0.51460  Biso   1.000  H
  H1609    1.0000 0.05380  0.44930  0.26460  Biso   1.000  H
  H1610    1.0000 0.94620  0.55070  0.26460  Biso   1.000  H
  H1611    1.0000 0.30380  0.80070  0.51460  Biso   1.000  H
  H1612    1.0000 0.19620  0.69930  0.51460  Biso   1.000  H
  H1613    1.0000 0.05380  0.94930  0.76460  Biso   1.000  H
  H1614    1.0000 0.94620  0.05070  0.76460  Biso   1.000  H
  H1615    1.0000 0.30380  0.30070  0.01460  Biso   1.000  H
  H1616    1.0000 0.19620  0.19930  0.01460  Biso   1.000  H
  H1617    1.0000 0.51750  0.44300  0.76240  Biso   1.000  H
  H1618    1.0000 0.48250  0.55700  0.76240  Biso   1.000  H
  H1619    1.0000 0.76750  0.80700  0.01240  Biso   1.000  H
  H1620    1.0000 0.73250  0.69300  0.01240  Biso   1.000  H
  H1621    1.0000 0.51750  0.94300  0.26240  Biso   1.000  H
  H1622    1.0000 0.48250  0.05700  0.26240  Biso   1.000  H
  H1623    1.0000 0.76750  0.30700  0.51240  Biso   1.000  H
  H1624    1.0000 0.73250  0.19300  0.51240  Biso   1.000  H
  H1625    1.0000 0.01750  0.44300  0.26240  Biso   1.000  H
  H1626    1.0000 0.98250  0.55700  0.26240  Biso   1.000  H
  H1627    1.0000 0.26750  0.80700  0.51240  Biso   1.000  H
  H1628    1.0000 0.23250  0.69300  0.51240  Biso   1.000  H
  H1629    1.0000 0.01750  0.94300  0.76240  Biso   1.000  H
  H1630    1.0000 0.98250  0.05700  0.76240  Biso   1.000  H
  H1631    1.0000 0.26750  0.30700  0.01240  Biso   1.000  H
  H1632    1.0000 0.23250  0.19300  0.01240  Biso   1.000  H
  C881     1.0000 0.35400  0.05890  0.58720  Biso   1.000  C
  C882     1.0000 0.64600  0.94110  0.58720  Biso   1.000  C
  C883     1.0000 0.60400  0.19110  0.83720  Biso   1.000  C
  C884     1.0000 0.89600  0.30890  0.83720  Biso   1.000  C
  C885     1.0000 0.35400  0.55890  0.08720  Biso   1.000  C
  C886     1.0000 0.64600  0.44110  0.08720  Biso   1.000  C
  C887     1.0000 0.60400  0.69110  0.33720  Biso   1.000  C
  C888     1.0000 0.89600  0.80890  0.33720  Biso   1.000  C
  C889     1.0000 0.85400  0.05890  0.08720  Biso   1.000  C
  C890     1.0000 0.14600  0.94110  0.08720  Biso   1.000  C
  C891     1.0000 0.10400  0.19110  0.33720  Biso   1.000  C
  C892     1.0000 0.39600  0.30890  0.33720  Biso   1.000  C
  C893     1.0000 0.85400  0.55890  0.58720  Biso   1.000  C
  C894     1.0000 0.14600  0.44110  0.58720  Biso   1.000  C
  C895     1.0000 0.10400  0.69110  0.83720  Biso   1.000  C
  C896     1.0000 0.39600  0.80890  0.83720  Biso   1.000  C
  C897     1.0000 0.35250  0.09610  0.56120  Biso   1.000  C
  C898     1.0000 0.64750  0.90390  0.56120  Biso   1.000  C
  C899     1.0000 0.60250  0.15390  0.81120  Biso   1.000  C
  C900     1.0000 0.89750  0.34610  0.81120  Biso   1.000  C
  C901     1.0000 0.35250  0.59610  0.06120  Biso   1.000  C
  C902     1.0000 0.64750  0.40390  0.06120  Biso   1.000  C
  C903     1.0000 0.60250  0.65390  0.31120  Biso   1.000  C
  C904     1.0000 0.89750  0.84610  0.31120  Biso   1.000  C
  C905     1.0000 0.85250  0.09610  0.06120  Biso   1.000  C
  C906     1.0000 0.14750  0.90390  0.06120  Biso   1.000  C
  C907     1.0000 0.10250  0.15390  0.31120  Biso   1.000  C
  C908     1.0000 0.39750  0.34610  0.31120  Biso   1.000  C
  C909     1.0000 0.85250  0.59610  0.56120  Biso   1.000  C
  C910     1.0000 0.14750  0.40390  0.56120  Biso   1.000  C
  C911     1.0000 0.10250  0.65390  0.81120  Biso   1.000  C
  C912     1.0000 0.39750  0.84610  0.81120  Biso   1.000  C
  H1633    1.0000 0.33720  0.12190  0.56770  Biso   1.000  H
  H1634    1.0000 0.66280  0.87810  0.56770  Biso   1.000  H
  H1635    1.0000 0.58720  0.12810  0.81770  Biso   1.000  H
  H1636    1.0000 0.91280  0.37190  0.81770  Biso   1.000  H
  H1637    1.0000 0.33720  0.62190  0.06770  Biso   1.000  H
  H1638    1.0000 0.66280  0.37810  0.06770  Biso   1.000  H
  H1639    1.0000 0.58720  0.62810  0.31770  Biso   1.000  H
  H1640    1.0000 0.91280  0.87190  0.31770  Biso   1.000  H
  H1641    1.0000 0.83720  0.12190  0.06770  Biso   1.000  H
  H1642    1.0000 0.16280  0.87810  0.06770  Biso   1.000  H
  H1643    1.0000 0.08720  0.12810  0.31770  Biso   1.000  H
  H1644    1.0000 0.41280  0.37190  0.31770  Biso   1.000  H
  H1645    1.0000 0.83720  0.62190  0.56770  Biso   1.000  H
  H1646    1.0000 0.16280  0.37810  0.56770  Biso   1.000  H
  H1647    1.0000 0.08720  0.62810  0.81770  Biso   1.000  H
  H1648    1.0000 0.41280  0.87190  0.81770  Biso   1.000  H
  H1649    1.0000 0.34560  0.08010  0.53990  Biso   1.000  H
  H1650    1.0000 0.65440  0.91990  0.53990  Biso   1.000  H
  H1651    1.0000 0.59560  0.16990  0.78990  Biso   1.000  H
  H1652    1.0000 0.90440  0.33010  0.78990  Biso   1.000  H
  H1653    1.0000 0.34560  0.58010  0.03990  Biso   1.000  H
  H1654    1.0000 0.65440  0.41990  0.03990  Biso   1.000  H
  H1655    1.0000 0.59560  0.66990  0.28990  Biso   1.000  H
  H1656    1.0000 0.90440  0.83010  0.28990  Biso   1.000  H
  H1657    1.0000 0.84560  0.08010  0.03990  Biso   1.000  H
  H1658    1.0000 0.15440  0.91990  0.03990  Biso   1.000  H
  H1659    1.0000 0.09560  0.16990  0.28990  Biso   1.000  H
  H1660    1.0000 0.40440  0.33010  0.28990  Biso   1.000  H
  H1661    1.0000 0.84560  0.58010  0.53990  Biso   1.000  H
  H1662    1.0000 0.15440  0.41990  0.53990  Biso   1.000  H
  H1663    1.0000 0.09560  0.66990  0.78990  Biso   1.000  H
  H1664    1.0000 0.40440  0.83010  0.78990  Biso   1.000  H
  C913     1.0000 0.38340  0.12190  0.55500  Biso   1.000  C
  C914     1.0000 0.61660  0.87810  0.55500  Biso   1.000  C
  C915     1.0000 0.63340  0.12810  0.80500  Biso   1.000  C
  C916     1.0000 0.86660  0.37190  0.80500  Biso   1.000  C
  C917     1.0000 0.38340  0.62190  0.05500  Biso   1.000  C
  C918     1.0000 0.61660  0.37810  0.05500  Biso   1.000  C
  C919     1.0000 0.63340  0.62810  0.30500  Biso   1.000  C
  C920     1.0000 0.86660  0.87190  0.30500  Biso   1.000  C
  C921     1.0000 0.88340  0.12190  0.05500  Biso   1.000  C
  C922     1.0000 0.11660  0.87810  0.05500  Biso   1.000  C
  C923     1.0000 0.13340  0.12810  0.30500  Biso   1.000  C
  C924     1.0000 0.36660  0.37190  0.30500  Biso   1.000  C
  C925     1.0000 0.88340  0.62190  0.55500  Biso   1.000  C
  C926     1.0000 0.11660  0.37810  0.55500  Biso   1.000  C
  C927     1.0000 0.13340  0.62810  0.80500  Biso   1.000  C
  C928     1.0000 0.36660  0.87190  0.80500  Biso   1.000  C
  H1665    1.0000 0.39910  0.09720  0.54790  Biso   1.000  H
  H1666    1.0000 0.60090  0.90280  0.54790  Biso   1.000  H
  H1667    1.0000 0.64910  0.15280  0.79790  Biso   1.000  H
  H1668    1.0000 0.85090  0.34720  0.79790  Biso   1.000  H
  H1669    1.0000 0.39910  0.59720  0.04790  Biso   1.000  H
  H1670    1.0000 0.60090  0.40280  0.04790  Biso   1.000  H
  H1671    1.0000 0.64910  0.65280  0.29790  Biso   1.000  H
  H1672    1.0000 0.85090  0.84720  0.29790  Biso   1.000  H
  H1673    1.0000 0.89910  0.09720  0.04790  Biso   1.000  H
  H1674    1.0000 0.10090  0.90280  0.04790  Biso   1.000  H
  H1675    1.0000 0.14910  0.15280  0.29790  Biso   1.000  H
  H1676    1.0000 0.35090  0.34720  0.29790  Biso   1.000  H
  H1677    1.0000 0.89910  0.59720  0.54790  Biso   1.000  H
  H1678    1.0000 0.10090  0.40280  0.54790  Biso   1.000  H
  H1679    1.0000 0.14910  0.65280  0.79790  Biso   1.000  H
  H1680    1.0000 0.35090  0.84720  0.79790  Biso   1.000  H
  H1681    1.0000 0.39050  0.13950  0.57570  Biso   1.000  H
  H1682    1.0000 0.60950  0.86050  0.57570  Biso   1.000  H
  H1683    1.0000 0.64050  0.11050  0.82570  Biso   1.000  H
  H1684    1.0000 0.85950  0.38950  0.82570  Biso   1.000  H
  H1685    1.0000 0.39050  0.63950  0.07570  Biso   1.000  H
  H1686    1.0000 0.60950  0.36050  0.07570  Biso   1.000  H
  H1687    1.0000 0.64050  0.61050  0.32570  Biso   1.000  H
  H1688    1.0000 0.85950  0.88950  0.32570  Biso   1.000  H
  H1689    1.0000 0.89050  0.13950  0.07570  Biso   1.000  H
  H1690    1.0000 0.10950  0.86050  0.07570  Biso   1.000  H
  H1691    1.0000 0.14050  0.11050  0.32570  Biso   1.000  H
  H1692    1.0000 0.35950  0.38950  0.32570  Biso   1.000  H
  H1693    1.0000 0.89050  0.63950  0.57570  Biso   1.000  H
  H1694    1.0000 0.10950  0.36050  0.57570  Biso   1.000  H
  H1695    1.0000 0.14050  0.61050  0.82570  Biso   1.000  H
  H1696    1.0000 0.35950  0.88950  0.82570  Biso   1.000  H
  C929     1.0000 0.37640  0.16060  0.52540  Biso   1.000  C
  C930     1.0000 0.62360  0.83940  0.52540  Biso   1.000  C
  C931     1.0000 0.62640  0.08940  0.77540  Biso   1.000  C
  C932     1.0000 0.87360  0.41060  0.77540  Biso   1.000  C
  C933     1.0000 0.37640  0.66060  0.02540  Biso   1.000  C
  C934     1.0000 0.62360  0.33940  0.02540  Biso   1.000  C
  C935     1.0000 0.62640  0.58940  0.27540  Biso   1.000  C
  C936     1.0000 0.87360  0.91060  0.27540  Biso   1.000  C
  C937     1.0000 0.87640  0.16060  0.02540  Biso   1.000  C
  C938     1.0000 0.12360  0.83940  0.02540  Biso   1.000  C
  C939     1.0000 0.12640  0.08940  0.27540  Biso   1.000  C
  C940     1.0000 0.37360  0.41060  0.27540  Biso   1.000  C
  C941     1.0000 0.87640  0.66060  0.52540  Biso   1.000  C
  C942     1.0000 0.12360  0.33940  0.52540  Biso   1.000  C
  C943     1.0000 0.12640  0.58940  0.77540  Biso   1.000  C
  C944     1.0000 0.37360  0.91060  0.77540  Biso   1.000  C
  H1697    1.0000 0.37010  0.14310  0.50430  Biso   1.000  H
  H1698    1.0000 0.62990  0.85690  0.50430  Biso   1.000  H
  H1699    1.0000 0.62010  0.10690  0.75430  Biso   1.000  H
  H1700    1.0000 0.87990  0.39310  0.75430  Biso   1.000  H
  H1701    1.0000 0.37010  0.64310  0.00430  Biso   1.000  H
  H1702    1.0000 0.62990  0.35690  0.00430  Biso   1.000  H
  H1703    1.0000 0.62010  0.60690  0.25430  Biso   1.000  H
  H1704    1.0000 0.87990  0.89310  0.25430  Biso   1.000  H
  H1705    1.0000 0.87010  0.14310  0.00430  Biso   1.000  H
  H1706    1.0000 0.12990  0.85690  0.00430  Biso   1.000  H
  H1707    1.0000 0.12010  0.10690  0.25430  Biso   1.000  H
  H1708    1.0000 0.37990  0.39310  0.25430  Biso   1.000  H
  H1709    1.0000 0.87010  0.64310  0.50430  Biso   1.000  H
  H1710    1.0000 0.12990  0.35690  0.50430  Biso   1.000  H
  H1711    1.0000 0.12010  0.60690  0.75430  Biso   1.000  H
  H1712    1.0000 0.37990  0.89310  0.75430  Biso   1.000  H
  H1713    1.0000 0.36020  0.18480  0.53210  Biso   1.000  H
  H1714    1.0000 0.63980  0.81520  0.53210  Biso   1.000  H
  H1715    1.0000 0.61020  0.06520  0.78210  Biso   1.000  H
  H1716    1.0000 0.88980  0.43480  0.78210  Biso   1.000  H
  H1717    1.0000 0.36020  0.68480  0.03210  Biso   1.000  H
  H1718    1.0000 0.63980  0.31520  0.03210  Biso   1.000  H
  H1719    1.0000 0.61020  0.56520  0.28210  Biso   1.000  H
  H1720    1.0000 0.88980  0.93480  0.28210  Biso   1.000  H
  H1721    1.0000 0.86020  0.18480  0.03210  Biso   1.000  H
  H1722    1.0000 0.13980  0.81520  0.03210  Biso   1.000  H
  H1723    1.0000 0.11020  0.06520  0.28210  Biso   1.000  H
  H1724    1.0000 0.38980  0.43480  0.28210  Biso   1.000  H
  H1725    1.0000 0.86020  0.68480  0.53210  Biso   1.000  H
  H1726    1.0000 0.13980  0.31520  0.53210  Biso   1.000  H
  H1727    1.0000 0.11020  0.56520  0.78210  Biso   1.000  H
  H1728    1.0000 0.38980  0.93480  0.78210  Biso   1.000  H
  C945     1.0000 0.40680  0.18660  0.52100  Biso   1.000  C
  C946     1.0000 0.59320  0.81340  0.52100  Biso   1.000  C
  C947     1.0000 0.65680  0.06340  0.77100  Biso   1.000  C
  C948     1.0000 0.84320  0.43660  0.77100  Biso   1.000  C
  C949     1.0000 0.40680  0.68660  0.02100  Biso   1.000  C
  C950     1.0000 0.59320  0.31340  0.02100  Biso   1.000  C
  C951     1.0000 0.65680  0.56340  0.27100  Biso   1.000  C
  C952     1.0000 0.84320  0.93660  0.27100  Biso   1.000  C
  C953     1.0000 0.90680  0.18660  0.02100  Biso   1.000  C
  C954     1.0000 0.09320  0.81340  0.02100  Biso   1.000  C
  C955     1.0000 0.15680  0.06340  0.27100  Biso   1.000  C
  C956     1.0000 0.34320  0.43660  0.27100  Biso   1.000  C
  C957     1.0000 0.90680  0.68660  0.52100  Biso   1.000  C
  C958     1.0000 0.09320  0.31340  0.52100  Biso   1.000  C
  C959     1.0000 0.15680  0.56340  0.77100  Biso   1.000  C
  C960     1.0000 0.34320  0.93660  0.77100  Biso   1.000  C
  H1729    1.0000 0.40510  0.21230  0.50320  Biso   1.000  H
  H1730    1.0000 0.59490  0.78770  0.50320  Biso   1.000  H
  H1731    1.0000 0.65510  0.03770  0.75320  Biso   1.000  H
  H1732    1.0000 0.84490  0.46230  0.75320  Biso   1.000  H
  H1733    1.0000 0.40510  0.71230  0.00320  Biso   1.000  H
  H1734    1.0000 0.59490  0.28770  0.00320  Biso   1.000  H
  H1735    1.0000 0.65510  0.53770  0.25320  Biso   1.000  H
  H1736    1.0000 0.84490  0.96230  0.25320  Biso   1.000  H
  H1737    1.0000 0.90510  0.21230  0.00320  Biso   1.000  H
  H1738    1.0000 0.09490  0.78770  0.00320  Biso   1.000  H
  H1739    1.0000 0.15510  0.03770  0.25320  Biso   1.000  H
  H1740    1.0000 0.34490  0.46230  0.25320  Biso   1.000  H
  H1741    1.0000 0.90510  0.71230  0.50320  Biso   1.000  H
  H1742    1.0000 0.09490  0.28770  0.50320  Biso   1.000  H
  H1743    1.0000 0.15510  0.53770  0.75320  Biso   1.000  H
  H1744    1.0000 0.34490  0.96230  0.75320  Biso   1.000  H
  H1745    1.0000 0.42230  0.16180  0.51440  Biso   1.000  H
  H1746    1.0000 0.57770  0.83820  0.51440  Biso   1.000  H
  H1747    1.0000 0.67230  0.08820  0.76440  Biso   1.000  H
  H1748    1.0000 0.82770  0.41180  0.76440  Biso   1.000  H
  H1749    1.0000 0.42230  0.66180  0.01440  Biso   1.000  H
  H1750    1.0000 0.57770  0.33820  0.01440  Biso   1.000  H
  H1751    1.0000 0.67230  0.58820  0.26440  Biso   1.000  H
  H1752    1.0000 0.82770  0.91180  0.26440  Biso   1.000  H
  H1753    1.0000 0.92230  0.16180  0.01440  Biso   1.000  H
  H1754    1.0000 0.07770  0.83820  0.01440  Biso   1.000  H
  H1755    1.0000 0.17230  0.08820  0.26440  Biso   1.000  H
  H1756    1.0000 0.32770  0.41180  0.26440  Biso   1.000  H
  H1757    1.0000 0.92230  0.66180  0.51440  Biso   1.000  H
  H1758    1.0000 0.07770  0.33820  0.51440  Biso   1.000  H
  H1759    1.0000 0.17230  0.58820  0.76440  Biso   1.000  H
  H1760    1.0000 0.32770  0.91180  0.76440  Biso   1.000  H
  H1761    1.0000 0.41280  0.20250  0.54250  Biso   1.000  H
  H1762    1.0000 0.58720  0.79750  0.54250  Biso   1.000  H
  H1763    1.0000 0.66280  0.04750  0.79250  Biso   1.000  H
  H1764    1.0000 0.83720  0.45250  0.79250  Biso   1.000  H
  H1765    1.0000 0.41280  0.70250  0.04250  Biso   1.000  H
  H1766    1.0000 0.58720  0.29750  0.04250  Biso   1.000  H
  H1767    1.0000 0.66280  0.54750  0.29250  Biso   1.000  H
  H1768    1.0000 0.83720  0.95250  0.29250  Biso   1.000  H
  H1769    1.0000 0.91280  0.20250  0.04250  Biso   1.000  H
  H1770    1.0000 0.08720  0.79750  0.04250  Biso   1.000  H
  H1771    1.0000 0.16280  0.04750  0.29250  Biso   1.000  H
  H1772    1.0000 0.33720  0.45250  0.29250  Biso   1.000  H
  H1773    1.0000 0.91280  0.70250  0.54250  Biso   1.000  H
  H1774    1.0000 0.08720  0.29750  0.54250  Biso   1.000  H
  H1775    1.0000 0.16280  0.54750  0.79250  Biso   1.000  H
  H1776    1.0000 0.33720  0.95250  0.79250  Biso   1.000  H
  C961     1.0000 0.35540  0.02180  0.63580  Biso   1.000  C
  C962     1.0000 0.64460  0.97820  0.63580  Biso   1.000  C
  C963     1.0000 0.60540  0.22820  0.88580  Biso   1.000  C
  C964     1.0000 0.89460  0.27180  0.88580  Biso   1.000  C
  C965     1.0000 0.35540  0.52180  0.13580  Biso   1.000  C
  C966     1.0000 0.64460  0.47820  0.13580  Biso   1.000  C
  C967     1.0000 0.60540  0.72820  0.38580  Biso   1.000  C
  C968     1.0000 0.89460  0.77180  0.38580  Biso   1.000  C
  C969     1.0000 0.85540  0.02180  0.13580  Biso   1.000  C
  C970     1.0000 0.14460  0.97820  0.13580  Biso   1.000  C
  C971     1.0000 0.10540  0.22820  0.38580  Biso   1.000  C
  C972     1.0000 0.39460  0.27180  0.38580  Biso   1.000  C
  C973     1.0000 0.85540  0.52180  0.63580  Biso   1.000  C
  C974     1.0000 0.14460  0.47820  0.63580  Biso   1.000  C
  C975     1.0000 0.10540  0.72820  0.88580  Biso   1.000  C
  C976     1.0000 0.39460  0.77180  0.88580  Biso   1.000  C
  C977     1.0000 0.34600  0.01270  0.67070  Biso   1.000  C
  C978     1.0000 0.65400  0.98730  0.67070  Biso   1.000  C
  C979     1.0000 0.59600  0.23730  0.92070  Biso   1.000  C
  C980     1.0000 0.90400  0.26270  0.92070  Biso   1.000  C
  C981     1.0000 0.34600  0.51270  0.17070  Biso   1.000  C
  C982     1.0000 0.65400  0.48730  0.17070  Biso   1.000  C
  C983     1.0000 0.59600  0.73730  0.42070  Biso   1.000  C
  C984     1.0000 0.90400  0.76270  0.42070  Biso   1.000  C
  C985     1.0000 0.84600  0.01270  0.17070  Biso   1.000  C
  C986     1.0000 0.15400  0.98730  0.17070  Biso   1.000  C
  C987     1.0000 0.09600  0.23730  0.42070  Biso   1.000  C
  C988     1.0000 0.40400  0.26270  0.42070  Biso   1.000  C
  C989     1.0000 0.84600  0.51270  0.67070  Biso   1.000  C
  C990     1.0000 0.15400  0.48730  0.67070  Biso   1.000  C
  C991     1.0000 0.09600  0.73730  0.92070  Biso   1.000  C
  C992     1.0000 0.40400  0.76270  0.92070  Biso   1.000  C
  H1777    1.0000 0.35910  0.03440  0.68520  Biso   1.000  H
  H1778    1.0000 0.64090  0.96560  0.68520  Biso   1.000  H
  H1779    1.0000 0.60910  0.21560  0.93520  Biso   1.000  H
  H1780    1.0000 0.89090  0.28440  0.93520  Biso   1.000  H
  H1781    1.0000 0.35910  0.53440  0.18520  Biso   1.000  H
  H1782    1.0000 0.64090  0.46560  0.18520  Biso   1.000  H
  H1783    1.0000 0.60910  0.71560  0.43520  Biso   1.000  H
  H1784    1.0000 0.89090  0.78440  0.43520  Biso   1.000  H
  H1785    1.0000 0.85910  0.03440  0.18520  Biso   1.000  H
  H1786    1.0000 0.14090  0.96560  0.18520  Biso   1.000  H
  H1787    1.0000 0.10910  0.21560  0.43520  Biso   1.000  H
  H1788    1.0000 0.39090  0.28440  0.43520  Biso   1.000  H
  H1789    1.0000 0.85910  0.53440  0.68520  Biso   1.000  H
  H1790    1.0000 0.14090  0.46560  0.68520  Biso   1.000  H
  H1791    1.0000 0.10910  0.71560  0.93520  Biso   1.000  H
  H1792    1.0000 0.39090  0.78440  0.93520  Biso   1.000  H
  H1793    1.0000 0.35170  0.97750  0.67590  Biso   1.000  H
  H1794    1.0000 0.64830  0.02250  0.67590  Biso   1.000  H
  H1795    1.0000 0.60170  0.27250  0.92590  Biso   1.000  H
  H1796    1.0000 0.89830  0.22750  0.92590  Biso   1.000  H
  H1797    1.0000 0.35170  0.47750  0.17590  Biso   1.000  H
  H1798    1.0000 0.64830  0.52250  0.17590  Biso   1.000  H
  H1799    1.0000 0.60170  0.77250  0.42590  Biso   1.000  H
  H1800    1.0000 0.89830  0.72750  0.42590  Biso   1.000  H
  H1801    1.0000 0.85170  0.97750  0.17590  Biso   1.000  H
  H1802    1.0000 0.14830  0.02250  0.17590  Biso   1.000  H
  H1803    1.0000 0.10170  0.27250  0.42590  Biso   1.000  H
  H1804    1.0000 0.39830  0.22750  0.42590  Biso   1.000  H
  H1805    1.0000 0.85170  0.47750  0.67590  Biso   1.000  H
  H1806    1.0000 0.14830  0.52250  0.67590  Biso   1.000  H
  H1807    1.0000 0.10170  0.77250  0.92590  Biso   1.000  H
  H1808    1.0000 0.39830  0.72750  0.92590  Biso   1.000  H
  C993     1.0000 0.31350  0.01950  0.68360  Biso   1.000  C
  C994     1.0000 0.68650  0.98050  0.68360  Biso   1.000  C
  C995     1.0000 0.56350  0.23050  0.93360  Biso   1.000  C
  C996     1.0000 0.93650  0.26950  0.93360  Biso   1.000  C
  C997     1.0000 0.31350  0.51950  0.18360  Biso   1.000  C
  C998     1.0000 0.68650  0.48050  0.18360  Biso   1.000  C
  C999     1.0000 0.56350  0.73050  0.43360  Biso   1.000  C
  C1000    1.0000 0.93650  0.76950  0.43360  Biso   1.000  C
  C1001    1.0000 0.81350  0.01950  0.18360  Biso   1.000  C
  C1002    1.0000 0.18650  0.98050  0.18360  Biso   1.000  C
  C1003    1.0000 0.06350  0.23050  0.43360  Biso   1.000  C
  C1004    1.0000 0.43650  0.26950  0.43360  Biso   1.000  C
  C1005    1.0000 0.81350  0.51950  0.68360  Biso   1.000  C
  C1006    1.0000 0.18650  0.48050  0.68360  Biso   1.000  C
  C1007    1.0000 0.06350  0.73050  0.93360  Biso   1.000  C
  C1008    1.0000 0.43650  0.76950  0.93360  Biso   1.000  C
  H1809    1.0000 0.31360  0.01970  0.70880  Biso   1.000  H
  H1810    1.0000 0.68640  0.98030  0.70880  Biso   1.000  H
  H1811    1.0000 0.56360  0.23030  0.95880  Biso   1.000  H
  H1812    1.0000 0.93640  0.26970  0.95880  Biso   1.000  H
  H1813    1.0000 0.31360  0.51970  0.20880  Biso   1.000  H
  H1814    1.0000 0.68640  0.48030  0.20880  Biso   1.000  H
  H1815    1.0000 0.56360  0.73030  0.45880  Biso   1.000  H
  H1816    1.0000 0.93640  0.76970  0.45880  Biso   1.000  H
  H1817    1.0000 0.81360  0.01970  0.20880  Biso   1.000  H
  H1818    1.0000 0.18640  0.98030  0.20880  Biso   1.000  H
  H1819    1.0000 0.06360  0.23030  0.45880  Biso   1.000  H
  H1820    1.0000 0.43640  0.26970  0.45880  Biso   1.000  H
  H1821    1.0000 0.81360  0.51970  0.70880  Biso   1.000  H
  H1822    1.0000 0.18640  0.48030  0.70880  Biso   1.000  H
  H1823    1.0000 0.06360  0.73030  0.95880  Biso   1.000  H
  H1824    1.0000 0.43640  0.76970  0.95880  Biso   1.000  H
  H1825    1.0000 0.30540  0.05230  0.67580  Biso   1.000  H
  H1826    1.0000 0.69460  0.94770  0.67580  Biso   1.000  H
  H1827    1.0000 0.55540  0.19770  0.92580  Biso   1.000  H
  H1828    1.0000 0.94460  0.30230  0.92580  Biso   1.000  H
  H1829    1.0000 0.30540  0.55230  0.17580  Biso   1.000  H
  H1830    1.0000 0.69460  0.44770  0.17580  Biso   1.000  H
  H1831    1.0000 0.55540  0.69770  0.42580  Biso   1.000  H
  H1832    1.0000 0.94460  0.80230  0.42580  Biso   1.000  H
  H1833    1.0000 0.80540  0.05230  0.17580  Biso   1.000  H
  H1834    1.0000 0.19460  0.94770  0.17580  Biso   1.000  H
  H1835    1.0000 0.05540  0.19770  0.42580  Biso   1.000  H
  H1836    1.0000 0.44460  0.30230  0.42580  Biso   1.000  H
  H1837    1.0000 0.80540  0.55230  0.67580  Biso   1.000  H
  H1838    1.0000 0.19460  0.44770  0.67580  Biso   1.000  H
  H1839    1.0000 0.05540  0.69770  0.92580  Biso   1.000  H
  H1840    1.0000 0.44460  0.80230  0.92580  Biso   1.000  H
  C1009    1.0000 0.29290  0.97780  0.67120  Biso   1.000  C
  C1010    1.0000 0.70710  0.02220  0.67120  Biso   1.000  C
  C1011    1.0000 0.54290  0.27220  0.92120  Biso   1.000  C
  C1012    1.0000 0.95710  0.22780  0.92120  Biso   1.000  C
  C1013    1.0000 0.29290  0.47780  0.17120  Biso   1.000  C
  C1014    1.0000 0.70710  0.52220  0.17120  Biso   1.000  C
  C1015    1.0000 0.54290  0.77220  0.42120  Biso   1.000  C
  C1016    1.0000 0.95710  0.72780  0.42120  Biso   1.000  C
  C1017    1.0000 0.79290  0.97780  0.17120  Biso   1.000  C
  C1018    1.0000 0.20710  0.02220  0.17120  Biso   1.000  C
  C1019    1.0000 0.04290  0.27220  0.42120  Biso   1.000  C
  C1020    1.0000 0.45710  0.22780  0.42120  Biso   1.000  C
  C1021    1.0000 0.79290  0.47780  0.67120  Biso   1.000  C
  C1022    1.0000 0.20710  0.52220  0.67120  Biso   1.000  C
  C1023    1.0000 0.04290  0.77220  0.92120  Biso   1.000  C
  C1024    1.0000 0.45710  0.72780  0.92120  Biso   1.000  C
  H1841    1.0000 0.30120  0.94550  0.67960  Biso   1.000  H
  H1842    1.0000 0.69880  0.05450  0.67960  Biso   1.000  H
  H1843    1.0000 0.55120  0.30450  0.92960  Biso   1.000  H
  H1844    1.0000 0.94880  0.19550  0.92960  Biso   1.000  H
  H1845    1.0000 0.30120  0.44550  0.17960  Biso   1.000  H
  H1846    1.0000 0.69880  0.55450  0.17960  Biso   1.000  H
  H1847    1.0000 0.55120  0.80450  0.42960  Biso   1.000  H
  H1848    1.0000 0.94880  0.69550  0.42960  Biso   1.000  H
  H1849    1.0000 0.80120  0.94550  0.17960  Biso   1.000  H
  H1850    1.0000 0.19880  0.05450  0.17960  Biso   1.000  H
  H1851    1.0000 0.05120  0.30450  0.42960  Biso   1.000  H
  H1852    1.0000 0.44880  0.19550  0.42960  Biso   1.000  H
  H1853    1.0000 0.80120  0.44550  0.67960  Biso   1.000  H
  H1854    1.0000 0.19880  0.55450  0.67960  Biso   1.000  H
  H1855    1.0000 0.05120  0.80450  0.92960  Biso   1.000  H
  H1856    1.0000 0.44880  0.69550  0.92960  Biso   1.000  H
  H1857    1.0000 0.29410  0.97700  0.64600  Biso   1.000  H
  H1858    1.0000 0.70590  0.02300  0.64600  Biso   1.000  H
  H1859    1.0000 0.54410  0.27300  0.89600  Biso   1.000  H
  H1860    1.0000 0.95590  0.22700  0.89600  Biso   1.000  H
  H1861    1.0000 0.29410  0.47700  0.14600  Biso   1.000  H
  H1862    1.0000 0.70590  0.52300  0.14600  Biso   1.000  H
  H1863    1.0000 0.54410  0.77300  0.39600  Biso   1.000  H
  H1864    1.0000 0.95590  0.72700  0.39600  Biso   1.000  H
  H1865    1.0000 0.79410  0.97700  0.14600  Biso   1.000  H
  H1866    1.0000 0.20590  0.02300  0.14600  Biso   1.000  H
  H1867    1.0000 0.04410  0.27300  0.39600  Biso   1.000  H
  H1868    1.0000 0.45590  0.22700  0.39600  Biso   1.000  H
  H1869    1.0000 0.79410  0.47700  0.64600  Biso   1.000  H
  H1870    1.0000 0.20590  0.52300  0.64600  Biso   1.000  H
  H1871    1.0000 0.04410  0.77300  0.89600  Biso   1.000  H
  H1872    1.0000 0.45590  0.72700  0.89600  Biso   1.000  H
  C1025    1.0000 0.25860  0.98060  0.68140  Biso   1.000  C
  C1026    1.0000 0.74140  0.01940  0.68140  Biso   1.000  C
  C1027    1.0000 0.50860  0.26940  0.93140  Biso   1.000  C
  C1028    1.0000 0.99140  0.23060  0.93140  Biso   1.000  C
  C1029    1.0000 0.25860  0.48060  0.18140  Biso   1.000  C
  C1030    1.0000 0.74140  0.51940  0.18140  Biso   1.000  C
  C1031    1.0000 0.50860  0.76940  0.43140  Biso   1.000  C
  C1032    1.0000 0.99140  0.73060  0.43140  Biso   1.000  C
  C1033    1.0000 0.75860  0.98060  0.18140  Biso   1.000  C
  C1034    1.0000 0.24140  0.01940  0.18140  Biso   1.000  C
  C1035    1.0000 0.00860  0.26940  0.43140  Biso   1.000  C
  C1036    1.0000 0.49140  0.23060  0.43140  Biso   1.000  C
  C1037    1.0000 0.75860  0.48060  0.68140  Biso   1.000  C
  C1038    1.0000 0.24140  0.51940  0.68140  Biso   1.000  C
  C1039    1.0000 0.00860  0.76940  0.93140  Biso   1.000  C
  C1040    1.0000 0.49140  0.73060  0.93140  Biso   1.000  C
  H1873    1.0000 0.24770  0.95130  0.67230  Biso   1.000  H
  H1874    1.0000 0.75230  0.04870  0.67230  Biso   1.000  H
  H1875    1.0000 0.49770  0.29870  0.92230  Biso   1.000  H
  H1876    1.0000 0.00230  0.20130  0.92230  Biso   1.000  H
  H1877    1.0000 0.24770  0.45130  0.17230  Biso   1.000  H
  H1878    1.0000 0.75230  0.54870  0.17230  Biso   1.000  H
  H1879    1.0000 0.49770  0.79870  0.42230  Biso   1.000  H
  H1880    1.0000 0.00230  0.70130  0.42230  Biso   1.000  H
  H1881    1.0000 0.74770  0.95130  0.17230  Biso   1.000  H
  H1882    1.0000 0.25230  0.04870  0.17230  Biso   1.000  H
  H1883    1.0000 0.99770  0.29870  0.42230  Biso   1.000  H
  H1884    1.0000 0.50230  0.20130  0.42230  Biso   1.000  H
  H1885    1.0000 0.74770  0.45130  0.67230  Biso   1.000  H
  H1886    1.0000 0.25230  0.54870  0.67230  Biso   1.000  H
  H1887    1.0000 0.99770  0.79870  0.92230  Biso   1.000  H
  H1888    1.0000 0.50230  0.70130  0.92230  Biso   1.000  H
  H1889    1.0000 0.24950  0.01140  0.67220  Biso   1.000  H
  H1890    1.0000 0.75050  0.98860  0.67220  Biso   1.000  H
  H1891    1.0000 0.49950  0.23860  0.92220  Biso   1.000  H
  H1892    1.0000 0.00050  0.26140  0.92220  Biso   1.000  H
  H1893    1.0000 0.24950  0.51140  0.17220  Biso   1.000  H
  H1894    1.0000 0.75050  0.48860  0.17220  Biso   1.000  H
  H1895    1.0000 0.49950  0.73860  0.42220  Biso   1.000  H
  H1896    1.0000 0.00050  0.76140  0.42220  Biso   1.000  H
  H1897    1.0000 0.74950  0.01140  0.17220  Biso   1.000  H
  H1898    1.0000 0.25050  0.98860  0.17220  Biso   1.000  H
  H1899    1.0000 0.99950  0.23860  0.42220  Biso   1.000  H
  H1900    1.0000 0.50050  0.26140  0.42220  Biso   1.000  H
  H1901    1.0000 0.74950  0.51140  0.67220  Biso   1.000  H
  H1902    1.0000 0.25050  0.48860  0.67220  Biso   1.000  H
  H1903    1.0000 0.99950  0.73860  0.92220  Biso   1.000  H
  H1904    1.0000 0.50050  0.76140  0.92220  Biso   1.000  H
  H1905    1.0000 0.25680  0.98090  0.70630  Biso   1.000  H
  H1906    1.0000 0.74320  0.01910  0.70630  Biso   1.000  H
  H1907    1.0000 0.50680  0.26910  0.95630  Biso   1.000  H
  H1908    1.0000 0.99320  0.23090  0.95630  Biso   1.000  H
  H1909    1.0000 0.25680  0.48090  0.20630  Biso   1.000  H
  H1910    1.0000 0.74320  0.51910  0.20630  Biso   1.000  H
  H1911    1.0000 0.50680  0.76910  0.45630  Biso   1.000  H
  H1912    1.0000 0.99320  0.73090  0.45630  Biso   1.000  H
  H1913    1.0000 0.75680  0.98090  0.20630  Biso   1.000  H
  H1914    1.0000 0.24320  0.01910  0.20630  Biso   1.000  H
  H1915    1.0000 0.00680  0.26910  0.45630  Biso   1.000  H
  H1916    1.0000 0.49320  0.23090  0.45630  Biso   1.000  H
  H1917    1.0000 0.75680  0.48090  0.70630  Biso   1.000  H
  H1918    1.0000 0.24320  0.51910  0.70630  Biso   1.000  H
  H1919    1.0000 0.00680  0.76910  0.95630  Biso   1.000  H
  H1920    1.0000 0.49320  0.73090  0.95630  Biso   1.000  H
  C1041    1.0000 0.36710  0.51070  0.17530  Biso   1.000  C
  C1042    1.0000 0.63290  0.48930  0.17530  Biso   1.000  C
  C1043    1.0000 0.61710  0.73930  0.42530  Biso   1.000  C
  C1044    1.0000 0.88290  0.76070  0.42530  Biso   1.000  C
  C1045    1.0000 0.36710  0.01070  0.67530  Biso   1.000  C
  C1046    1.0000 0.63290  0.98930  0.67530  Biso   1.000  C
  C1047    1.0000 0.61710  0.23930  0.92530  Biso   1.000  C
  C1048    1.0000 0.88290  0.26070  0.92530  Biso   1.000  C
  C1049    1.0000 0.86710  0.51070  0.67530  Biso   1.000  C
  C1050    1.0000 0.13290  0.48930  0.67530  Biso   1.000  C
  C1051    1.0000 0.11710  0.73930  0.92530  Biso   1.000  C
  C1052    1.0000 0.38290  0.76070  0.92530  Biso   1.000  C
  C1053    1.0000 0.86710  0.01070  0.17530  Biso   1.000  C
  C1054    1.0000 0.13290  0.98930  0.17530  Biso   1.000  C
  C1055    1.0000 0.11710  0.23930  0.42530  Biso   1.000  C
  C1056    1.0000 0.38290  0.26070  0.42530  Biso   1.000  C
  H1921    1.0000 0.35160  0.52410  0.19130  Biso   1.000  H
  H1922    1.0000 0.64840  0.47590  0.19130  Biso   1.000  H
  H1923    1.0000 0.60160  0.72590  0.44130  Biso   1.000  H
  H1924    1.0000 0.89840  0.77410  0.44130  Biso   1.000  H
  H1925    1.0000 0.35160  0.02410  0.69130  Biso   1.000  H
  H1926    1.0000 0.64840  0.97590  0.69130  Biso   1.000  H
  H1927    1.0000 0.60160  0.22590  0.94130  Biso   1.000  H
  H1928    1.0000 0.89840  0.27410  0.94130  Biso   1.000  H
  H1929    1.0000 0.85160  0.52410  0.69130  Biso   1.000  H
  H1930    1.0000 0.14840  0.47590  0.69130  Biso   1.000  H
  H1931    1.0000 0.10160  0.72590  0.94130  Biso   1.000  H
  H1932    1.0000 0.39840  0.77410  0.94130  Biso   1.000  H
  H1933    1.0000 0.85160  0.02410  0.19130  Biso   1.000  H
  H1934    1.0000 0.14840  0.97590  0.19130  Biso   1.000  H
  H1935    1.0000 0.10160  0.22590  0.44130  Biso   1.000  H
  H1936    1.0000 0.39840  0.27410  0.44130  Biso   1.000  H
  H1937    1.0000 0.36820  0.47390  0.17870  Biso   1.000  H
  H1938    1.0000 0.63180  0.52610  0.17870  Biso   1.000  H
  H1939    1.0000 0.61820  0.77610  0.42870  Biso   1.000  H
  H1940    1.0000 0.88180  0.72390  0.42870  Biso   1.000  H
  H1941    1.0000 0.36820  0.97390  0.67870  Biso   1.000  H
  H1942    1.0000 0.63180  0.02610  0.67870  Biso   1.000  H
  H1943    1.0000 0.61820  0.27610  0.92870  Biso   1.000  H
  H1944    1.0000 0.88180  0.22390  0.92870  Biso   1.000  H
  H1945    1.0000 0.86820  0.47390  0.67870  Biso   1.000  H
  H1946    1.0000 0.13180  0.52610  0.67870  Biso   1.000  H
  H1947    1.0000 0.11820  0.77610  0.92870  Biso   1.000  H
  H1948    1.0000 0.38180  0.72390  0.92870  Biso   1.000  H
  H1949    1.0000 0.86820  0.97390  0.17870  Biso   1.000  H
  H1950    1.0000 0.13180  0.02610  0.17870  Biso   1.000  H
  H1951    1.0000 0.11820  0.27610  0.42870  Biso   1.000  H
  H1952    1.0000 0.38180  0.22390  0.42870  Biso   1.000  H
  C1057    1.0000 0.39790  0.53360  0.18380  Biso   1.000  C
  C1058    1.0000 0.60210  0.46640  0.18380  Biso   1.000  C
  C1059    1.0000 0.64790  0.71640  0.43380  Biso   1.000  C
  C1060    1.0000 0.85210  0.78360  0.43380  Biso   1.000  C
  C1061    1.0000 0.39790  0.03360  0.68380  Biso   1.000  C
  C1062    1.0000 0.60210  0.96640  0.68380  Biso   1.000  C
  C1063    1.0000 0.64790  0.21640  0.93380  Biso   1.000  C
  C1064    1.0000 0.85210  0.28360  0.93380  Biso   1.000  C
  C1065    1.0000 0.89790  0.53360  0.68380  Biso   1.000  C
  C1066    1.0000 0.10210  0.46640  0.68380  Biso   1.000  C
  C1067    1.0000 0.14790  0.71640  0.93380  Biso   1.000  C
  C1068    1.0000 0.35210  0.78360  0.93380  Biso   1.000  C
  C1069    1.0000 0.89790  0.03360  0.18380  Biso   1.000  C
  C1070    1.0000 0.10210  0.96640  0.18380  Biso   1.000  C
  C1071    1.0000 0.14790  0.21640  0.43380  Biso   1.000  C
  C1072    1.0000 0.35210  0.28360  0.43380  Biso   1.000  C
  H1953    1.0000 0.40010  0.53370  0.20890  Biso   1.000  H
  H1954    1.0000 0.59990  0.46630  0.20890  Biso   1.000  H
  H1955    1.0000 0.65010  0.71630  0.45890  Biso   1.000  H
  H1956    1.0000 0.84990  0.78370  0.45890  Biso   1.000  H
  H1957    1.0000 0.40010  0.03370  0.70890  Biso   1.000  H
  H1958    1.0000 0.59990  0.96630  0.70890  Biso   1.000  H
  H1959    1.0000 0.65010  0.21630  0.95890  Biso   1.000  H
  H1960    1.0000 0.84990  0.28370  0.95890  Biso   1.000  H
  H1961    1.0000 0.90010  0.53370  0.70890  Biso   1.000  H
  H1962    1.0000 0.09990  0.46630  0.70890  Biso   1.000  H
  H1963    1.0000 0.15010  0.71630  0.95890  Biso   1.000  H
  H1964    1.0000 0.34990  0.78370  0.95890  Biso   1.000  H
  H1965    1.0000 0.90010  0.03370  0.20890  Biso   1.000  H
  H1966    1.0000 0.09990  0.96630  0.20890  Biso   1.000  H
  H1967    1.0000 0.15010  0.21630  0.45890  Biso   1.000  H
  H1968    1.0000 0.34990  0.28370  0.45890  Biso   1.000  H
  H1969    1.0000 0.39780  0.56910  0.17620  Biso   1.000  H
  H1970    1.0000 0.60220  0.43090  0.17620  Biso   1.000  H
  H1971    1.0000 0.64780  0.68090  0.42620  Biso   1.000  H
  H1972    1.0000 0.85220  0.81910  0.42620  Biso   1.000  H
  H1973    1.0000 0.39780  0.06910  0.67620  Biso   1.000  H
  H1974    1.0000 0.60220  0.93090  0.67620  Biso   1.000  H
  H1975    1.0000 0.64780  0.18090  0.92620  Biso   1.000  H
  H1976    1.0000 0.85220  0.31910  0.92620  Biso   1.000  H
  H1977    1.0000 0.89780  0.56910  0.67620  Biso   1.000  H
  H1978    1.0000 0.10220  0.43090  0.67620  Biso   1.000  H
  H1979    1.0000 0.14780  0.68090  0.92620  Biso   1.000  H
  H1980    1.0000 0.35220  0.81910  0.92620  Biso   1.000  H
  H1981    1.0000 0.89780  0.06910  0.17620  Biso   1.000  H
  H1982    1.0000 0.10220  0.93090  0.17620  Biso   1.000  H
  H1983    1.0000 0.14780  0.18090  0.42620  Biso   1.000  H
  H1984    1.0000 0.35220  0.31910  0.42620  Biso   1.000  H
  C1073    1.0000 0.42600  0.50810  0.16880  Biso   1.000  C
  C1074    1.0000 0.57400  0.49190  0.16880  Biso   1.000  C
  C1075    1.0000 0.67600  0.74190  0.41880  Biso   1.000  C
  C1076    1.0000 0.82400  0.75810  0.41880  Biso   1.000  C
  C1077    1.0000 0.42600  0.00810  0.66880  Biso   1.000  C
  C1078    1.0000 0.57400  0.99190  0.66880  Biso   1.000  C
  C1079    1.0000 0.67600  0.24190  0.91880  Biso   1.000  C
  C1080    1.0000 0.82400  0.25810  0.91880  Biso   1.000  C
  C1081    1.0000 0.92600  0.50810  0.66880  Biso   1.000  C
  C1082    1.0000 0.07400  0.49190  0.66880  Biso   1.000  C
  C1083    1.0000 0.17600  0.74190  0.91880  Biso   1.000  C
  C1084    1.0000 0.32400  0.75810  0.91880  Biso   1.000  C
  C1085    1.0000 0.92600  0.00810  0.16880  Biso   1.000  C
  C1086    1.0000 0.07400  0.99190  0.16880  Biso   1.000  C
  C1087    1.0000 0.17600  0.24190  0.41880  Biso   1.000  C
  C1088    1.0000 0.32400  0.25810  0.41880  Biso   1.000  C
  H1985    1.0000 0.42440  0.50610  0.14370  Biso   1.000  H
  H1986    1.0000 0.57560  0.49390  0.14370  Biso   1.000  H
  H1987    1.0000 0.67440  0.74390  0.39370  Biso   1.000  H
  H1988    1.0000 0.82560  0.75610  0.39370  Biso   1.000  H
  H1989    1.0000 0.42440  0.00610  0.64370  Biso   1.000  H
  H1990    1.0000 0.57560  0.99390  0.64370  Biso   1.000  H
  H1991    1.0000 0.67440  0.24390  0.89370  Biso   1.000  H
  H1992    1.0000 0.82560  0.25610  0.89370  Biso   1.000  H
  H1993    1.0000 0.92440  0.50610  0.64370  Biso   1.000  H
  H1994    1.0000 0.07560  0.49390  0.64370  Biso   1.000  H
  H1995    1.0000 0.17440  0.74390  0.89370  Biso   1.000  H
  H1996    1.0000 0.32560  0.75610  0.89370  Biso   1.000  H
  H1997    1.0000 0.92440  0.00610  0.14370  Biso   1.000  H
  H1998    1.0000 0.07560  0.99390  0.14370  Biso   1.000  H
  H1999    1.0000 0.17440  0.24390  0.39370  Biso   1.000  H
  H2000    1.0000 0.32560  0.25610  0.39370  Biso   1.000  H
  H2001    1.0000 0.42850  0.47370  0.17800  Biso   1.000  H
  H2002    1.0000 0.57150  0.52630  0.17800  Biso   1.000  H
  H2003    1.0000 0.67850  0.77630  0.42800  Biso   1.000  H
  H2004    1.0000 0.82150  0.72370  0.42800  Biso   1.000  H
  H2005    1.0000 0.42850  0.97370  0.67800  Biso   1.000  H
  H2006    1.0000 0.57150  0.02630  0.67800  Biso   1.000  H
  H2007    1.0000 0.67850  0.27630  0.92800  Biso   1.000  H
  H2008    1.0000 0.82150  0.22370  0.92800  Biso   1.000  H
  H2009    1.0000 0.92850  0.47370  0.67800  Biso   1.000  H
  H2010    1.0000 0.07150  0.52630  0.67800  Biso   1.000  H
  H2011    1.0000 0.17850  0.77630  0.92800  Biso   1.000  H
  H2012    1.0000 0.32150  0.72370  0.92800  Biso   1.000  H
  H2013    1.0000 0.92850  0.97370  0.17800  Biso   1.000  H
  H2014    1.0000 0.07150  0.02630  0.17800  Biso   1.000  H
  H2015    1.0000 0.17850  0.27630  0.42800  Biso   1.000  H
  H2016    1.0000 0.32150  0.22370  0.42800  Biso   1.000  H
  C1089    1.0000 0.45270  0.54200  0.17900  Biso   1.000  C
  C1090    1.0000 0.54730  0.45800  0.17900  Biso   1.000  C
  C1091    1.0000 0.70270  0.70800  0.42900  Biso   1.000  C
  C1092    1.0000 0.79730  0.79200  0.42900  Biso   1.000  C
  C1093    1.0000 0.45270  0.04200  0.67900  Biso   1.000  C
  C1094    1.0000 0.54730  0.95800  0.67900  Biso   1.000  C
  C1095    1.0000 0.70270  0.20800  0.92900  Biso   1.000  C
  C1096    1.0000 0.79730  0.29200  0.92900  Biso   1.000  C
  C1097    1.0000 0.95270  0.54200  0.67900  Biso   1.000  C
  C1098    1.0000 0.04730  0.45800  0.67900  Biso   1.000  C
  C1099    1.0000 0.20270  0.70800  0.92900  Biso   1.000  C
  C1100    1.0000 0.29730  0.79200  0.92900  Biso   1.000  C
  C1101    1.0000 0.95270  0.04200  0.17900  Biso   1.000  C
  C1102    1.0000 0.04730  0.95800  0.17900  Biso   1.000  C
  C1103    1.0000 0.20270  0.20800  0.42900  Biso   1.000  C
  C1104    1.0000 0.29730  0.29200  0.42900  Biso   1.000  C
  H2017    1.0000 0.47180  0.52760  0.17070  Biso   1.000  H
  H2018    1.0000 0.52820  0.47240  0.17070  Biso   1.000  H
  H2019    1.0000 0.72180  0.72240  0.42070  Biso   1.000  H
  H2020    1.0000 0.77820  0.77760  0.42070  Biso   1.000  H
  H2021    1.0000 0.47180  0.02760  0.67070  Biso   1.000  H
  H2022    1.0000 0.52820  0.97240  0.67070  Biso   1.000  H
  H2023    1.0000 0.72180  0.22240  0.92070  Biso   1.000  H
  H2024    1.0000 0.77820  0.27760  0.92070  Biso   1.000  H
  H2025    1.0000 0.97180  0.52760  0.67070  Biso   1.000  H
  H2026    1.0000 0.02820  0.47240  0.67070  Biso   1.000  H
  H2027    1.0000 0.22180  0.72240  0.92070  Biso   1.000  H
  H2028    1.0000 0.27820  0.77760  0.92070  Biso   1.000  H
  H2029    1.0000 0.97180  0.02760  0.17070  Biso   1.000  H
  H2030    1.0000 0.02820  0.97240  0.17070  Biso   1.000  H
  H2031    1.0000 0.22180  0.22240  0.42070  Biso   1.000  H
  H2032    1.0000 0.27820  0.27760  0.42070  Biso   1.000  H
  H2033    1.0000 0.45350  0.54380  0.20420  Biso   1.000  H
  H2034    1.0000 0.54650  0.45620  0.20420  Biso   1.000  H
  H2035    1.0000 0.70350  0.70620  0.45420  Biso   1.000  H
  H2036    1.0000 0.79650  0.79380  0.45420  Biso   1.000  H
  H2037    1.0000 0.45350  0.04380  0.70420  Biso   1.000  H
  H2038    1.0000 0.54650  0.95620  0.70420  Biso   1.000  H
  H2039    1.0000 0.70350  0.20620  0.95420  Biso   1.000  H
  H2040    1.0000 0.79650  0.29380  0.95420  Biso   1.000  H
  H2041    1.0000 0.95350  0.54380  0.70420  Biso   1.000  H
  H2042    1.0000 0.04650  0.45620  0.70420  Biso   1.000  H
  H2043    1.0000 0.20350  0.70620  0.95420  Biso   1.000  H
  H2044    1.0000 0.29650  0.79380  0.95420  Biso   1.000  H
  H2045    1.0000 0.95350  0.04380  0.20420  Biso   1.000  H
  H2046    1.0000 0.04650  0.95620  0.20420  Biso   1.000  H
  H2047    1.0000 0.20350  0.20620  0.45420  Biso   1.000  H
  H2048    1.0000 0.29650  0.29380  0.45420  Biso   1.000  H
  H2049    1.0000 0.44970  0.57560  0.16990  Biso   1.000  H
  H2050    1.0000 0.55030  0.42440  0.16990  Biso   1.000  H
  H2051    1.0000 0.69970  0.67440  0.41990  Biso   1.000  H
  H2052    1.0000 0.80030  0.82560  0.41990  Biso   1.000  H
  H2053    1.0000 0.44970  0.07560  0.66990  Biso   1.000  H
  H2054    1.0000 0.55030  0.92440  0.66990  Biso   1.000  H
  H2055    1.0000 0.69970  0.17440  0.91990  Biso   1.000  H
  H2056    1.0000 0.80030  0.32560  0.91990  Biso   1.000  H
  H2057    1.0000 0.94970  0.57560  0.66990  Biso   1.000  H
  H2058    1.0000 0.05030  0.42440  0.66990  Biso   1.000  H
  H2059    1.0000 0.19970  0.67440  0.91990  Biso   1.000  H
  H2060    1.0000 0.30030  0.82560  0.91990  Biso   1.000  H
  H2061    1.0000 0.94970  0.07560  0.16990  Biso   1.000  H
  H2062    1.0000 0.05030  0.92440  0.16990  Biso   1.000  H
  H2063    1.0000 0.19970  0.17440  0.41990  Biso   1.000  H
  H2064    1.0000 0.30030  0.32560  0.41990  Biso   1.000  H
  C1105    1.0000 0.44110  0.21720  0.77930  Biso   1.000  C
  C1106    1.0000 0.55890  0.78280  0.77930  Biso   1.000  C
  C1107    1.0000 0.69110  0.03280  0.02930  Biso   1.000  C
  C1108    1.0000 0.80890  0.46720  0.02930  Biso   1.000  C
  C1109    1.0000 0.44110  0.71720  0.27930  Biso   1.000  C
  C1110    1.0000 0.55890  0.28280  0.27930  Biso   1.000  C
  C1111    1.0000 0.69110  0.53280  0.52930  Biso   1.000  C
  C1112    1.0000 0.80890  0.96720  0.52930  Biso   1.000  C
  C1113    1.0000 0.94110  0.21720  0.27930  Biso   1.000  C
  C1114    1.0000 0.05890  0.78280  0.27930  Biso   1.000  C
  C1115    1.0000 0.19110  0.03280  0.52930  Biso   1.000  C
  C1116    1.0000 0.30890  0.46720  0.52930  Biso   1.000  C
  C1117    1.0000 0.94110  0.71720  0.77930  Biso   1.000  C
  C1118    1.0000 0.05890  0.28280  0.77930  Biso   1.000  C
  C1119    1.0000 0.19110  0.53280  0.02930  Biso   1.000  C
  C1120    1.0000 0.30890  0.96720  0.02930  Biso   1.000  C
  C1121    1.0000 0.45820  0.18310  0.80360  Biso   1.000  C
  C1122    1.0000 0.54180  0.81690  0.80360  Biso   1.000  C
  C1123    1.0000 0.70820  0.06690  0.05360  Biso   1.000  C
  C1124    1.0000 0.79180  0.43310  0.05360  Biso   1.000  C
  C1125    1.0000 0.45820  0.68310  0.30360  Biso   1.000  C
  C1126    1.0000 0.54180  0.31690  0.30360  Biso   1.000  C
  C1127    1.0000 0.70820  0.56690  0.55360  Biso   1.000  C
  C1128    1.0000 0.79180  0.93310  0.55360  Biso   1.000  C
  C1129    1.0000 0.95820  0.18310  0.30360  Biso   1.000  C
  C1130    1.0000 0.04180  0.81690  0.30360  Biso   1.000  C
  C1131    1.0000 0.20820  0.06690  0.55360  Biso   1.000  C
  C1132    1.0000 0.29180  0.43310  0.55360  Biso   1.000  C
  C1133    1.0000 0.95820  0.68310  0.80360  Biso   1.000  C
  C1134    1.0000 0.04180  0.31690  0.80360  Biso   1.000  C
  C1135    1.0000 0.20820  0.56690  0.05360  Biso   1.000  C
  C1136    1.0000 0.29180  0.93310  0.05360  Biso   1.000  C
  H2065    1.0000 0.44390  0.15760  0.81280  Biso   1.000  H
  H2066    1.0000 0.55610  0.84240  0.81280  Biso   1.000  H
  H2067    1.0000 0.69390  0.09240  0.06280  Biso   1.000  H
  H2068    1.0000 0.80610  0.40760  0.06280  Biso   1.000  H
  H2069    1.0000 0.44390  0.65760  0.31280  Biso   1.000  H
  H2070    1.0000 0.55610  0.34240  0.31280  Biso   1.000  H
  H2071    1.0000 0.69390  0.59240  0.56280  Biso   1.000  H
  H2072    1.0000 0.80610  0.90760  0.56280  Biso   1.000  H
  H2073    1.0000 0.94390  0.15760  0.31280  Biso   1.000  H
  H2074    1.0000 0.05610  0.84240  0.31280  Biso   1.000  H
  H2075    1.0000 0.19390  0.09240  0.56280  Biso   1.000  H
  H2076    1.0000 0.30610  0.40760  0.56280  Biso   1.000  H
  H2077    1.0000 0.94390  0.65760  0.81280  Biso   1.000  H
  H2078    1.0000 0.05610  0.34240  0.81280  Biso   1.000  H
  H2079    1.0000 0.19390  0.59240  0.06280  Biso   1.000  H
  H2080    1.0000 0.30610  0.90760  0.06280  Biso   1.000  H
  H2081    1.0000 0.47450  0.16520  0.79110  Biso   1.000  H
  H2082    1.0000 0.52550  0.83480  0.79110  Biso   1.000  H
  H2083    1.0000 0.72450  0.08480  0.04110  Biso   1.000  H
  H2084    1.0000 0.77550  0.41520  0.04110  Biso   1.000  H
  H2085    1.0000 0.47450  0.66520  0.29110  Biso   1.000  H
  H2086    1.0000 0.52550  0.33480  0.29110  Biso   1.000  H
  H2087    1.0000 0.72450  0.58480  0.54110  Biso   1.000  H
  H2088    1.0000 0.77550  0.91520  0.54110  Biso   1.000  H
  H2089    1.0000 0.97450  0.16520  0.29110  Biso   1.000  H
  H2090    1.0000 0.02550  0.83480  0.29110  Biso   1.000  H
  H2091    1.0000 0.22450  0.08480  0.54110  Biso   1.000  H
  H2092    1.0000 0.27550  0.41520  0.54110  Biso   1.000  H
  H2093    1.0000 0.97450  0.66520  0.79110  Biso   1.000  H
  H2094    1.0000 0.02550  0.33480  0.79110  Biso   1.000  H
  H2095    1.0000 0.22450  0.58480  0.04110  Biso   1.000  H
  H2096    1.0000 0.27550  0.91520  0.04110  Biso   1.000  H
  C1137    1.0000 0.47180  0.21140  0.83210  Biso   1.000  C
  C1138    1.0000 0.52820  0.78860  0.83210  Biso   1.000  C
  C1139    1.0000 0.72180  0.03860  0.08210  Biso   1.000  C
  C1140    1.0000 0.77820  0.46140  0.08210  Biso   1.000  C
  C1141    1.0000 0.47180  0.71140  0.33210  Biso   1.000  C
  C1142    1.0000 0.52820  0.28860  0.33210  Biso   1.000  C
  C1143    1.0000 0.72180  0.53860  0.58210  Biso   1.000  C
  C1144    1.0000 0.77820  0.96140  0.58210  Biso   1.000  C
  C1145    1.0000 0.97180  0.21140  0.33210  Biso   1.000  C
  C1146    1.0000 0.02820  0.78860  0.33210  Biso   1.000  C
  C1147    1.0000 0.22180  0.03860  0.58210  Biso   1.000  C
  C1148    1.0000 0.27820  0.46140  0.58210  Biso   1.000  C
  C1149    1.0000 0.97180  0.71140  0.83210  Biso   1.000  C
  C1150    1.0000 0.02820  0.28860  0.83210  Biso   1.000  C
  C1151    1.0000 0.22180  0.53860  0.08210  Biso   1.000  C
  C1152    1.0000 0.27820  0.96140  0.08210  Biso   1.000  C
  H2097    1.0000 0.45530  0.23220  0.84210  Biso   1.000  H
  H2098    1.0000 0.54470  0.76780  0.84210  Biso   1.000  H
  H2099    1.0000 0.70530  0.01780  0.09210  Biso   1.000  H
  H2100    1.0000 0.79470  0.48220  0.09210  Biso   1.000  H
  H2101    1.0000 0.45530  0.73220  0.34210  Biso   1.000  H
  H2102    1.0000 0.54470  0.26780  0.34210  Biso   1.000  H
  H2103    1.0000 0.70530  0.51780  0.59210  Biso   1.000  H
  H2104    1.0000 0.79470  0.98220  0.59210  Biso   1.000  H
  H2105    1.0000 0.95530  0.23220  0.34210  Biso   1.000  H
  H2106    1.0000 0.04470  0.76780  0.34210  Biso   1.000  H
  H2107    1.0000 0.20530  0.01780  0.59210  Biso   1.000  H
  H2108    1.0000 0.29470  0.48220  0.59210  Biso   1.000  H
  H2109    1.0000 0.95530  0.73220  0.84210  Biso   1.000  H
  H2110    1.0000 0.04470  0.26780  0.84210  Biso   1.000  H
  H2111    1.0000 0.20530  0.51780  0.09210  Biso   1.000  H
  H2112    1.0000 0.29470  0.98220  0.09210  Biso   1.000  H
  H2113    1.0000 0.48680  0.23510  0.82210  Biso   1.000  H
  H2114    1.0000 0.51320  0.76490  0.82210  Biso   1.000  H
  H2115    1.0000 0.73680  0.01490  0.07210  Biso   1.000  H
  H2116    1.0000 0.76320  0.48510  0.07210  Biso   1.000  H
  H2117    1.0000 0.48680  0.73510  0.32210  Biso   1.000  H
  H2118    1.0000 0.51320  0.26490  0.32210  Biso   1.000  H
  H2119    1.0000 0.73680  0.51490  0.57210  Biso   1.000  H
  H2120    1.0000 0.76320  0.98510  0.57210  Biso   1.000  H
  H2121    1.0000 0.98680  0.23510  0.32210  Biso   1.000  H
  H2122    1.0000 0.01320  0.76490  0.32210  Biso   1.000  H
  H2123    1.0000 0.23680  0.01490  0.57210  Biso   1.000  H
  H2124    1.0000 0.26320  0.48510  0.57210  Biso   1.000  H
  H2125    1.0000 0.98680  0.73510  0.82210  Biso   1.000  H
  H2126    1.0000 0.01320  0.26490  0.82210  Biso   1.000  H
  H2127    1.0000 0.23680  0.51490  0.07210  Biso   1.000  H
  H2128    1.0000 0.26320  0.98510  0.07210  Biso   1.000  H
  C1153    1.0000 0.48790  0.18520  0.86150  Biso   1.000  C
  C1154    1.0000 0.51210  0.81480  0.86150  Biso   1.000  C
  C1155    1.0000 0.73790  0.06480  0.11150  Biso   1.000  C
  C1156    1.0000 0.76210  0.43520  0.11150  Biso   1.000  C
  C1157    1.0000 0.48790  0.68520  0.36150  Biso   1.000  C
  C1158    1.0000 0.51210  0.31480  0.36150  Biso   1.000  C
  C1159    1.0000 0.73790  0.56480  0.61150  Biso   1.000  C
  C1160    1.0000 0.76210  0.93520  0.61150  Biso   1.000  C
  C1161    1.0000 0.98790  0.18520  0.36150  Biso   1.000  C
  C1162    1.0000 0.01210  0.81480  0.36150  Biso   1.000  C
  C1163    1.0000 0.23790  0.06480  0.61150  Biso   1.000  C
  C1164    1.0000 0.26210  0.43520  0.61150  Biso   1.000  C
  C1165    1.0000 0.98790  0.68520  0.86150  Biso   1.000  C
  C1166    1.0000 0.01210  0.31480  0.86150  Biso   1.000  C
  C1167    1.0000 0.23790  0.56480  0.11150  Biso   1.000  C
  C1168    1.0000 0.26210  0.93520  0.11150  Biso   1.000  C
  H2129    1.0000 0.49160  0.20860  0.88070  Biso   1.000  H
  H2130    1.0000 0.50840  0.79140  0.88070  Biso   1.000  H
  H2131    1.0000 0.74160  0.04140  0.13070  Biso   1.000  H
  H2132    1.0000 0.75840  0.45860  0.13070  Biso   1.000  H
  H2133    1.0000 0.49160  0.70860  0.38070  Biso   1.000  H
  H2134    1.0000 0.50840  0.29140  0.38070  Biso   1.000  H
  H2135    1.0000 0.74160  0.54140  0.63070  Biso   1.000  H
  H2136    1.0000 0.75840  0.95860  0.63070  Biso   1.000  H
  H2137    1.0000 0.99160  0.20860  0.38070  Biso   1.000  H
  H2138    1.0000 0.00840  0.79140  0.38070  Biso   1.000  H
  H2139    1.0000 0.24160  0.04140  0.63070  Biso   1.000  H
  H2140    1.0000 0.25840  0.45860  0.63070  Biso   1.000  H
  H2141    1.0000 0.99160  0.70860  0.88070  Biso   1.000  H
  H2142    1.0000 0.00840  0.29140  0.88070  Biso   1.000  H
  H2143    1.0000 0.24160  0.54140  0.13070  Biso   1.000  H
  H2144    1.0000 0.25840  0.95860  0.13070  Biso   1.000  H
  H2145    1.0000 0.47600  0.15590  0.86970  Biso   1.000  H
  H2146    1.0000 0.52400  0.84410  0.86970  Biso   1.000  H
  H2147    1.0000 0.72600  0.09410  0.11970  Biso   1.000  H
  H2148    1.0000 0.77400  0.40590  0.11970  Biso   1.000  H
  H2149    1.0000 0.47600  0.65590  0.36970  Biso   1.000  H
  H2150    1.0000 0.52400  0.34410  0.36970  Biso   1.000  H
  H2151    1.0000 0.72600  0.59410  0.61970  Biso   1.000  H
  H2152    1.0000 0.77400  0.90590  0.61970  Biso   1.000  H
  H2153    1.0000 0.97600  0.15590  0.36970  Biso   1.000  H
  H2154    1.0000 0.02400  0.84410  0.36970  Biso   1.000  H
  H2155    1.0000 0.22600  0.09410  0.61970  Biso   1.000  H
  H2156    1.0000 0.27400  0.40590  0.61970  Biso   1.000  H
  H2157    1.0000 0.97600  0.65590  0.86970  Biso   1.000  H
  H2158    1.0000 0.02400  0.34410  0.86970  Biso   1.000  H
  H2159    1.0000 0.22600  0.59410  0.11970  Biso   1.000  H
  H2160    1.0000 0.27400  0.90590  0.11970  Biso   1.000  H
  C1169    1.0000 0.51650  0.16960  0.84550  Biso   1.000  C
  C1170    1.0000 0.48350  0.83040  0.84550  Biso   1.000  C
  C1171    1.0000 0.76650  0.08040  0.09550  Biso   1.000  C
  C1172    1.0000 0.73350  0.41960  0.09550  Biso   1.000  C
  C1173    1.0000 0.51650  0.66960  0.34550  Biso   1.000  C
  C1174    1.0000 0.48350  0.33040  0.34550  Biso   1.000  C
  C1175    1.0000 0.76650  0.58040  0.59550  Biso   1.000  C
  C1176    1.0000 0.73350  0.91960  0.59550  Biso   1.000  C
  C1177    1.0000 0.01650  0.16960  0.34550  Biso   1.000  C
  C1178    1.0000 0.98350  0.83040  0.34550  Biso   1.000  C
  C1179    1.0000 0.26650  0.08040  0.59550  Biso   1.000  C
  C1180    1.0000 0.23350  0.41960  0.59550  Biso   1.000  C
  C1181    1.0000 0.01650  0.66960  0.84550  Biso   1.000  C
  C1182    1.0000 0.98350  0.33040  0.84550  Biso   1.000  C
  C1183    1.0000 0.26650  0.58040  0.09550  Biso   1.000  C
  C1184    1.0000 0.23350  0.91960  0.09550  Biso   1.000  C
  H2161    1.0000 0.52890  0.15070  0.86190  Biso   1.000  H
  H2162    1.0000 0.47110  0.84930  0.86190  Biso   1.000  H
  H2163    1.0000 0.77890  0.09930  0.11190  Biso   1.000  H
  H2164    1.0000 0.72110  0.40070  0.11190  Biso   1.000  H
  H2165    1.0000 0.52890  0.65070  0.36190  Biso   1.000  H
  H2166    1.0000 0.47110  0.34930  0.36190  Biso   1.000  H
  H2167    1.0000 0.77890  0.59930  0.61190  Biso   1.000  H
  H2168    1.0000 0.72110  0.90070  0.61190  Biso   1.000  H
  H2169    1.0000 0.02890  0.15070  0.36190  Biso   1.000  H
  H2170    1.0000 0.97110  0.84930  0.36190  Biso   1.000  H
  H2171    1.0000 0.27890  0.09930  0.61190  Biso   1.000  H
  H2172    1.0000 0.22110  0.40070  0.61190  Biso   1.000  H
  H2173    1.0000 0.02890  0.65070  0.86190  Biso   1.000  H
  H2174    1.0000 0.97110  0.34930  0.86190  Biso   1.000  H
  H2175    1.0000 0.27890  0.59930  0.11190  Biso   1.000  H
  H2176    1.0000 0.22110  0.90070  0.11190  Biso   1.000  H
  H2177    1.0000 0.52790  0.19940  0.83800  Biso   1.000  H
  H2178    1.0000 0.47210  0.80060  0.83800  Biso   1.000  H
  H2179    1.0000 0.77790  0.05060  0.08800  Biso   1.000  H
  H2180    1.0000 0.72210  0.44940  0.08800  Biso   1.000  H
  H2181    1.0000 0.52790  0.69940  0.33800  Biso   1.000  H
  H2182    1.0000 0.47210  0.30060  0.33800  Biso   1.000  H
  H2183    1.0000 0.77790  0.55060  0.58800  Biso   1.000  H
  H2184    1.0000 0.72210  0.94940  0.58800  Biso   1.000  H
  H2185    1.0000 0.02790  0.19940  0.33800  Biso   1.000  H
  H2186    1.0000 0.97210  0.80060  0.33800  Biso   1.000  H
  H2187    1.0000 0.27790  0.05060  0.58800  Biso   1.000  H
  H2188    1.0000 0.22210  0.44940  0.58800  Biso   1.000  H
  H2189    1.0000 0.02790  0.69940  0.83800  Biso   1.000  H
  H2190    1.0000 0.97210  0.30060  0.83800  Biso   1.000  H
  H2191    1.0000 0.27790  0.55060  0.08800  Biso   1.000  H
  H2192    1.0000 0.22210  0.94940  0.08800  Biso   1.000  H
  H2193    1.0000 0.51200  0.14820  0.82580  Biso   1.000  H
  H2194    1.0000 0.48800  0.85180  0.82580  Biso   1.000  H
  H2195    1.0000 0.76200  0.10180  0.07580  Biso   1.000  H
  H2196    1.0000 0.73800  0.39820  0.07580  Biso   1.000  H
  H2197    1.0000 0.51200  0.64820  0.32580  Biso   1.000  H
  H2198    1.0000 0.48800  0.35180  0.32580  Biso   1.000  H
  H2199    1.0000 0.76200  0.60180  0.57580  Biso   1.000  H
  H2200    1.0000 0.73800  0.89820  0.57580  Biso   1.000  H
  H2201    1.0000 0.01200  0.14820  0.32580  Biso   1.000  H
  H2202    1.0000 0.98800  0.85180  0.32580  Biso   1.000  H
  H2203    1.0000 0.26200  0.10180  0.57580  Biso   1.000  H
  H2204    1.0000 0.23800  0.39820  0.57580  Biso   1.000  H
  H2205    1.0000 0.01200  0.64820  0.82580  Biso   1.000  H
  H2206    1.0000 0.98800  0.35180  0.82580  Biso   1.000  H
  H2207    1.0000 0.26200  0.60180  0.07580  Biso   1.000  H
  H2208    1.0000 0.23800  0.89820  0.07580  Biso   1.000  H
  C1185    1.0000 0.43010  0.26660  0.73840  Biso   1.000  C
  C1186    1.0000 0.56990  0.73340  0.73840  Biso   1.000  C
  C1187    1.0000 0.68010  0.98340  0.98840  Biso   1.000  C
  C1188    1.0000 0.81990  0.51660  0.98840  Biso   1.000  C
  C1189    1.0000 0.43010  0.76660  0.23840  Biso   1.000  C
  C1190    1.0000 0.56990  0.23340  0.23840  Biso   1.000  C
  C1191    1.0000 0.68010  0.48340  0.48840  Biso   1.000  C
  C1192    1.0000 0.81990  0.01660  0.48840  Biso   1.000  C
  C1193    1.0000 0.93010  0.26660  0.23840  Biso   1.000  C
  C1194    1.0000 0.06990  0.73340  0.23840  Biso   1.000  C
  C1195    1.0000 0.18010  0.98340  0.48840  Biso   1.000  C
  C1196    1.0000 0.31990  0.51660  0.48840  Biso   1.000  C
  C1197    1.0000 0.93010  0.76660  0.73840  Biso   1.000  C
  C1198    1.0000 0.06990  0.23340  0.73840  Biso   1.000  C
  C1199    1.0000 0.18010  0.48340  0.98840  Biso   1.000  C
  C1200    1.0000 0.31990  0.01660  0.98840  Biso   1.000  C
  C1201    1.0000 0.43920  0.21210  0.66950  Biso   1.000  C
  C1202    1.0000 0.56080  0.78790  0.66950  Biso   1.000  C
  C1203    1.0000 0.68920  0.03790  0.91950  Biso   1.000  C
  C1204    1.0000 0.81080  0.46210  0.91950  Biso   1.000  C
  C1205    1.0000 0.43920  0.71210  0.16950  Biso   1.000  C
  C1206    1.0000 0.56080  0.28790  0.16950  Biso   1.000  C
  C1207    1.0000 0.68920  0.53790  0.41950  Biso   1.000  C
  C1208    1.0000 0.81080  0.96210  0.41950  Biso   1.000  C
  C1209    1.0000 0.93920  0.21210  0.16950  Biso   1.000  C
  C1210    1.0000 0.06080  0.78790  0.16950  Biso   1.000  C
  C1211    1.0000 0.18920  0.03790  0.41950  Biso   1.000  C
  C1212    1.0000 0.31080  0.46210  0.41950  Biso   1.000  C
  C1213    1.0000 0.93920  0.71210  0.66950  Biso   1.000  C
  C1214    1.0000 0.06080  0.28790  0.66950  Biso   1.000  C
  C1215    1.0000 0.18920  0.53790  0.91950  Biso   1.000  C
  C1216    1.0000 0.31080  0.96210  0.91950  Biso   1.000  C
  H2209    1.0000 0.42780  0.18700  0.68310  Biso   1.000  H
  H2210    1.0000 0.57220  0.81300  0.68310  Biso   1.000  H
  H2211    1.0000 0.67780  0.06300  0.93310  Biso   1.000  H
  H2212    1.0000 0.82220  0.43700  0.93310  Biso   1.000  H
  H2213    1.0000 0.42780  0.68700  0.18310  Biso   1.000  H
  H2214    1.0000 0.57220  0.31300  0.18310  Biso   1.000  H
  H2215    1.0000 0.67780  0.56300  0.43310  Biso   1.000  H
  H2216    1.0000 0.82220  0.93700  0.43310  Biso   1.000  H
  H2217    1.0000 0.92780  0.18700  0.18310  Biso   1.000  H
  H2218    1.0000 0.07220  0.81300  0.18310  Biso   1.000  H
  H2219    1.0000 0.17780  0.06300  0.43310  Biso   1.000  H
  H2220    1.0000 0.32220  0.43700  0.43310  Biso   1.000  H
  H2221    1.0000 0.92780  0.68700  0.68310  Biso   1.000  H
  H2222    1.0000 0.07220  0.31300  0.68310  Biso   1.000  H
  H2223    1.0000 0.17780  0.56300  0.93310  Biso   1.000  H
  H2224    1.0000 0.32220  0.93700  0.93310  Biso   1.000  H
  H2225    1.0000 0.46070  0.21230  0.67750  Biso   1.000  H
  H2226    1.0000 0.53930  0.78770  0.67750  Biso   1.000  H
  H2227    1.0000 0.71070  0.03770  0.92750  Biso   1.000  H
  H2228    1.0000 0.78930  0.46230  0.92750  Biso   1.000  H
  H2229    1.0000 0.46070  0.71230  0.17750  Biso   1.000  H
  H2230    1.0000 0.53930  0.28770  0.17750  Biso   1.000  H
  H2231    1.0000 0.71070  0.53770  0.42750  Biso   1.000  H
  H2232    1.0000 0.78930  0.96230  0.42750  Biso   1.000  H
  H2233    1.0000 0.96070  0.21230  0.17750  Biso   1.000  H
  H2234    1.0000 0.03930  0.78770  0.17750  Biso   1.000  H
  H2235    1.0000 0.21070  0.03770  0.42750  Biso   1.000  H
  H2236    1.0000 0.28930  0.46230  0.42750  Biso   1.000  H
  H2237    1.0000 0.96070  0.71230  0.67750  Biso   1.000  H
  H2238    1.0000 0.03930  0.28770  0.67750  Biso   1.000  H
  H2239    1.0000 0.21070  0.53770  0.92750  Biso   1.000  H
  H2240    1.0000 0.28930  0.96230  0.92750  Biso   1.000  H
  C1217    1.0000 0.43270  0.29680  0.70650  Biso   1.000  C
  C1218    1.0000 0.56730  0.70320  0.70650  Biso   1.000  C
  C1219    1.0000 0.68270  0.95320  0.95650  Biso   1.000  C
  C1220    1.0000 0.81730  0.54680  0.95650  Biso   1.000  C
  C1221    1.0000 0.43270  0.79680  0.20650  Biso   1.000  C
  C1222    1.0000 0.56730  0.20320  0.20650  Biso   1.000  C
  C1223    1.0000 0.68270  0.45320  0.45650  Biso   1.000  C
  C1224    1.0000 0.81730  0.04680  0.45650  Biso   1.000  C
  C1225    1.0000 0.93270  0.29680  0.20650  Biso   1.000  C
  C1226    1.0000 0.06730  0.70320  0.20650  Biso   1.000  C
  C1227    1.0000 0.18270  0.95320  0.45650  Biso   1.000  C
  C1228    1.0000 0.31730  0.54680  0.45650  Biso   1.000  C
  C1229    1.0000 0.93270  0.79680  0.70650  Biso   1.000  C
  C1230    1.0000 0.06730  0.20320  0.70650  Biso   1.000  C
  C1231    1.0000 0.18270  0.45320  0.95650  Biso   1.000  C
  C1232    1.0000 0.31730  0.04680  0.95650  Biso   1.000  C
  H2241    1.0000 0.45370  0.31070  0.70460  Biso   1.000  H
  H2242    1.0000 0.54630  0.68930  0.70460  Biso   1.000  H
  H2243    1.0000 0.70370  0.93930  0.95460  Biso   1.000  H
  H2244    1.0000 0.79630  0.56070  0.95460  Biso   1.000  H
  H2245    1.0000 0.45370  0.81070  0.20460  Biso   1.000  H
  H2246    1.0000 0.54630  0.18930  0.20460  Biso   1.000  H
  H2247    1.0000 0.70370  0.43930  0.45460  Biso   1.000  H
  H2248    1.0000 0.79630  0.06070  0.45460  Biso   1.000  H
  H2249    1.0000 0.95370  0.31070  0.20460  Biso   1.000  H
  H2250    1.0000 0.04630  0.68930  0.20460  Biso   1.000  H
  H2251    1.0000 0.20370  0.93930  0.45460  Biso   1.000  H
  H2252    1.0000 0.29630  0.56070  0.45460  Biso   1.000  H
  H2253    1.0000 0.95370  0.81070  0.70460  Biso   1.000  H
  H2254    1.0000 0.04630  0.18930  0.70460  Biso   1.000  H
  H2255    1.0000 0.20370  0.43930  0.95460  Biso   1.000  H
  H2256    1.0000 0.29630  0.06070  0.95460  Biso   1.000  H
  H2257    1.0000 0.41820  0.32540  0.70740  Biso   1.000  H
  H2258    1.0000 0.58180  0.67460  0.70740  Biso   1.000  H
  H2259    1.0000 0.66820  0.92460  0.95740  Biso   1.000  H
  H2260    1.0000 0.83180  0.57540  0.95740  Biso   1.000  H
  H2261    1.0000 0.41820  0.82540  0.20740  Biso   1.000  H
  H2262    1.0000 0.58180  0.17460  0.20740  Biso   1.000  H
  H2263    1.0000 0.66820  0.42460  0.45740  Biso   1.000  H
  H2264    1.0000 0.83180  0.07540  0.45740  Biso   1.000  H
  H2265    1.0000 0.91820  0.32540  0.20740  Biso   1.000  H
  H2266    1.0000 0.08180  0.67460  0.20740  Biso   1.000  H
  H2267    1.0000 0.16820  0.92460  0.45740  Biso   1.000  H
  H2268    1.0000 0.33180  0.57540  0.45740  Biso   1.000  H
  H2269    1.0000 0.91820  0.82540  0.70740  Biso   1.000  H
  H2270    1.0000 0.08180  0.17460  0.70740  Biso   1.000  H
  H2271    1.0000 0.16820  0.42460  0.95740  Biso   1.000  H
  H2272    1.0000 0.33180  0.07540  0.95740  Biso   1.000  H
  C1233    1.0000 0.42600  0.26500  0.67520  Biso   1.000  C
  C1234    1.0000 0.57400  0.73500  0.67520  Biso   1.000  C
  C1235    1.0000 0.67600  0.98500  0.92520  Biso   1.000  C
  C1236    1.0000 0.82400  0.51500  0.92520  Biso   1.000  C
  C1237    1.0000 0.42600  0.76500  0.17520  Biso   1.000  C
  C1238    1.0000 0.57400  0.23500  0.17520  Biso   1.000  C
  C1239    1.0000 0.67600  0.48500  0.42520  Biso   1.000  C
  C1240    1.0000 0.82400  0.01500  0.42520  Biso   1.000  C
  C1241    1.0000 0.92600  0.26500  0.17520  Biso   1.000  C
  C1242    1.0000 0.07400  0.73500  0.17520  Biso   1.000  C
  C1243    1.0000 0.17600  0.98500  0.42520  Biso   1.000  C
  C1244    1.0000 0.32400  0.51500  0.42520  Biso   1.000  C
  C1245    1.0000 0.92600  0.76500  0.67520  Biso   1.000  C
  C1246    1.0000 0.07400  0.23500  0.67520  Biso   1.000  C
  C1247    1.0000 0.17600  0.48500  0.92520  Biso   1.000  C
  C1248    1.0000 0.32400  0.01500  0.92520  Biso   1.000  C
  H2273    1.0000 0.40320  0.26060  0.67430  Biso   1.000  H
  H2274    1.0000 0.59680  0.73940  0.67430  Biso   1.000  H
  H2275    1.0000 0.65320  0.98940  0.92430  Biso   1.000  H
  H2276    1.0000 0.84680  0.51060  0.92430  Biso   1.000  H
  H2277    1.0000 0.40320  0.76060  0.17430  Biso   1.000  H
  H2278    1.0000 0.59680  0.23940  0.17430  Biso   1.000  H
  H2279    1.0000 0.65320  0.48940  0.42430  Biso   1.000  H
  H2280    1.0000 0.84680  0.01060  0.42430  Biso   1.000  H
  H2281    1.0000 0.90320  0.26060  0.17430  Biso   1.000  H
  H2282    1.0000 0.09680  0.73940  0.17430  Biso   1.000  H
  H2283    1.0000 0.15320  0.98940  0.42430  Biso   1.000  H
  H2284    1.0000 0.34680  0.51060  0.42430  Biso   1.000  H
  H2285    1.0000 0.90320  0.76060  0.67430  Biso   1.000  H
  H2286    1.0000 0.09680  0.23940  0.67430  Biso   1.000  H
  H2287    1.0000 0.15320  0.48940  0.92430  Biso   1.000  H
  H2288    1.0000 0.34680  0.01060  0.92430  Biso   1.000  H
  H2289    1.0000 0.43150  0.28490  0.65510  Biso   1.000  H
  H2290    1.0000 0.56850  0.71510  0.65510  Biso   1.000  H
  H2291    1.0000 0.68150  0.96510  0.90510  Biso   1.000  H
  H2292    1.0000 0.81850  0.53490  0.90510  Biso   1.000  H
  H2293    1.0000 0.43150  0.78490  0.15510  Biso   1.000  H
  H2294    1.0000 0.56850  0.21510  0.15510  Biso   1.000  H
  H2295    1.0000 0.68150  0.46510  0.40510  Biso   1.000  H
  H2296    1.0000 0.81850  0.03490  0.40510  Biso   1.000  H
  H2297    1.0000 0.93150  0.28490  0.15510  Biso   1.000  H
  H2298    1.0000 0.06850  0.71510  0.15510  Biso   1.000  H
  H2299    1.0000 0.18150  0.96510  0.40510  Biso   1.000  H
  H2300    1.0000 0.31850  0.53490  0.40510  Biso   1.000  H
  H2301    1.0000 0.93150  0.78490  0.65510  Biso   1.000  H
  H2302    1.0000 0.06850  0.21510  0.65510  Biso   1.000  H
  H2303    1.0000 0.18150  0.46510  0.90510  Biso   1.000  H
  H2304    1.0000 0.31850  0.03490  0.90510  Biso   1.000  H
  C1249    1.0000 0.43880  0.19690  0.63240  Biso   1.000  C
  C1250    1.0000 0.56120  0.80310  0.63240  Biso   1.000  C
  C1251    1.0000 0.68880  0.05310  0.88240  Biso   1.000  C
  C1252    1.0000 0.81120  0.44690  0.88240  Biso   1.000  C
  C1253    1.0000 0.43880  0.69690  0.13240  Biso   1.000  C
  C1254    1.0000 0.56120  0.30310  0.13240  Biso   1.000  C
  C1255    1.0000 0.68880  0.55310  0.38240  Biso   1.000  C
  C1256    1.0000 0.81120  0.94690  0.38240  Biso   1.000  C
  C1257    1.0000 0.93880  0.19690  0.13240  Biso   1.000  C
  C1258    1.0000 0.06120  0.80310  0.13240  Biso   1.000  C
  C1259    1.0000 0.18880  0.05310  0.38240  Biso   1.000  C
  C1260    1.0000 0.31120  0.44690  0.38240  Biso   1.000  C
  C1261    1.0000 0.93880  0.69690  0.63240  Biso   1.000  C
  C1262    1.0000 0.06120  0.30310  0.63240  Biso   1.000  C
  C1263    1.0000 0.18880  0.55310  0.88240  Biso   1.000  C
  C1264    1.0000 0.31120  0.94690  0.88240  Biso   1.000  C
  H2305    1.0000 0.44950  0.16470  0.62970  Biso   1.000  H
  H2306    1.0000 0.55050  0.83530  0.62970  Biso   1.000  H
  H2307    1.0000 0.69950  0.08530  0.87970  Biso   1.000  H
  H2308    1.0000 0.80050  0.41470  0.87970  Biso   1.000  H
  H2309    1.0000 0.44950  0.66470  0.12970  Biso   1.000  H
  H2310    1.0000 0.55050  0.33530  0.12970  Biso   1.000  H
  H2311    1.0000 0.69950  0.58530  0.37970  Biso   1.000  H
  H2312    1.0000 0.80050  0.91470  0.37970  Biso   1.000  H
  H2313    1.0000 0.94950  0.16470  0.12970  Biso   1.000  H
  H2314    1.0000 0.05050  0.83530  0.12970  Biso   1.000  H
  H2315    1.0000 0.19950  0.08530  0.37970  Biso   1.000  H
  H2316    1.0000 0.30050  0.41470  0.37970  Biso   1.000  H
  H2317    1.0000 0.94950  0.66470  0.62970  Biso   1.000  H
  H2318    1.0000 0.05050  0.33530  0.62970  Biso   1.000  H
  H2319    1.0000 0.19950  0.58530  0.87970  Biso   1.000  H
  H2320    1.0000 0.30050  0.91470  0.87970  Biso   1.000  H
  H2321    1.0000 0.44910  0.22270  0.61880  Biso   1.000  H
  H2322    1.0000 0.55090  0.77730  0.61880  Biso   1.000  H
  H2323    1.0000 0.69910  0.02730  0.86880  Biso   1.000  H
  H2324    1.0000 0.80090  0.47270  0.86880  Biso   1.000  H
  H2325    1.0000 0.44910  0.72270  0.11880  Biso   1.000  H
  H2326    1.0000 0.55090  0.27730  0.11880  Biso   1.000  H
  H2327    1.0000 0.69910  0.52730  0.36880  Biso   1.000  H
  H2328    1.0000 0.80090  0.97270  0.36880  Biso   1.000  H
  H2329    1.0000 0.94910  0.22270  0.11880  Biso   1.000  H
  H2330    1.0000 0.05090  0.77730  0.11880  Biso   1.000  H
  H2331    1.0000 0.19910  0.02730  0.36880  Biso   1.000  H
  H2332    1.0000 0.30090  0.47270  0.36880  Biso   1.000  H
  H2333    1.0000 0.94910  0.72270  0.61880  Biso   1.000  H
  H2334    1.0000 0.05090  0.27730  0.61880  Biso   1.000  H
  H2335    1.0000 0.19910  0.52730  0.86880  Biso   1.000  H
  H2336    1.0000 0.30090  0.97270  0.86880  Biso   1.000  H
  H2337    1.0000 0.41760  0.19330  0.62470  Biso   1.000  H
  H2338    1.0000 0.58240  0.80670  0.62470  Biso   1.000  H
  H2339    1.0000 0.66760  0.05670  0.87470  Biso   1.000  H
  H2340    1.0000 0.83240  0.44330  0.87470  Biso   1.000  H
  H2341    1.0000 0.41760  0.69330  0.12470  Biso   1.000  H
  H2342    1.0000 0.58240  0.30670  0.12470  Biso   1.000  H
  H2343    1.0000 0.66760  0.55670  0.37470  Biso   1.000  H
  H2344    1.0000 0.83240  0.94330  0.37470  Biso   1.000  H
  H2345    1.0000 0.91760  0.19330  0.12470  Biso   1.000  H
  H2346    1.0000 0.08240  0.80670  0.12470  Biso   1.000  H
  H2347    1.0000 0.16760  0.05670  0.37470  Biso   1.000  H
  H2348    1.0000 0.33240  0.44330  0.37470  Biso   1.000  H
  H2349    1.0000 0.91760  0.69330  0.62470  Biso   1.000  H
  H2350    1.0000 0.08240  0.30670  0.62470  Biso   1.000  H
  H2351    1.0000 0.16760  0.55670  0.87470  Biso   1.000  H
  H2352    1.0000 0.33240  0.94330  0.87470  Biso   1.000  H
  C1265    1.0000 0.43300  0.26400  0.67430  Biso   1.000  C
  C1266    1.0000 0.56700  0.73600  0.67430  Biso   1.000  C
  C1267    1.0000 0.68300  0.98600  0.92430  Biso   1.000  C
  C1268    1.0000 0.81700  0.51400  0.92430  Biso   1.000  C
  C1269    1.0000 0.43300  0.76400  0.17430  Biso   1.000  C
  C1270    1.0000 0.56700  0.23600  0.17430  Biso   1.000  C
  C1271    1.0000 0.68300  0.48600  0.42430  Biso   1.000  C
  C1272    1.0000 0.81700  0.01400  0.42430  Biso   1.000  C
  C1273    1.0000 0.93300  0.26400  0.17430  Biso   1.000  C
  C1274    1.0000 0.06700  0.73600  0.17430  Biso   1.000  C
  C1275    1.0000 0.18300  0.98600  0.42430  Biso   1.000  C
  C1276    1.0000 0.31700  0.51400  0.42430  Biso   1.000  C
  C1277    1.0000 0.93300  0.76400  0.67430  Biso   1.000  C
  C1278    1.0000 0.06700  0.23600  0.67430  Biso   1.000  C
  C1279    1.0000 0.18300  0.48600  0.92430  Biso   1.000  C
  C1280    1.0000 0.31700  0.01400  0.92430  Biso   1.000  C
  H2353    1.0000 0.42910  0.22940  0.67970  Biso   1.000  H
  H2354    1.0000 0.57090  0.77060  0.67970  Biso   1.000  H
  H2355    1.0000 0.67910  0.02060  0.92970  Biso   1.000  H
  H2356    1.0000 0.82090  0.47940  0.92970  Biso   1.000  H
  H2357    1.0000 0.42910  0.72940  0.17970  Biso   1.000  H
  H2358    1.0000 0.57090  0.27060  0.17970  Biso   1.000  H
  H2359    1.0000 0.67910  0.52060  0.42970  Biso   1.000  H
  H2360    1.0000 0.82090  0.97940  0.42970  Biso   1.000  H
  H2361    1.0000 0.92910  0.22940  0.17970  Biso   1.000  H
  H2362    1.0000 0.07090  0.77060  0.17970  Biso   1.000  H
  H2363    1.0000 0.17910  0.02060  0.42970  Biso   1.000  H
  H2364    1.0000 0.32090  0.47940  0.42970  Biso   1.000  H
  H2365    1.0000 0.92910  0.72940  0.67970  Biso   1.000  H
  H2366    1.0000 0.07090  0.27060  0.67970  Biso   1.000  H
  H2367    1.0000 0.17910  0.52060  0.92970  Biso   1.000  H
  H2368    1.0000 0.32090  0.97940  0.92970  Biso   1.000  H
  H2369    1.0000 0.45470  0.26750  0.67130  Biso   1.000  H
  H2370    1.0000 0.54530  0.73250  0.67130  Biso   1.000  H
  H2371    1.0000 0.70470  0.98250  0.92130  Biso   1.000  H
  H2372    1.0000 0.79530  0.51750  0.92130  Biso   1.000  H
  H2373    1.0000 0.45470  0.76750  0.17130  Biso   1.000  H
  H2374    1.0000 0.54530  0.23250  0.17130  Biso   1.000  H
  H2375    1.0000 0.70470  0.48250  0.42130  Biso   1.000  H
  H2376    1.0000 0.79530  0.01750  0.42130  Biso   1.000  H
  H2377    1.0000 0.95470  0.26750  0.17130  Biso   1.000  H
  H2378    1.0000 0.04530  0.73250  0.17130  Biso   1.000  H
  H2379    1.0000 0.20470  0.98250  0.42130  Biso   1.000  H
  H2380    1.0000 0.29530  0.51750  0.42130  Biso   1.000  H
  H2381    1.0000 0.95470  0.76750  0.67130  Biso   1.000  H
  H2382    1.0000 0.04530  0.23250  0.67130  Biso   1.000  H
  H2383    1.0000 0.20470  0.48250  0.92130  Biso   1.000  H
  H2384    1.0000 0.29530  0.01750  0.92130  Biso   1.000  H
  C1281    1.0000 0.42590  0.27400  0.63640  Biso   1.000  C
  C1282    1.0000 0.57410  0.72600  0.63640  Biso   1.000  C
  C1283    1.0000 0.67590  0.97600  0.88640  Biso   1.000  C
  C1284    1.0000 0.82410  0.52400  0.88640  Biso   1.000  C
  C1285    1.0000 0.42590  0.77400  0.13640  Biso   1.000  C
  C1286    1.0000 0.57410  0.22600  0.13640  Biso   1.000  C
  C1287    1.0000 0.67590  0.47600  0.38640  Biso   1.000  C
  C1288    1.0000 0.82410  0.02400  0.38640  Biso   1.000  C
  C1289    1.0000 0.92590  0.27400  0.13640  Biso   1.000  C
  C1290    1.0000 0.07410  0.72600  0.13640  Biso   1.000  C
  C1291    1.0000 0.17590  0.97600  0.38640  Biso   1.000  C
  C1292    1.0000 0.32410  0.52400  0.38640  Biso   1.000  C
  C1293    1.0000 0.92590  0.77400  0.63640  Biso   1.000  C
  C1294    1.0000 0.07410  0.22600  0.63640  Biso   1.000  C
  C1295    1.0000 0.17590  0.47600  0.88640  Biso   1.000  C
  C1296    1.0000 0.32410  0.02400  0.88640  Biso   1.000  C
  H2385    1.0000 0.43820  0.27730  0.61630  Biso   1.000  H
  H2386    1.0000 0.56180  0.72270  0.61630  Biso   1.000  H
  H2387    1.0000 0.68820  0.97270  0.86630  Biso   1.000  H
  H2388    1.0000 0.81180  0.52730  0.86630  Biso   1.000  H
  H2389    1.0000 0.43820  0.77730  0.11630  Biso   1.000  H
  H2390    1.0000 0.56180  0.22270  0.11630  Biso   1.000  H
  H2391    1.0000 0.68820  0.47270  0.36630  Biso   1.000  H
  H2392    1.0000 0.81180  0.02730  0.36630  Biso   1.000  H
  H2393    1.0000 0.93820  0.27730  0.11630  Biso   1.000  H
  H2394    1.0000 0.06180  0.72270  0.11630  Biso   1.000  H
  H2395    1.0000 0.18820  0.97270  0.36630  Biso   1.000  H
  H2396    1.0000 0.31180  0.52730  0.36630  Biso   1.000  H
  H2397    1.0000 0.93820  0.77730  0.61630  Biso   1.000  H
  H2398    1.0000 0.06180  0.22270  0.61630  Biso   1.000  H
  H2399    1.0000 0.18820  0.47270  0.86630  Biso   1.000  H
  H2400    1.0000 0.31180  0.02730  0.86630  Biso   1.000  H
  H2401    1.0000 0.40630  0.29020  0.63630  Biso   1.000  H
  H2402    1.0000 0.59370  0.70980  0.63630  Biso   1.000  H
  H2403    1.0000 0.65630  0.95980  0.88630  Biso   1.000  H
  H2404    1.0000 0.84370  0.54020  0.88630  Biso   1.000  H
  H2405    1.0000 0.40630  0.79020  0.13630  Biso   1.000  H
  H2406    1.0000 0.59370  0.20980  0.13630  Biso   1.000  H
  H2407    1.0000 0.65630  0.45980  0.38630  Biso   1.000  H
  H2408    1.0000 0.84370  0.04020  0.38630  Biso   1.000  H
  H2409    1.0000 0.90630  0.29020  0.13630  Biso   1.000  H
  H2410    1.0000 0.09370  0.70980  0.13630  Biso   1.000  H
  H2411    1.0000 0.15630  0.95980  0.38630  Biso   1.000  H
  H2412    1.0000 0.34370  0.54020  0.38630  Biso   1.000  H
  H2413    1.0000 0.90630  0.79020  0.63630  Biso   1.000  H
  H2414    1.0000 0.09370  0.20980  0.63630  Biso   1.000  H
  H2415    1.0000 0.15630  0.45980  0.88630  Biso   1.000  H
  H2416    1.0000 0.34370  0.04020  0.88630  Biso   1.000  H
  C1297    1.0000 0.44770  0.24100  0.65720  Biso   1.000  C
  C1298    1.0000 0.55230  0.75900  0.65720  Biso   1.000  C
  C1299    1.0000 0.69770  0.00900  0.90720  Biso   1.000  C
  C1300    1.0000 0.80230  0.49100  0.90720  Biso   1.000  C
  C1301    1.0000 0.44770  0.74100  0.15720  Biso   1.000  C
  C1302    1.0000 0.55230  0.25900  0.15720  Biso   1.000  C
  C1303    1.0000 0.69770  0.50900  0.40720  Biso   1.000  C
  C1304    1.0000 0.80230  0.99100  0.40720  Biso   1.000  C
  C1305    1.0000 0.94770  0.24100  0.15720  Biso   1.000  C
  C1306    1.0000 0.05230  0.75900  0.15720  Biso   1.000  C
  C1307    1.0000 0.19770  0.00900  0.40720  Biso   1.000  C
  C1308    1.0000 0.30230  0.49100  0.40720  Biso   1.000  C
  C1309    1.0000 0.94770  0.74100  0.65720  Biso   1.000  C
  C1310    1.0000 0.05230  0.25900  0.65720  Biso   1.000  C
  C1311    1.0000 0.19770  0.50900  0.90720  Biso   1.000  C
  C1312    1.0000 0.30230  0.99100  0.90720  Biso   1.000  C
  H2417    1.0000 0.43850  0.21140  0.64790  Biso   1.000  H
  H2418    1.0000 0.56150  0.78860  0.64790  Biso   1.000  H
  H2419    1.0000 0.68850  0.03860  0.89790  Biso   1.000  H
  H2420    1.0000 0.81150  0.46140  0.89790  Biso   1.000  H
  H2421    1.0000 0.43850  0.71140  0.14790  Biso   1.000  H
  H2422    1.0000 0.56150  0.28860  0.14790  Biso   1.000  H
  H2423    1.0000 0.68850  0.53860  0.39790  Biso   1.000  H
  H2424    1.0000 0.81150  0.96140  0.39790  Biso   1.000  H
  H2425    1.0000 0.93850  0.21140  0.14790  Biso   1.000  H
  H2426    1.0000 0.06150  0.78860  0.14790  Biso   1.000  H
  H2427    1.0000 0.18850  0.03860  0.39790  Biso   1.000  H
  H2428    1.0000 0.31150  0.46140  0.39790  Biso   1.000  H
  H2429    1.0000 0.93850  0.71140  0.64790  Biso   1.000  H
  H2430    1.0000 0.06150  0.28860  0.64790  Biso   1.000  H
  H2431    1.0000 0.18850  0.53860  0.89790  Biso   1.000  H
  H2432    1.0000 0.31150  0.96140  0.89790  Biso   1.000  H
  H2433    1.0000 0.46930  0.23590  0.65980  Biso   1.000  H
  H2434    1.0000 0.53070  0.76410  0.65980  Biso   1.000  H
  H2435    1.0000 0.71930  0.01410  0.90980  Biso   1.000  H
  H2436    1.0000 0.78070  0.48590  0.90980  Biso   1.000  H
  H2437    1.0000 0.46930  0.73590  0.15980  Biso   1.000  H
  H2438    1.0000 0.53070  0.26410  0.15980  Biso   1.000  H
  H2439    1.0000 0.71930  0.51410  0.40980  Biso   1.000  H
  H2440    1.0000 0.78070  0.98590  0.40980  Biso   1.000  H
  H2441    1.0000 0.96930  0.23590  0.15980  Biso   1.000  H
  H2442    1.0000 0.03070  0.76410  0.15980  Biso   1.000  H
  H2443    1.0000 0.21930  0.01410  0.40980  Biso   1.000  H
  H2444    1.0000 0.28070  0.48590  0.40980  Biso   1.000  H
  H2445    1.0000 0.96930  0.73590  0.65980  Biso   1.000  H
  H2446    1.0000 0.03070  0.26410  0.65980  Biso   1.000  H
  H2447    1.0000 0.21930  0.51410  0.90980  Biso   1.000  H
  H2448    1.0000 0.28070  0.98590  0.90980  Biso   1.000  H
  H2449    1.0000 0.43880  0.24830  0.67890  Biso   1.000  H
  H2450    1.0000 0.56120  0.75170  0.67890  Biso   1.000  H
  H2451    1.0000 0.68880  0.00170  0.92890  Biso   1.000  H
  H2452    1.0000 0.81120  0.49830  0.92890  Biso   1.000  H
  H2453    1.0000 0.43880  0.74830  0.17890  Biso   1.000  H
  H2454    1.0000 0.56120  0.25170  0.17890  Biso   1.000  H
  H2455    1.0000 0.68880  0.50170  0.42890  Biso   1.000  H
  H2456    1.0000 0.81120  0.99830  0.42890  Biso   1.000  H
  H2457    1.0000 0.93880  0.24830  0.17890  Biso   1.000  H
  H2458    1.0000 0.06120  0.75170  0.17890  Biso   1.000  H
  H2459    1.0000 0.18880  0.00170  0.42890  Biso   1.000  H
  H2460    1.0000 0.31120  0.49830  0.42890  Biso   1.000  H
  H2461    1.0000 0.93880  0.74830  0.67890  Biso   1.000  H
  H2462    1.0000 0.06120  0.25170  0.67890  Biso   1.000  H
  H2463    1.0000 0.18880  0.50170  0.92890  Biso   1.000  H
  H2464    1.0000 0.31120  0.99830  0.92890  Biso   1.000  H
  C1313    1.0000 0.34880  0.20210  0.69640  Biso   1.000  C
  C1314    1.0000 0.65120  0.79790  0.69640  Biso   1.000  C
  C1315    1.0000 0.59880  0.04790  0.94640  Biso   1.000  C
  C1316    1.0000 0.90120  0.45210  0.94640  Biso   1.000  C
  C1317    1.0000 0.34880  0.70210  0.19640  Biso   1.000  C
  C1318    1.0000 0.65120  0.29790  0.19640  Biso   1.000  C
  C1319    1.0000 0.59880  0.54790  0.44640  Biso   1.000  C
  C1320    1.0000 0.90120  0.95210  0.44640  Biso   1.000  C
  C1321    1.0000 0.84880  0.20210  0.19640  Biso   1.000  C
  C1322    1.0000 0.15120  0.79790  0.19640  Biso   1.000  C
  C1323    1.0000 0.09880  0.04790  0.44640  Biso   1.000  C
  C1324    1.0000 0.40120  0.45210  0.44640  Biso   1.000  C
  C1325    1.0000 0.84880  0.70210  0.69640  Biso   1.000  C
  C1326    1.0000 0.15120  0.29790  0.69640  Biso   1.000  C
  C1327    1.0000 0.09880  0.54790  0.94640  Biso   1.000  C
  C1328    1.0000 0.40120  0.95210  0.94640  Biso   1.000  C
  C1329    1.0000 0.30660  0.58080  0.28440  Biso   1.000  C
  C1330    1.0000 0.69340  0.41920  0.28440  Biso   1.000  C
  C1331    1.0000 0.55660  0.66920  0.53440  Biso   1.000  C
  C1332    1.0000 0.94340  0.83080  0.53440  Biso   1.000  C
  C1333    1.0000 0.30660  0.08080  0.78440  Biso   1.000  C
  C1334    1.0000 0.69340  0.91920  0.78440  Biso   1.000  C
  C1335    1.0000 0.55660  0.16920  0.03440  Biso   1.000  C
  C1336    1.0000 0.94340  0.33080  0.03440  Biso   1.000  C
  C1337    1.0000 0.80660  0.58080  0.78440  Biso   1.000  C
  C1338    1.0000 0.19340  0.41920  0.78440  Biso   1.000  C
  C1339    1.0000 0.05660  0.66920  0.03440  Biso   1.000  C
  C1340    1.0000 0.44340  0.83080  0.03440  Biso   1.000  C
  C1341    1.0000 0.80660  0.08080  0.28440  Biso   1.000  C
  C1342    1.0000 0.19340  0.91920  0.28440  Biso   1.000  C
  C1343    1.0000 0.05660  0.16920  0.53440  Biso   1.000  C
  C1344    1.0000 0.44340  0.33080  0.53440  Biso   1.000  C
  H2465    1.0000 0.31140  0.55910  0.30320  Biso   1.000  H
  H2466    1.0000 0.68860  0.44090  0.30320  Biso   1.000  H
  H2467    1.0000 0.56140  0.69090  0.55320  Biso   1.000  H
  H2468    1.0000 0.93860  0.80910  0.55320  Biso   1.000  H
  H2469    1.0000 0.31140  0.05910  0.80320  Biso   1.000  H
  H2470    1.0000 0.68860  0.94090  0.80320  Biso   1.000  H
  H2471    1.0000 0.56140  0.19090  0.05320  Biso   1.000  H
  H2472    1.0000 0.93860  0.30910  0.05320  Biso   1.000  H
  H2473    1.0000 0.81140  0.55910  0.80320  Biso   1.000  H
  H2474    1.0000 0.18860  0.44090  0.80320  Biso   1.000  H
  H2475    1.0000 0.06140  0.69090  0.05320  Biso   1.000  H
  H2476    1.0000 0.43860  0.80910  0.05320  Biso   1.000  H
  H2477    1.0000 0.81140  0.05910  0.30320  Biso   1.000  H
  H2478    1.0000 0.18860  0.94090  0.30320  Biso   1.000  H
  H2479    1.0000 0.06140  0.19090  0.55320  Biso   1.000  H
  H2480    1.0000 0.43860  0.30910  0.55320  Biso   1.000  H
  H2481    1.0000 0.28630  0.59390  0.28710  Biso   1.000  H
  H2482    1.0000 0.71370  0.40610  0.28710  Biso   1.000  H
  H2483    1.0000 0.53630  0.65610  0.53710  Biso   1.000  H
  H2484    1.0000 0.96370  0.84390  0.53710  Biso   1.000  H
  H2485    1.0000 0.28630  0.09390  0.78710  Biso   1.000  H
  H2486    1.0000 0.71370  0.90610  0.78710  Biso   1.000  H
  H2487    1.0000 0.53630  0.15610  0.03710  Biso   1.000  H
  H2488    1.0000 0.96370  0.34390  0.03710  Biso   1.000  H
  H2489    1.0000 0.78630  0.59390  0.78710  Biso   1.000  H
  H2490    1.0000 0.21370  0.40610  0.78710  Biso   1.000  H
  H2491    1.0000 0.03630  0.65610  0.03710  Biso   1.000  H
  H2492    1.0000 0.46370  0.84390  0.03710  Biso   1.000  H
  H2493    1.0000 0.78630  0.09390  0.28710  Biso   1.000  H
  H2494    1.0000 0.21370  0.90610  0.28710  Biso   1.000  H
  H2495    1.0000 0.03630  0.15610  0.53710  Biso   1.000  H
  H2496    1.0000 0.46370  0.34390  0.53710  Biso   1.000  H
  H2497    1.0000 0.30790  0.56220  0.26360  Biso   1.000  H
  H2498    1.0000 0.69210  0.43780  0.26360  Biso   1.000  H
  H2499    1.0000 0.55790  0.68780  0.51360  Biso   1.000  H
  H2500    1.0000 0.94210  0.81220  0.51360  Biso   1.000  H
  H2501    1.0000 0.30790  0.06220  0.76360  Biso   1.000  H
  H2502    1.0000 0.69210  0.93780  0.76360  Biso   1.000  H
  H2503    1.0000 0.55790  0.18780  0.01360  Biso   1.000  H
  H2504    1.0000 0.94210  0.31220  0.01360  Biso   1.000  H
  H2505    1.0000 0.80790  0.56220  0.76360  Biso   1.000  H
  H2506    1.0000 0.19210  0.43780  0.76360  Biso   1.000  H
  H2507    1.0000 0.05790  0.68780  0.01360  Biso   1.000  H
  H2508    1.0000 0.44210  0.81220  0.01360  Biso   1.000  H
  H2509    1.0000 0.80790  0.06220  0.26360  Biso   1.000  H
  H2510    1.0000 0.19210  0.93780  0.26360  Biso   1.000  H
  H2511    1.0000 0.05790  0.18780  0.51360  Biso   1.000  H
  H2512    1.0000 0.44210  0.31220  0.51360  Biso   1.000  H
  C1345    1.0000 0.35310  0.16320  0.72340  Biso   1.000  C
  C1346    1.0000 0.64690  0.83680  0.72340  Biso   1.000  C
  C1347    1.0000 0.60310  0.08680  0.97340  Biso   1.000  C
  C1348    1.0000 0.89690  0.41320  0.97340  Biso   1.000  C
  C1349    1.0000 0.35310  0.66320  0.22340  Biso   1.000  C
  C1350    1.0000 0.64690  0.33680  0.22340  Biso   1.000  C
  C1351    1.0000 0.60310  0.58680  0.47340  Biso   1.000  C
  C1352    1.0000 0.89690  0.91320  0.47340  Biso   1.000  C
  C1353    1.0000 0.85310  0.16320  0.22340  Biso   1.000  C
  C1354    1.0000 0.14690  0.83680  0.22340  Biso   1.000  C
  C1355    1.0000 0.10310  0.08680  0.47340  Biso   1.000  C
  C1356    1.0000 0.39690  0.41320  0.47340  Biso   1.000  C
  C1357    1.0000 0.85310  0.66320  0.72340  Biso   1.000  C
  C1358    1.0000 0.14690  0.33680  0.72340  Biso   1.000  C
  C1359    1.0000 0.10310  0.58680  0.97340  Biso   1.000  C
  C1360    1.0000 0.39690  0.91320  0.97340  Biso   1.000  C
  H2513    1.0000 0.35030  0.17900  0.74600  Biso   1.000  H
  H2514    1.0000 0.64970  0.82100  0.74600  Biso   1.000  H
  H2515    1.0000 0.60030  0.07100  0.99600  Biso   1.000  H
  H2516    1.0000 0.89970  0.42900  0.99600  Biso   1.000  H
  H2517    1.0000 0.35030  0.67900  0.24600  Biso   1.000  H
  H2518    1.0000 0.64970  0.32100  0.24600  Biso   1.000  H
  H2519    1.0000 0.60030  0.57100  0.49600  Biso   1.000  H
  H2520    1.0000 0.89970  0.92900  0.49600  Biso   1.000  H
  H2521    1.0000 0.85030  0.17900  0.24600  Biso   1.000  H
  H2522    1.0000 0.14970  0.82100  0.24600  Biso   1.000  H
  H2523    1.0000 0.10030  0.07100  0.49600  Biso   1.000  H
  H2524    1.0000 0.39970  0.42900  0.49600  Biso   1.000  H
  H2525    1.0000 0.85030  0.67900  0.74600  Biso   1.000  H
  H2526    1.0000 0.14970  0.32100  0.74600  Biso   1.000  H
  H2527    1.0000 0.10030  0.57100  0.99600  Biso   1.000  H
  H2528    1.0000 0.39970  0.92900  0.99600  Biso   1.000  H
  H2529    1.0000 0.33730  0.13680  0.72080  Biso   1.000  H
  H2530    1.0000 0.66270  0.86320  0.72080  Biso   1.000  H
  H2531    1.0000 0.58730  0.11320  0.97080  Biso   1.000  H
  H2532    1.0000 0.91270  0.38680  0.97080  Biso   1.000  H
  H2533    1.0000 0.33730  0.63680  0.22080  Biso   1.000  H
  H2534    1.0000 0.66270  0.36320  0.22080  Biso   1.000  H
  H2535    1.0000 0.58730  0.61320  0.47080  Biso   1.000  H
  H2536    1.0000 0.91270  0.88680  0.47080  Biso   1.000  H
  H2537    1.0000 0.83730  0.13680  0.22080  Biso   1.000  H
  H2538    1.0000 0.16270  0.86320  0.22080  Biso   1.000  H
  H2539    1.0000 0.08730  0.11320  0.47080  Biso   1.000  H
  H2540    1.0000 0.41270  0.38680  0.47080  Biso   1.000  H
  H2541    1.0000 0.83730  0.63680  0.72080  Biso   1.000  H
  H2542    1.0000 0.16270  0.36320  0.72080  Biso   1.000  H
  H2543    1.0000 0.08730  0.61320  0.97080  Biso   1.000  H
  H2544    1.0000 0.41270  0.88680  0.97080  Biso   1.000  H
  C1361    1.0000 0.38400  0.13950  0.72180  Biso   1.000  C
  C1362    1.0000 0.61600  0.86050  0.72180  Biso   1.000  C
  C1363    1.0000 0.63400  0.11050  0.97180  Biso   1.000  C
  C1364    1.0000 0.86600  0.38950  0.97180  Biso   1.000  C
  C1365    1.0000 0.38400  0.63950  0.22180  Biso   1.000  C
  C1366    1.0000 0.61600  0.36050  0.22180  Biso   1.000  C
  C1367    1.0000 0.63400  0.61050  0.47180  Biso   1.000  C
  C1368    1.0000 0.86600  0.88950  0.47180  Biso   1.000  C
  C1369    1.0000 0.88400  0.13950  0.22180  Biso   1.000  C
  C1370    1.0000 0.11600  0.86050  0.22180  Biso   1.000  C
  C1371    1.0000 0.13400  0.11050  0.47180  Biso   1.000  C
  C1372    1.0000 0.36600  0.38950  0.47180  Biso   1.000  C
  C1373    1.0000 0.88400  0.63950  0.72180  Biso   1.000  C
  C1374    1.0000 0.11600  0.36050  0.72180  Biso   1.000  C
  C1375    1.0000 0.13400  0.61050  0.97180  Biso   1.000  C
  C1376    1.0000 0.36600  0.88950  0.97180  Biso   1.000  C
  H2545    1.0000 0.39910  0.16730  0.72270  Biso   1.000  H
  H2546    1.0000 0.60090  0.83270  0.72270  Biso   1.000  H
  H2547    1.0000 0.64910  0.08270  0.97270  Biso   1.000  H
  H2548    1.0000 0.85090  0.41730  0.97270  Biso   1.000  H
  H2549    1.0000 0.39910  0.66730  0.22270  Biso   1.000  H
  H2550    1.0000 0.60090  0.33270  0.22270  Biso   1.000  H
  H2551    1.0000 0.64910  0.58270  0.47270  Biso   1.000  H
  H2552    1.0000 0.85090  0.91730  0.47270  Biso   1.000  H
  H2553    1.0000 0.89910  0.16730  0.22270  Biso   1.000  H
  H2554    1.0000 0.10090  0.83270  0.22270  Biso   1.000  H
  H2555    1.0000 0.14910  0.08270  0.47270  Biso   1.000  H
  H2556    1.0000 0.35090  0.41730  0.47270  Biso   1.000  H
  H2557    1.0000 0.89910  0.66730  0.72270  Biso   1.000  H
  H2558    1.0000 0.10090  0.33270  0.72270  Biso   1.000  H
  H2559    1.0000 0.14910  0.58270  0.97270  Biso   1.000  H
  H2560    1.0000 0.35090  0.91730  0.97270  Biso   1.000  H
  H2561    1.0000 0.38590  0.12410  0.69900  Biso   1.000  H
  H2562    1.0000 0.61410  0.87590  0.69900  Biso   1.000  H
  H2563    1.0000 0.63590  0.12590  0.94900  Biso   1.000  H
  H2564    1.0000 0.86410  0.37410  0.94900  Biso   1.000  H
  H2565    1.0000 0.38590  0.62410  0.19900  Biso   1.000  H
  H2566    1.0000 0.61410  0.37590  0.19900  Biso   1.000  H
  H2567    1.0000 0.63590  0.62590  0.44900  Biso   1.000  H
  H2568    1.0000 0.86410  0.87410  0.44900  Biso   1.000  H
  H2569    1.0000 0.88590  0.12410  0.19900  Biso   1.000  H
  H2570    1.0000 0.11410  0.87590  0.19900  Biso   1.000  H
  H2571    1.0000 0.13590  0.12590  0.44900  Biso   1.000  H
  H2572    1.0000 0.36410  0.37410  0.44900  Biso   1.000  H
  H2573    1.0000 0.88590  0.62410  0.69900  Biso   1.000  H
  H2574    1.0000 0.11410  0.37590  0.69900  Biso   1.000  H
  H2575    1.0000 0.13590  0.62590  0.94900  Biso   1.000  H
  H2576    1.0000 0.36410  0.87410  0.94900  Biso   1.000  H
  C1377    1.0000 0.39480  0.09950  0.74760  Biso   1.000  C
  C1378    1.0000 0.60520  0.90050  0.74760  Biso   1.000  C
  C1379    1.0000 0.64480  0.15050  0.99760  Biso   1.000  C
  C1380    1.0000 0.85520  0.34950  0.99760  Biso   1.000  C
  C1381    1.0000 0.39480  0.59950  0.24760  Biso   1.000  C
  C1382    1.0000 0.60520  0.40050  0.24760  Biso   1.000  C
  C1383    1.0000 0.64480  0.65050  0.49760  Biso   1.000  C
  C1384    1.0000 0.85520  0.84950  0.49760  Biso   1.000  C
  C1385    1.0000 0.89480  0.09950  0.24760  Biso   1.000  C
  C1386    1.0000 0.10520  0.90050  0.24760  Biso   1.000  C
  C1387    1.0000 0.14480  0.15050  0.49760  Biso   1.000  C
  C1388    1.0000 0.35520  0.34950  0.49760  Biso   1.000  C
  C1389    1.0000 0.89480  0.59950  0.74760  Biso   1.000  C
  C1390    1.0000 0.10520  0.40050  0.74760  Biso   1.000  C
  C1391    1.0000 0.14480  0.65050  0.99760  Biso   1.000  C
  C1392    1.0000 0.35520  0.84950  0.99760  Biso   1.000  C
  H2577    1.0000 0.39280  0.11520  0.77030  Biso   1.000  H
  H2578    1.0000 0.60720  0.88480  0.77030  Biso   1.000  H
  H2579    1.0000 0.64280  0.13480  0.02030  Biso   1.000  H
  H2580    1.0000 0.85720  0.36520  0.02030  Biso   1.000  H
  H2581    1.0000 0.39280  0.61520  0.27030  Biso   1.000  H
  H2582    1.0000 0.60720  0.38480  0.27030  Biso   1.000  H
  H2583    1.0000 0.64280  0.63480  0.52030  Biso   1.000  H
  H2584    1.0000 0.85720  0.86520  0.52030  Biso   1.000  H
  H2585    1.0000 0.89280  0.11520  0.27030  Biso   1.000  H
  H2586    1.0000 0.10720  0.88480  0.27030  Biso   1.000  H
  H2587    1.0000 0.14280  0.13480  0.52030  Biso   1.000  H
  H2588    1.0000 0.35720  0.36520  0.52030  Biso   1.000  H
  H2589    1.0000 0.89280  0.61520  0.77030  Biso   1.000  H
  H2590    1.0000 0.10720  0.38480  0.77030  Biso   1.000  H
  H2591    1.0000 0.14280  0.63480  0.02030  Biso   1.000  H
  H2592    1.0000 0.35720  0.86520  0.02030  Biso   1.000  H
  H2593    1.0000 0.37960  0.07210  0.74660  Biso   1.000  H
  H2594    1.0000 0.62040  0.92790  0.74660  Biso   1.000  H
  H2595    1.0000 0.62960  0.17790  0.99660  Biso   1.000  H
  H2596    1.0000 0.87040  0.32210  0.99660  Biso   1.000  H
  H2597    1.0000 0.37960  0.57210  0.24660  Biso   1.000  H
  H2598    1.0000 0.62040  0.42790  0.24660  Biso   1.000  H
  H2599    1.0000 0.62960  0.67790  0.49660  Biso   1.000  H
  H2600    1.0000 0.87040  0.82210  0.49660  Biso   1.000  H
  H2601    1.0000 0.87960  0.07210  0.24660  Biso   1.000  H
  H2602    1.0000 0.12040  0.92790  0.24660  Biso   1.000  H
  H2603    1.0000 0.12960  0.17790  0.49660  Biso   1.000  H
  H2604    1.0000 0.37040  0.32210  0.49660  Biso   1.000  H
  H2605    1.0000 0.87960  0.57210  0.74660  Biso   1.000  H
  H2606    1.0000 0.12040  0.42790  0.74660  Biso   1.000  H
  H2607    1.0000 0.12960  0.67790  0.99660  Biso   1.000  H
  H2608    1.0000 0.37040  0.82210  0.99660  Biso   1.000  H
  C1393    1.0000 0.42630  0.07400  0.74700  Biso   1.000  C
  C1394    1.0000 0.57370  0.92600  0.74700  Biso   1.000  C
  C1395    1.0000 0.67630  0.17600  0.99700  Biso   1.000  C
  C1396    1.0000 0.82370  0.32400  0.99700  Biso   1.000  C
  C1397    1.0000 0.42630  0.57400  0.24700  Biso   1.000  C
  C1398    1.0000 0.57370  0.42600  0.24700  Biso   1.000  C
  C1399    1.0000 0.67630  0.67600  0.49700  Biso   1.000  C
  C1400    1.0000 0.82370  0.82400  0.49700  Biso   1.000  C
  C1401    1.0000 0.92630  0.07400  0.24700  Biso   1.000  C
  C1402    1.0000 0.07370  0.92600  0.24700  Biso   1.000  C
  C1403    1.0000 0.17630  0.17600  0.49700  Biso   1.000  C
  C1404    1.0000 0.32370  0.32400  0.49700  Biso   1.000  C
  C1405    1.0000 0.92630  0.57400  0.74700  Biso   1.000  C
  C1406    1.0000 0.07370  0.42600  0.74700  Biso   1.000  C
  C1407    1.0000 0.17630  0.67600  0.99700  Biso   1.000  C
  C1408    1.0000 0.32370  0.82400  0.99700  Biso   1.000  C
  H2609    1.0000 0.42730  0.04870  0.76540  Biso   1.000  H
  H2610    1.0000 0.57270  0.95130  0.76540  Biso   1.000  H
  H2611    1.0000 0.67730  0.20130  0.01540  Biso   1.000  H
  H2612    1.0000 0.82270  0.29870  0.01540  Biso   1.000  H
  H2613    1.0000 0.42730  0.54870  0.26540  Biso   1.000  H
  H2614    1.0000 0.57270  0.45130  0.26540  Biso   1.000  H
  H2615    1.0000 0.67730  0.70130  0.51540  Biso   1.000  H
  H2616    1.0000 0.82270  0.79870  0.51540  Biso   1.000  H
  H2617    1.0000 0.92730  0.04870  0.26540  Biso   1.000  H
  H2618    1.0000 0.07270  0.95130  0.26540  Biso   1.000  H
  H2619    1.0000 0.17730  0.20130  0.51540  Biso   1.000  H
  H2620    1.0000 0.32270  0.29870  0.51540  Biso   1.000  H
  H2621    1.0000 0.92730  0.54870  0.76540  Biso   1.000  H
  H2622    1.0000 0.07270  0.45130  0.76540  Biso   1.000  H
  H2623    1.0000 0.17730  0.70130  0.01540  Biso   1.000  H
  H2624    1.0000 0.32270  0.79870  0.01540  Biso   1.000  H
  H2625    1.0000 0.44230  0.09910  0.75070  Biso   1.000  H
  H2626    1.0000 0.55770  0.90090  0.75070  Biso   1.000  H
  H2627    1.0000 0.69230  0.15090  0.00070  Biso   1.000  H
  H2628    1.0000 0.80770  0.34910  0.00070  Biso   1.000  H
  H2629    1.0000 0.44230  0.59910  0.25070  Biso   1.000  H
  H2630    1.0000 0.55770  0.40090  0.25070  Biso   1.000  H
  H2631    1.0000 0.69230  0.65090  0.50070  Biso   1.000  H
  H2632    1.0000 0.80770  0.84910  0.50070  Biso   1.000  H
  H2633    1.0000 0.94230  0.09910  0.25070  Biso   1.000  H
  H2634    1.0000 0.05770  0.90090  0.25070  Biso   1.000  H
  H2635    1.0000 0.19230  0.15090  0.50070  Biso   1.000  H
  H2636    1.0000 0.30770  0.34910  0.50070  Biso   1.000  H
  H2637    1.0000 0.94230  0.59910  0.75070  Biso   1.000  H
  H2638    1.0000 0.05770  0.40090  0.75070  Biso   1.000  H
  H2639    1.0000 0.19230  0.65090  0.00070  Biso   1.000  H
  H2640    1.0000 0.30770  0.84910  0.00070  Biso   1.000  H
  H2641    1.0000 0.42950  0.05720  0.72520  Biso   1.000  H
  H2642    1.0000 0.57050  0.94280  0.72520  Biso   1.000  H
  H2643    1.0000 0.67950  0.19280  0.97520  Biso   1.000  H
  H2644    1.0000 0.82050  0.30720  0.97520  Biso   1.000  H
  H2645    1.0000 0.42950  0.55720  0.22520  Biso   1.000  H
  H2646    1.0000 0.57050  0.44280  0.22520  Biso   1.000  H
  H2647    1.0000 0.67950  0.69280  0.47520  Biso   1.000  H
  H2648    1.0000 0.82050  0.80720  0.47520  Biso   1.000  H
  H2649    1.0000 0.92950  0.05720  0.22520  Biso   1.000  H
  H2650    1.0000 0.07050  0.94280  0.22520  Biso   1.000  H
  H2651    1.0000 0.17950  0.19280  0.47520  Biso   1.000  H
  H2652    1.0000 0.32050  0.30720  0.47520  Biso   1.000  H
  H2653    1.0000 0.92950  0.55720  0.72520  Biso   1.000  H
  H2654    1.0000 0.07050  0.44280  0.72520  Biso   1.000  H
  H2655    1.0000 0.17950  0.69280  0.97520  Biso   1.000  H
  H2656    1.0000 0.32050  0.80720  0.97520  Biso   1.000  H
  C1409    1.0000 0.32340  0.63980  0.23730  Biso   1.000  C
  C1410    1.0000 0.67660  0.36020  0.23730  Biso   1.000  C
  C1411    1.0000 0.57340  0.61020  0.48730  Biso   1.000  C
  C1412    1.0000 0.92660  0.88980  0.48730  Biso   1.000  C
  C1413    1.0000 0.32340  0.13980  0.73730  Biso   1.000  C
  C1414    1.0000 0.67660  0.86020  0.73730  Biso   1.000  C
  C1415    1.0000 0.57340  0.11020  0.98730  Biso   1.000  C
  C1416    1.0000 0.92660  0.38980  0.98730  Biso   1.000  C
  C1417    1.0000 0.82340  0.63980  0.73730  Biso   1.000  C
  C1418    1.0000 0.17660  0.36020  0.73730  Biso   1.000  C
  C1419    1.0000 0.07340  0.61020  0.98730  Biso   1.000  C
  C1420    1.0000 0.42660  0.88980  0.98730  Biso   1.000  C
  C1421    1.0000 0.82340  0.13980  0.23730  Biso   1.000  C
  C1422    1.0000 0.17660  0.86020  0.23730  Biso   1.000  C
  C1423    1.0000 0.07340  0.11020  0.48730  Biso   1.000  C
  C1424    1.0000 0.42660  0.38980  0.48730  Biso   1.000  C
  H2657    1.0000 0.31390  0.61940  0.22020  Biso   1.000  H
  H2658    1.0000 0.68610  0.38060  0.22020  Biso   1.000  H
  H2659    1.0000 0.56390  0.63060  0.47020  Biso   1.000  H
  H2660    1.0000 0.93610  0.86940  0.47020  Biso   1.000  H
  H2661    1.0000 0.31390  0.11940  0.72020  Biso   1.000  H
  H2662    1.0000 0.68610  0.88060  0.72020  Biso   1.000  H
  H2663    1.0000 0.56390  0.13060  0.97020  Biso   1.000  H
  H2664    1.0000 0.93610  0.36940  0.97020  Biso   1.000  H
  H2665    1.0000 0.81390  0.61940  0.72020  Biso   1.000  H
  H2666    1.0000 0.18610  0.38060  0.72020  Biso   1.000  H
  H2667    1.0000 0.06390  0.63060  0.97020  Biso   1.000  H
  H2668    1.0000 0.43610  0.86940  0.97020  Biso   1.000  H
  H2669    1.0000 0.81390  0.11940  0.22020  Biso   1.000  H
  H2670    1.0000 0.18610  0.88060  0.22020  Biso   1.000  H
  H2671    1.0000 0.06390  0.13060  0.47020  Biso   1.000  H
  H2672    1.0000 0.43610  0.36940  0.47020  Biso   1.000  H
  H2673    1.0000 0.30940  0.66560  0.24410  Biso   1.000  H
  H2674    1.0000 0.69060  0.33440  0.24410  Biso   1.000  H
  H2675    1.0000 0.55940  0.58440  0.49410  Biso   1.000  H
  H2676    1.0000 0.94060  0.91560  0.49410  Biso   1.000  H
  H2677    1.0000 0.30940  0.16560  0.74410  Biso   1.000  H
  H2678    1.0000 0.69060  0.83440  0.74410  Biso   1.000  H
  H2679    1.0000 0.55940  0.08440  0.99410  Biso   1.000  H
  H2680    1.0000 0.94060  0.41560  0.99410  Biso   1.000  H
  H2681    1.0000 0.80940  0.66560  0.74410  Biso   1.000  H
  H2682    1.0000 0.19060  0.33440  0.74410  Biso   1.000  H
  H2683    1.0000 0.05940  0.58440  0.99410  Biso   1.000  H
  H2684    1.0000 0.44060  0.91560  0.99410  Biso   1.000  H
  H2685    1.0000 0.80940  0.16560  0.24410  Biso   1.000  H
  H2686    1.0000 0.19060  0.83440  0.24410  Biso   1.000  H
  H2687    1.0000 0.05940  0.08440  0.49410  Biso   1.000  H
  H2688    1.0000 0.44060  0.41560  0.49410  Biso   1.000  H
  C1425    1.0000 0.33400  0.60490  0.26630  Biso   1.000  C
  C1426    1.0000 0.66600  0.39510  0.26630  Biso   1.000  C
  C1427    1.0000 0.58400  0.64510  0.51630  Biso   1.000  C
  C1428    1.0000 0.91600  0.85490  0.51630  Biso   1.000  C
  C1429    1.0000 0.33400  0.10490  0.76630  Biso   1.000  C
  C1430    1.0000 0.66600  0.89510  0.76630  Biso   1.000  C
  C1431    1.0000 0.58400  0.14510  0.01630  Biso   1.000  C
  C1432    1.0000 0.91600  0.35490  0.01630  Biso   1.000  C
  C1433    1.0000 0.83400  0.60490  0.76630  Biso   1.000  C
  C1434    1.0000 0.16600  0.39510  0.76630  Biso   1.000  C
  C1435    1.0000 0.08400  0.64510  0.01630  Biso   1.000  C
  C1436    1.0000 0.41600  0.85490  0.01630  Biso   1.000  C
  C1437    1.0000 0.83400  0.10490  0.26630  Biso   1.000  C
  C1438    1.0000 0.16600  0.89510  0.26630  Biso   1.000  C
  C1439    1.0000 0.08400  0.14510  0.51630  Biso   1.000  C
  C1440    1.0000 0.41600  0.35490  0.51630  Biso   1.000  C
  H2689    1.0000 0.33300  0.62410  0.28700  Biso   1.000  H
  H2690    1.0000 0.66700  0.37590  0.28700  Biso   1.000  H
  H2691    1.0000 0.58300  0.62590  0.53700  Biso   1.000  H
  H2692    1.0000 0.91700  0.87410  0.53700  Biso   1.000  H
  H2693    1.0000 0.33300  0.12410  0.78700  Biso   1.000  H
  H2694    1.0000 0.66700  0.87590  0.78700  Biso   1.000  H
  H2695    1.0000 0.58300  0.12590  0.03700  Biso   1.000  H
  H2696    1.0000 0.91700  0.37410  0.03700  Biso   1.000  H
  H2697    1.0000 0.83300  0.62410  0.78700  Biso   1.000  H
  H2698    1.0000 0.16700  0.37590  0.78700  Biso   1.000  H
  H2699    1.0000 0.08300  0.62590  0.03700  Biso   1.000  H
  H2700    1.0000 0.41700  0.87410  0.03700  Biso   1.000  H
  H2701    1.0000 0.83300  0.12410  0.28700  Biso   1.000  H
  H2702    1.0000 0.16700  0.87590  0.28700  Biso   1.000  H
  H2703    1.0000 0.08300  0.12590  0.53700  Biso   1.000  H
  H2704    1.0000 0.41700  0.37410  0.53700  Biso   1.000  H
  H2705    1.0000 0.35450  0.59250  0.26350  Biso   1.000  H
  H2706    1.0000 0.64550  0.40750  0.26350  Biso   1.000  H
  H2707    1.0000 0.60450  0.65750  0.51350  Biso   1.000  H
  H2708    1.0000 0.89550  0.84250  0.51350  Biso   1.000  H
  H2709    1.0000 0.35450  0.09250  0.76350  Biso   1.000  H
  H2710    1.0000 0.64550  0.90750  0.76350  Biso   1.000  H
  H2711    1.0000 0.60450  0.15750  0.01350  Biso   1.000  H
  H2712    1.0000 0.89550  0.34250  0.01350  Biso   1.000  H
  H2713    1.0000 0.85450  0.59250  0.76350  Biso   1.000  H
  H2714    1.0000 0.14550  0.40750  0.76350  Biso   1.000  H
  H2715    1.0000 0.10450  0.65750  0.01350  Biso   1.000  H
  H2716    1.0000 0.39550  0.84250  0.01350  Biso   1.000  H
  H2717    1.0000 0.85450  0.09250  0.26350  Biso   1.000  H
  H2718    1.0000 0.14550  0.90750  0.26350  Biso   1.000  H
  H2719    1.0000 0.10450  0.15750  0.51350  Biso   1.000  H
  H2720    1.0000 0.39550  0.34250  0.51350  Biso   1.000  H
  C1441    1.0000 0.34110  0.23830  0.64870  Biso   1.000  C
  C1442    1.0000 0.65890  0.76170  0.64870  Biso   1.000  C
  C1443    1.0000 0.59110  0.01170  0.89870  Biso   1.000  C
  C1444    1.0000 0.90890  0.48830  0.89870  Biso   1.000  C
  C1445    1.0000 0.34110  0.73830  0.14870  Biso   1.000  C
  C1446    1.0000 0.65890  0.26170  0.14870  Biso   1.000  C
  C1447    1.0000 0.59110  0.51170  0.39870  Biso   1.000  C
  C1448    1.0000 0.90890  0.98830  0.39870  Biso   1.000  C
  C1449    1.0000 0.84110  0.23830  0.14870  Biso   1.000  C
  C1450    1.0000 0.15890  0.76170  0.14870  Biso   1.000  C
  C1451    1.0000 0.09110  0.01170  0.39870  Biso   1.000  C
  C1452    1.0000 0.40890  0.48830  0.39870  Biso   1.000  C
  C1453    1.0000 0.84110  0.73830  0.64870  Biso   1.000  C
  C1454    1.0000 0.15890  0.26170  0.64870  Biso   1.000  C
  C1455    1.0000 0.09110  0.51170  0.89870  Biso   1.000  C
  C1456    1.0000 0.40890  0.98830  0.89870  Biso   1.000  C
  C1457    1.0000 0.29210  0.28660  0.57770  Biso   1.000  C
  C1458    1.0000 0.70790  0.71340  0.57770  Biso   1.000  C
  C1459    1.0000 0.54210  0.96340  0.82770  Biso   1.000  C
  C1460    1.0000 0.95790  0.53660  0.82770  Biso   1.000  C
  C1461    1.0000 0.29210  0.78660  0.07770  Biso   1.000  C
  C1462    1.0000 0.70790  0.21340  0.07770  Biso   1.000  C
  C1463    1.0000 0.54210  0.46340  0.32770  Biso   1.000  C
  C1464    1.0000 0.95790  0.03660  0.32770  Biso   1.000  C
  C1465    1.0000 0.79210  0.28660  0.07770  Biso   1.000  C
  C1466    1.0000 0.20790  0.71340  0.07770  Biso   1.000  C
  C1467    1.0000 0.04210  0.96340  0.32770  Biso   1.000  C
  C1468    1.0000 0.45790  0.53660  0.32770  Biso   1.000  C
  C1469    1.0000 0.79210  0.78660  0.57770  Biso   1.000  C
  C1470    1.0000 0.20790  0.21340  0.57770  Biso   1.000  C
  C1471    1.0000 0.04210  0.46340  0.82770  Biso   1.000  C
  C1472    1.0000 0.45790  0.03660  0.82770  Biso   1.000  C
  H2721    1.0000 0.28010  0.31770  0.57600  Biso   1.000  H
  H2722    1.0000 0.71990  0.68230  0.57600  Biso   1.000  H
  H2723    1.0000 0.53010  0.93230  0.82600  Biso   1.000  H
  H2724    1.0000 0.96990  0.56770  0.82600  Biso   1.000  H
  H2725    1.0000 0.28010  0.81770  0.07600  Biso   1.000  H
  H2726    1.0000 0.71990  0.18230  0.07600  Biso   1.000  H
  H2727    1.0000 0.53010  0.43230  0.32600  Biso   1.000  H
  H2728    1.0000 0.96990  0.06770  0.32600  Biso   1.000  H
  H2729    1.0000 0.78010  0.31770  0.07600  Biso   1.000  H
  H2730    1.0000 0.21990  0.68230  0.07600  Biso   1.000  H
  H2731    1.0000 0.03010  0.93230  0.32600  Biso   1.000  H
  H2732    1.0000 0.46990  0.56770  0.32600  Biso   1.000  H
  H2733    1.0000 0.78010  0.81770  0.57600  Biso   1.000  H
  H2734    1.0000 0.21990  0.18230  0.57600  Biso   1.000  H
  H2735    1.0000 0.03010  0.43230  0.82600  Biso   1.000  H
  H2736    1.0000 0.46990  0.06770  0.82600  Biso   1.000  H
  H2737    1.0000 0.28820  0.26550  0.55780  Biso   1.000  H
  H2738    1.0000 0.71180  0.73450  0.55780  Biso   1.000  H
  H2739    1.0000 0.53820  0.98450  0.80780  Biso   1.000  H
  H2740    1.0000 0.96180  0.51550  0.80780  Biso   1.000  H
  H2741    1.0000 0.28820  0.76550  0.05780  Biso   1.000  H
  H2742    1.0000 0.71180  0.23450  0.05780  Biso   1.000  H
  H2743    1.0000 0.53820  0.48450  0.30780  Biso   1.000  H
  H2744    1.0000 0.96180  0.01550  0.30780  Biso   1.000  H
  H2745    1.0000 0.78820  0.26550  0.05780  Biso   1.000  H
  H2746    1.0000 0.21180  0.73450  0.05780  Biso   1.000  H
  H2747    1.0000 0.03820  0.98450  0.30780  Biso   1.000  H
  H2748    1.0000 0.46180  0.51550  0.30780  Biso   1.000  H
  H2749    1.0000 0.78820  0.76550  0.55780  Biso   1.000  H
  H2750    1.0000 0.21180  0.23450  0.55780  Biso   1.000  H
  H2751    1.0000 0.03820  0.48450  0.80780  Biso   1.000  H
  H2752    1.0000 0.46180  0.01550  0.80780  Biso   1.000  H
  H2753    1.0000 0.31390  0.29500  0.57870  Biso   1.000  H
  H2754    1.0000 0.68610  0.70500  0.57870  Biso   1.000  H
  H2755    1.0000 0.56390  0.95500  0.82870  Biso   1.000  H
  H2756    1.0000 0.93610  0.54500  0.82870  Biso   1.000  H
  H2757    1.0000 0.31390  0.79500  0.07870  Biso   1.000  H
  H2758    1.0000 0.68610  0.20500  0.07870  Biso   1.000  H
  H2759    1.0000 0.56390  0.45500  0.32870  Biso   1.000  H
  H2760    1.0000 0.93610  0.04500  0.32870  Biso   1.000  H
  H2761    1.0000 0.81390  0.29500  0.07870  Biso   1.000  H
  H2762    1.0000 0.18610  0.70500  0.07870  Biso   1.000  H
  H2763    1.0000 0.06390  0.95500  0.32870  Biso   1.000  H
  H2764    1.0000 0.43610  0.54500  0.32870  Biso   1.000  H
  H2765    1.0000 0.81390  0.79500  0.57870  Biso   1.000  H
  H2766    1.0000 0.18610  0.20500  0.57870  Biso   1.000  H
  H2767    1.0000 0.06390  0.45500  0.82870  Biso   1.000  H
  H2768    1.0000 0.43610  0.04500  0.82870  Biso   1.000  H
  C1473    1.0000 0.33840  0.24690  0.61100  Biso   1.000  C
  C1474    1.0000 0.66160  0.75310  0.61100  Biso   1.000  C
  C1475    1.0000 0.58840  0.00310  0.86100  Biso   1.000  C
  C1476    1.0000 0.91160  0.49690  0.86100  Biso   1.000  C
  C1477    1.0000 0.33840  0.74690  0.11100  Biso   1.000  C
  C1478    1.0000 0.66160  0.25310  0.11100  Biso   1.000  C
  C1479    1.0000 0.58840  0.50310  0.36100  Biso   1.000  C
  C1480    1.0000 0.91160  0.99690  0.36100  Biso   1.000  C
  C1481    1.0000 0.83840  0.24690  0.11100  Biso   1.000  C
  C1482    1.0000 0.16160  0.75310  0.11100  Biso   1.000  C
  C1483    1.0000 0.08840  0.00310  0.36100  Biso   1.000  C
  C1484    1.0000 0.41160  0.49690  0.36100  Biso   1.000  C
  C1485    1.0000 0.83840  0.74690  0.61100  Biso   1.000  C
  C1486    1.0000 0.16160  0.25310  0.61100  Biso   1.000  C
  C1487    1.0000 0.08840  0.50310  0.86100  Biso   1.000  C
  C1488    1.0000 0.41160  0.99690  0.86100  Biso   1.000  C
  H2769    1.0000 0.34110  0.28320  0.60610  Biso   1.000  H
  H2770    1.0000 0.65890  0.71680  0.60610  Biso   1.000  H
  H2771    1.0000 0.59110  0.96680  0.85610  Biso   1.000  H
  H2772    1.0000 0.90890  0.53320  0.85610  Biso   1.000  H
  H2773    1.0000 0.34110  0.78320  0.10610  Biso   1.000  H
  H2774    1.0000 0.65890  0.21680  0.10610  Biso   1.000  H
  H2775    1.0000 0.59110  0.46680  0.35610  Biso   1.000  H
  H2776    1.0000 0.90890  0.03320  0.35610  Biso   1.000  H
  H2777    1.0000 0.84110  0.28320  0.10610  Biso   1.000  H
  H2778    1.0000 0.15890  0.71680  0.10610  Biso   1.000  H
  H2779    1.0000 0.09110  0.96680  0.35610  Biso   1.000  H
  H2780    1.0000 0.40890  0.53320  0.35610  Biso   1.000  H
  H2781    1.0000 0.84110  0.78320  0.60610  Biso   1.000  H
  H2782    1.0000 0.15890  0.21680  0.60610  Biso   1.000  H
  H2783    1.0000 0.09110  0.46680  0.85610  Biso   1.000  H
  H2784    1.0000 0.40890  0.03320  0.85610  Biso   1.000  H
  H2785    1.0000 0.35530  0.22860  0.59980  Biso   1.000  H
  H2786    1.0000 0.64470  0.77140  0.59980  Biso   1.000  H
  H2787    1.0000 0.60530  0.02140  0.84980  Biso   1.000  H
  H2788    1.0000 0.89470  0.47860  0.84980  Biso   1.000  H
  H2789    1.0000 0.35530  0.72860  0.09980  Biso   1.000  H
  H2790    1.0000 0.64470  0.27140  0.09980  Biso   1.000  H
  H2791    1.0000 0.60530  0.52140  0.34980  Biso   1.000  H
  H2792    1.0000 0.89470  0.97860  0.34980  Biso   1.000  H
  H2793    1.0000 0.85530  0.22860  0.09980  Biso   1.000  H
  H2794    1.0000 0.14470  0.77140  0.09980  Biso   1.000  H
  H2795    1.0000 0.10530  0.02140  0.34980  Biso   1.000  H
  H2796    1.0000 0.39470  0.47860  0.34980  Biso   1.000  H
  H2797    1.0000 0.85530  0.72860  0.59980  Biso   1.000  H
  H2798    1.0000 0.14470  0.27140  0.59980  Biso   1.000  H
  H2799    1.0000 0.10530  0.52140  0.84980  Biso   1.000  H
  H2800    1.0000 0.39470  0.97860  0.84980  Biso   1.000  H
  C1489    1.0000 0.30880  0.22990  0.59580  Biso   1.000  C
  C1490    1.0000 0.69120  0.77010  0.59580  Biso   1.000  C
  C1491    1.0000 0.55880  0.02010  0.84580  Biso   1.000  C
  C1492    1.0000 0.94120  0.47990  0.84580  Biso   1.000  C
  C1493    1.0000 0.30880  0.72990  0.09580  Biso   1.000  C
  C1494    1.0000 0.69120  0.27010  0.09580  Biso   1.000  C
  C1495    1.0000 0.55880  0.52010  0.34580  Biso   1.000  C
  C1496    1.0000 0.94120  0.97990  0.34580  Biso   1.000  C
  C1497    1.0000 0.80880  0.22990  0.09580  Biso   1.000  C
  C1498    1.0000 0.19120  0.77010  0.09580  Biso   1.000  C
  C1499    1.0000 0.05880  0.02010  0.34580  Biso   1.000  C
  C1500    1.0000 0.44120  0.47990  0.34580  Biso   1.000  C
  C1501    1.0000 0.80880  0.72990  0.59580  Biso   1.000  C
  C1502    1.0000 0.19120  0.27010  0.59580  Biso   1.000  C
  C1503    1.0000 0.05880  0.52010  0.84580  Biso   1.000  C
  C1504    1.0000 0.44120  0.97990  0.84580  Biso   1.000  C
  H2801    1.0000 0.30950  0.23490  0.57090  Biso   1.000  H
  H2802    1.0000 0.69050  0.76510  0.57090  Biso   1.000  H
  H2803    1.0000 0.55950  0.01510  0.82090  Biso   1.000  H
  H2804    1.0000 0.94050  0.48490  0.82090  Biso   1.000  H
  H2805    1.0000 0.30950  0.73490  0.07090  Biso   1.000  H
  H2806    1.0000 0.69050  0.26510  0.07090  Biso   1.000  H
  H2807    1.0000 0.55950  0.51510  0.32090  Biso   1.000  H
  H2808    1.0000 0.94050  0.98490  0.32090  Biso   1.000  H
  H2809    1.0000 0.80950  0.23490  0.07090  Biso   1.000  H
  H2810    1.0000 0.19050  0.76510  0.07090  Biso   1.000  H
  H2811    1.0000 0.05950  0.01510  0.32090  Biso   1.000  H
  H2812    1.0000 0.44050  0.48490  0.32090  Biso   1.000  H
  H2813    1.0000 0.80950  0.73490  0.57090  Biso   1.000  H
  H2814    1.0000 0.19050  0.26510  0.57090  Biso   1.000  H
  H2815    1.0000 0.05950  0.51510  0.82090  Biso   1.000  H
  H2816    1.0000 0.44050  0.98490  0.82090  Biso   1.000  H
  H2817    1.0000 0.30580  0.19350  0.60020  Biso   1.000  H
  H2818    1.0000 0.69420  0.80650  0.60020  Biso   1.000  H
  H2819    1.0000 0.55580  0.05650  0.85020  Biso   1.000  H
  H2820    1.0000 0.94420  0.44350  0.85020  Biso   1.000  H
  H2821    1.0000 0.30580  0.69350  0.10020  Biso   1.000  H
  H2822    1.0000 0.69420  0.30650  0.10020  Biso   1.000  H
  H2823    1.0000 0.55580  0.55650  0.35020  Biso   1.000  H
  H2824    1.0000 0.94420  0.94350  0.35020  Biso   1.000  H
  H2825    1.0000 0.80580  0.19350  0.10020  Biso   1.000  H
  H2826    1.0000 0.19420  0.80650  0.10020  Biso   1.000  H
  H2827    1.0000 0.05580  0.05650  0.35020  Biso   1.000  H
  H2828    1.0000 0.44420  0.44350  0.35020  Biso   1.000  H
  H2829    1.0000 0.80580  0.69350  0.60020  Biso   1.000  H
  H2830    1.0000 0.19420  0.30650  0.60020  Biso   1.000  H
  H2831    1.0000 0.05580  0.55650  0.85020  Biso   1.000  H
  H2832    1.0000 0.44420  0.94350  0.85020  Biso   1.000  H
  C1505    1.0000 0.28190  0.25820  0.60930  Biso   1.000  C
  C1506    1.0000 0.71810  0.74180  0.60930  Biso   1.000  C
  C1507    1.0000 0.53190  0.99180  0.85930  Biso   1.000  C
  C1508    1.0000 0.96810  0.50820  0.85930  Biso   1.000  C
  C1509    1.0000 0.28190  0.75820  0.10930  Biso   1.000  C
  C1510    1.0000 0.71810  0.24180  0.10930  Biso   1.000  C
  C1511    1.0000 0.53190  0.49180  0.35930  Biso   1.000  C
  C1512    1.0000 0.96810  0.00820  0.35930  Biso   1.000  C
  C1513    1.0000 0.78190  0.25820  0.10930  Biso   1.000  C
  C1514    1.0000 0.21810  0.74180  0.10930  Biso   1.000  C
  C1515    1.0000 0.03190  0.99180  0.35930  Biso   1.000  C
  C1516    1.0000 0.46810  0.50820  0.35930  Biso   1.000  C
  C1517    1.0000 0.78190  0.75820  0.60930  Biso   1.000  C
  C1518    1.0000 0.21810  0.24180  0.60930  Biso   1.000  C
  C1519    1.0000 0.03190  0.49180  0.85930  Biso   1.000  C
  C1520    1.0000 0.46810  0.00820  0.85930  Biso   1.000  C
  H2833    1.0000 0.28590  0.27570  0.63100  Biso   1.000  H
  H2834    1.0000 0.71410  0.72430  0.63100  Biso   1.000  H
  H2835    1.0000 0.53590  0.97430  0.88100  Biso   1.000  H
  H2836    1.0000 0.96410  0.52570  0.88100  Biso   1.000  H
  H2837    1.0000 0.28590  0.77570  0.13100  Biso   1.000  H
  H2838    1.0000 0.71410  0.22430  0.13100  Biso   1.000  H
  H2839    1.0000 0.53590  0.47430  0.38100  Biso   1.000  H
  H2840    1.0000 0.96410  0.02570  0.38100  Biso   1.000  H
  H2841    1.0000 0.78590  0.27570  0.13100  Biso   1.000  H
  H2842    1.0000 0.21410  0.72430  0.13100  Biso   1.000  H
  H2843    1.0000 0.03590  0.97430  0.38100  Biso   1.000  H
  H2844    1.0000 0.46410  0.52570  0.38100  Biso   1.000  H
  H2845    1.0000 0.78590  0.77570  0.63100  Biso   1.000  H
  H2846    1.0000 0.21410  0.22430  0.63100  Biso   1.000  H
  H2847    1.0000 0.03590  0.47430  0.88100  Biso   1.000  H
  H2848    1.0000 0.46410  0.02570  0.88100  Biso   1.000  H
  H2849    1.0000 0.26180  0.24120  0.60870  Biso   1.000  H
  H2850    1.0000 0.73820  0.75880  0.60870  Biso   1.000  H
  H2851    1.0000 0.51180  0.00880  0.85870  Biso   1.000  H
  H2852    1.0000 0.98820  0.49120  0.85870  Biso   1.000  H
  H2853    1.0000 0.26180  0.74120  0.10870  Biso   1.000  H
  H2854    1.0000 0.73820  0.25880  0.10870  Biso   1.000  H
  H2855    1.0000 0.51180  0.50880  0.35870  Biso   1.000  H
  H2856    1.0000 0.98820  0.99120  0.35870  Biso   1.000  H
  H2857    1.0000 0.76180  0.24120  0.10870  Biso   1.000  H
  H2858    1.0000 0.23820  0.75880  0.10870  Biso   1.000  H
  H2859    1.0000 0.01180  0.00880  0.35870  Biso   1.000  H
  H2860    1.0000 0.48820  0.49120  0.35870  Biso   1.000  H
  H2861    1.0000 0.76180  0.74120  0.60870  Biso   1.000  H
  H2862    1.0000 0.23820  0.25880  0.60870  Biso   1.000  H
  H2863    1.0000 0.01180  0.50880  0.85870  Biso   1.000  H
  H2864    1.0000 0.48820  0.99120  0.85870  Biso   1.000  H
  C1521    1.0000 0.30730  0.28200  0.78740  Biso   1.000  C
  C1522    1.0000 0.69270  0.71800  0.78740  Biso   1.000  C
  C1523    1.0000 0.55730  0.96800  0.03740  Biso   1.000  C
  C1524    1.0000 0.94270  0.53200  0.03740  Biso   1.000  C
  C1525    1.0000 0.30730  0.78200  0.28740  Biso   1.000  C
  C1526    1.0000 0.69270  0.21800  0.28740  Biso   1.000  C
  C1527    1.0000 0.55730  0.46800  0.53740  Biso   1.000  C
  C1528    1.0000 0.94270  0.03200  0.53740  Biso   1.000  C
  C1529    1.0000 0.80730  0.28200  0.28740  Biso   1.000  C
  C1530    1.0000 0.19270  0.71800  0.28740  Biso   1.000  C
  C1531    1.0000 0.05730  0.96800  0.53740  Biso   1.000  C
  C1532    1.0000 0.44270  0.53200  0.53740  Biso   1.000  C
  C1533    1.0000 0.80730  0.78200  0.78740  Biso   1.000  C
  C1534    1.0000 0.19270  0.21800  0.78740  Biso   1.000  C
  C1535    1.0000 0.05730  0.46800  0.03740  Biso   1.000  C
  C1536    1.0000 0.44270  0.03200  0.03740  Biso   1.000  C
  C1537    1.0000 0.29250  0.32520  0.76880  Biso   1.000  C
  C1538    1.0000 0.70750  0.67480  0.76880  Biso   1.000  C
  C1539    1.0000 0.54250  0.92480  0.01880  Biso   1.000  C
  C1540    1.0000 0.95750  0.57520  0.01880  Biso   1.000  C
  C1541    1.0000 0.29250  0.82520  0.26880  Biso   1.000  C
  C1542    1.0000 0.70750  0.17480  0.26880  Biso   1.000  C
  C1543    1.0000 0.54250  0.42480  0.51880  Biso   1.000  C
  C1544    1.0000 0.95750  0.07520  0.51880  Biso   1.000  C
  C1545    1.0000 0.79250  0.32520  0.26880  Biso   1.000  C
  C1546    1.0000 0.20750  0.67480  0.26880  Biso   1.000  C
  C1547    1.0000 0.04250  0.92480  0.51880  Biso   1.000  C
  C1548    1.0000 0.45750  0.57520  0.51880  Biso   1.000  C
  C1549    1.0000 0.79250  0.82520  0.76880  Biso   1.000  C
  C1550    1.0000 0.20750  0.17480  0.76880  Biso   1.000  C
  C1551    1.0000 0.04250  0.42480  0.01880  Biso   1.000  C
  C1552    1.0000 0.45750  0.07520  0.01880  Biso   1.000  C
  H2865    1.0000 0.30830  0.34990  0.76240  Biso   1.000  H
  H2866    1.0000 0.69170  0.65010  0.76240  Biso   1.000  H
  H2867    1.0000 0.55830  0.90010  0.01240  Biso   1.000  H
  H2868    1.0000 0.94170  0.59990  0.01240  Biso   1.000  H
  H2869    1.0000 0.30830  0.84990  0.26240  Biso   1.000  H
  H2870    1.0000 0.69170  0.15010  0.26240  Biso   1.000  H
  H2871    1.0000 0.55830  0.40010  0.51240  Biso   1.000  H
  H2872    1.0000 0.94170  0.09990  0.51240  Biso   1.000  H
  H2873    1.0000 0.80830  0.34990  0.26240  Biso   1.000  H
  H2874    1.0000 0.19170  0.65010  0.26240  Biso   1.000  H
  H2875    1.0000 0.05830  0.90010  0.51240  Biso   1.000  H
  H2876    1.0000 0.44170  0.59990  0.51240  Biso   1.000  H
  H2877    1.0000 0.80830  0.84990  0.76240  Biso   1.000  H
  H2878    1.0000 0.19170  0.15010  0.76240  Biso   1.000  H
  H2879    1.0000 0.05830  0.40010  0.01240  Biso   1.000  H
  H2880    1.0000 0.44170  0.09990  0.01240  Biso   1.000  H
  H2881    1.0000 0.27780  0.34210  0.78420  Biso   1.000  H
  H2882    1.0000 0.72220  0.65790  0.78420  Biso   1.000  H
  H2883    1.0000 0.52780  0.90790  0.03420  Biso   1.000  H
  H2884    1.0000 0.97220  0.59210  0.03420  Biso   1.000  H
  H2885    1.0000 0.27780  0.84210  0.28420  Biso   1.000  H
  H2886    1.0000 0.72220  0.15790  0.28420  Biso   1.000  H
  H2887    1.0000 0.52780  0.40790  0.53420  Biso   1.000  H
  H2888    1.0000 0.97220  0.09210  0.53420  Biso   1.000  H
  H2889    1.0000 0.77780  0.34210  0.28420  Biso   1.000  H
  H2890    1.0000 0.22220  0.65790  0.28420  Biso   1.000  H
  H2891    1.0000 0.02780  0.90790  0.53420  Biso   1.000  H
  H2892    1.0000 0.47220  0.59210  0.53420  Biso   1.000  H
  H2893    1.0000 0.77780  0.84210  0.78420  Biso   1.000  H
  H2894    1.0000 0.22220  0.15790  0.78420  Biso   1.000  H
  H2895    1.0000 0.02780  0.40790  0.03420  Biso   1.000  H
  H2896    1.0000 0.47220  0.09210  0.03420  Biso   1.000  H
  C1553    1.0000 0.27580  0.30780  0.73730  Biso   1.000  C
  C1554    1.0000 0.72420  0.69220  0.73730  Biso   1.000  C
  C1555    1.0000 0.52580  0.94220  0.98730  Biso   1.000  C
  C1556    1.0000 0.97420  0.55780  0.98730  Biso   1.000  C
  C1557    1.0000 0.27580  0.80780  0.23730  Biso   1.000  C
  C1558    1.0000 0.72420  0.19220  0.23730  Biso   1.000  C
  C1559    1.0000 0.52580  0.44220  0.48730  Biso   1.000  C
  C1560    1.0000 0.97420  0.05780  0.48730  Biso   1.000  C
  C1561    1.0000 0.77580  0.30780  0.23730  Biso   1.000  C
  C1562    1.0000 0.22420  0.69220  0.23730  Biso   1.000  C
  C1563    1.0000 0.02580  0.94220  0.48730  Biso   1.000  C
  C1564    1.0000 0.47420  0.55780  0.48730  Biso   1.000  C
  C1565    1.0000 0.77580  0.80780  0.73730  Biso   1.000  C
  C1566    1.0000 0.22420  0.19220  0.73730  Biso   1.000  C
  C1567    1.0000 0.02580  0.44220  0.98730  Biso   1.000  C
  C1568    1.0000 0.47420  0.05780  0.98730  Biso   1.000  C
  H2897    1.0000 0.25880  0.28510  0.74370  Biso   1.000  H
  H2898    1.0000 0.74120  0.71490  0.74370  Biso   1.000  H
  H2899    1.0000 0.50880  0.96490  0.99370  Biso   1.000  H
  H2900    1.0000 0.99120  0.53510  0.99370  Biso   1.000  H
  H2901    1.0000 0.25880  0.78510  0.24370  Biso   1.000  H
  H2902    1.0000 0.74120  0.21490  0.24370  Biso   1.000  H
  H2903    1.0000 0.50880  0.46490  0.49370  Biso   1.000  H
  H2904    1.0000 0.99120  0.03510  0.49370  Biso   1.000  H
  H2905    1.0000 0.75880  0.28510  0.24370  Biso   1.000  H
  H2906    1.0000 0.24120  0.71490  0.24370  Biso   1.000  H
  H2907    1.0000 0.00880  0.96490  0.49370  Biso   1.000  H
  H2908    1.0000 0.49120  0.53510  0.49370  Biso   1.000  H
  H2909    1.0000 0.75880  0.78510  0.74370  Biso   1.000  H
  H2910    1.0000 0.24120  0.21490  0.74370  Biso   1.000  H
  H2911    1.0000 0.00880  0.46490  0.99370  Biso   1.000  H
  H2912    1.0000 0.49120  0.03510  0.99370  Biso   1.000  H
  H2913    1.0000 0.29000  0.28890  0.72240  Biso   1.000  H
  H2914    1.0000 0.71000  0.71110  0.72240  Biso   1.000  H
  H2915    1.0000 0.54000  0.96110  0.97240  Biso   1.000  H
  H2916    1.0000 0.96000  0.53890  0.97240  Biso   1.000  H
  H2917    1.0000 0.29000  0.78890  0.22240  Biso   1.000  H
  H2918    1.0000 0.71000  0.21110  0.22240  Biso   1.000  H
  H2919    1.0000 0.54000  0.46110  0.47240  Biso   1.000  H
  H2920    1.0000 0.96000  0.03890  0.47240  Biso   1.000  H
  H2921    1.0000 0.79000  0.28890  0.22240  Biso   1.000  H
  H2922    1.0000 0.21000  0.71110  0.22240  Biso   1.000  H
  H2923    1.0000 0.04000  0.96110  0.47240  Biso   1.000  H
  H2924    1.0000 0.46000  0.53890  0.47240  Biso   1.000  H
  H2925    1.0000 0.79000  0.78890  0.72240  Biso   1.000  H
  H2926    1.0000 0.21000  0.21110  0.72240  Biso   1.000  H
  H2927    1.0000 0.04000  0.46110  0.97240  Biso   1.000  H
  H2928    1.0000 0.46000  0.03890  0.97240  Biso   1.000  H
  C1569    1.0000 0.26280  0.35450  0.71770  Biso   1.000  C
  C1570    1.0000 0.73720  0.64550  0.71770  Biso   1.000  C
  C1571    1.0000 0.51280  0.89550  0.96770  Biso   1.000  C
  C1572    1.0000 0.98720  0.60450  0.96770  Biso   1.000  C
  C1573    1.0000 0.26280  0.85450  0.21770  Biso   1.000  C
  C1574    1.0000 0.73720  0.14550  0.21770  Biso   1.000  C
  C1575    1.0000 0.51280  0.39550  0.46770  Biso   1.000  C
  C1576    1.0000 0.98720  0.10450  0.46770  Biso   1.000  C
  C1577    1.0000 0.76280  0.35450  0.21770  Biso   1.000  C
  C1578    1.0000 0.23720  0.64550  0.21770  Biso   1.000  C
  C1579    1.0000 0.01280  0.89550  0.46770  Biso   1.000  C
  C1580    1.0000 0.48720  0.60450  0.46770  Biso   1.000  C
  C1581    1.0000 0.76280  0.85450  0.71770  Biso   1.000  C
  C1582    1.0000 0.23720  0.14550  0.71770  Biso   1.000  C
  C1583    1.0000 0.01280  0.39550  0.96770  Biso   1.000  C
  C1584    1.0000 0.48720  0.10450  0.96770  Biso   1.000  C
  H2929    1.0000 0.24810  0.37240  0.73240  Biso   1.000  H
  H2930    1.0000 0.75190  0.62760  0.73240  Biso   1.000  H
  H2931    1.0000 0.49810  0.87760  0.98240  Biso   1.000  H
  H2932    1.0000 0.00190  0.62240  0.98240  Biso   1.000  H
  H2933    1.0000 0.24810  0.87240  0.23240  Biso   1.000  H
  H2934    1.0000 0.75190  0.12760  0.23240  Biso   1.000  H
  H2935    1.0000 0.49810  0.37760  0.48240  Biso   1.000  H
  H2936    1.0000 0.00190  0.12240  0.48240  Biso   1.000  H
  H2937    1.0000 0.74810  0.37240  0.23240  Biso   1.000  H
  H2938    1.0000 0.25190  0.62760  0.23240  Biso   1.000  H
  H2939    1.0000 0.99810  0.87760  0.48240  Biso   1.000  H
  H2940    1.0000 0.50190  0.62240  0.48240  Biso   1.000  H
  H2941    1.0000 0.74810  0.87240  0.73240  Biso   1.000  H
  H2942    1.0000 0.25190  0.12760  0.73240  Biso   1.000  H
  H2943    1.0000 0.99810  0.37760  0.98240  Biso   1.000  H
  H2944    1.0000 0.50190  0.12240  0.98240  Biso   1.000  H
  H2945    1.0000 0.27980  0.37790  0.71240  Biso   1.000  H
  H2946    1.0000 0.72020  0.62210  0.71240  Biso   1.000  H
  H2947    1.0000 0.52980  0.87210  0.96240  Biso   1.000  H
  H2948    1.0000 0.97020  0.62790  0.96240  Biso   1.000  H
  H2949    1.0000 0.27980  0.87790  0.21240  Biso   1.000  H
  H2950    1.0000 0.72020  0.12210  0.21240  Biso   1.000  H
  H2951    1.0000 0.52980  0.37210  0.46240  Biso   1.000  H
  H2952    1.0000 0.97020  0.12790  0.46240  Biso   1.000  H
  H2953    1.0000 0.77980  0.37790  0.21240  Biso   1.000  H
  H2954    1.0000 0.22020  0.62210  0.21240  Biso   1.000  H
  H2955    1.0000 0.02980  0.87210  0.46240  Biso   1.000  H
  H2956    1.0000 0.47020  0.62790  0.46240  Biso   1.000  H
  H2957    1.0000 0.77980  0.87790  0.71240  Biso   1.000  H
  H2958    1.0000 0.22020  0.12210  0.71240  Biso   1.000  H
  H2959    1.0000 0.02980  0.37210  0.96240  Biso   1.000  H
  H2960    1.0000 0.47020  0.12790  0.96240  Biso   1.000  H
  C1585    1.0000 0.24690  0.33850  0.68450  Biso   1.000  C
  C1586    1.0000 0.75310  0.66150  0.68450  Biso   1.000  C
  C1587    1.0000 0.49690  0.91150  0.93450  Biso   1.000  C
  C1588    1.0000 0.00310  0.58850  0.93450  Biso   1.000  C
  C1589    1.0000 0.24690  0.83850  0.18450  Biso   1.000  C
  C1590    1.0000 0.75310  0.16150  0.18450  Biso   1.000  C
  C1591    1.0000 0.49690  0.41150  0.43450  Biso   1.000  C
  C1592    1.0000 0.00310  0.08850  0.43450  Biso   1.000  C
  C1593    1.0000 0.74690  0.33850  0.18450  Biso   1.000  C
  C1594    1.0000 0.25310  0.66150  0.18450  Biso   1.000  C
  C1595    1.0000 0.99690  0.91150  0.43450  Biso   1.000  C
  C1596    1.0000 0.50310  0.58850  0.43450  Biso   1.000  C
  C1597    1.0000 0.74690  0.83850  0.68450  Biso   1.000  C
  C1598    1.0000 0.25310  0.16150  0.68450  Biso   1.000  C
  C1599    1.0000 0.99690  0.41150  0.93450  Biso   1.000  C
  C1600    1.0000 0.50310  0.08850  0.93450  Biso   1.000  C
  H2961    1.0000 0.23920  0.36840  0.67270  Biso   1.000  H
  H2962    1.0000 0.76080  0.63160  0.67270  Biso   1.000  H
  H2963    1.0000 0.48920  0.88160  0.92270  Biso   1.000  H
  H2964    1.0000 0.01080  0.61840  0.92270  Biso   1.000  H
  H2965    1.0000 0.23920  0.86840  0.17270  Biso   1.000  H
  H2966    1.0000 0.76080  0.13160  0.17270  Biso   1.000  H
  H2967    1.0000 0.48920  0.38160  0.42270  Biso   1.000  H
  H2968    1.0000 0.01080  0.11840  0.42270  Biso   1.000  H
  H2969    1.0000 0.73920  0.36840  0.17270  Biso   1.000  H
  H2970    1.0000 0.26080  0.63160  0.17270  Biso   1.000  H
  H2971    1.0000 0.98920  0.88160  0.42270  Biso   1.000  H
  H2972    1.0000 0.51080  0.61840  0.42270  Biso   1.000  H
  H2973    1.0000 0.73920  0.86840  0.67270  Biso   1.000  H
  H2974    1.0000 0.26080  0.13160  0.67270  Biso   1.000  H
  H2975    1.0000 0.98920  0.38160  0.92270  Biso   1.000  H
  H2976    1.0000 0.51080  0.11840  0.92270  Biso   1.000  H
  H2977    1.0000 0.22980  0.31600  0.68980  Biso   1.000  H
  H2978    1.0000 0.77020  0.68400  0.68980  Biso   1.000  H
  H2979    1.0000 0.47980  0.93400  0.93980  Biso   1.000  H
  H2980    1.0000 0.02020  0.56600  0.93980  Biso   1.000  H
  H2981    1.0000 0.22980  0.81600  0.18980  Biso   1.000  H
  H2982    1.0000 0.77020  0.18400  0.18980  Biso   1.000  H
  H2983    1.0000 0.47980  0.43400  0.43980  Biso   1.000  H
  H2984    1.0000 0.02020  0.06600  0.43980  Biso   1.000  H
  H2985    1.0000 0.72980  0.31600  0.18980  Biso   1.000  H
  H2986    1.0000 0.27020  0.68400  0.18980  Biso   1.000  H
  H2987    1.0000 0.97980  0.93400  0.43980  Biso   1.000  H
  H2988    1.0000 0.52020  0.56600  0.43980  Biso   1.000  H
  H2989    1.0000 0.72980  0.81600  0.68980  Biso   1.000  H
  H2990    1.0000 0.27020  0.18400  0.68980  Biso   1.000  H
  H2991    1.0000 0.97980  0.43400  0.93980  Biso   1.000  H
  H2992    1.0000 0.52020  0.06600  0.93980  Biso   1.000  H
  H2993    1.0000 0.26150  0.32090  0.66990  Biso   1.000  H
  H2994    1.0000 0.73850  0.67910  0.66990  Biso   1.000  H
  H2995    1.0000 0.51150  0.92910  0.91990  Biso   1.000  H
  H2996    1.0000 0.98850  0.57090  0.91990  Biso   1.000  H
  H2997    1.0000 0.26150  0.82090  0.16990  Biso   1.000  H
  H2998    1.0000 0.73850  0.17910  0.16990  Biso   1.000  H
  H2999    1.0000 0.51150  0.42910  0.41990  Biso   1.000  H
  H3000    1.0000 0.98850  0.07090  0.41990  Biso   1.000  H
  H3001    1.0000 0.76150  0.32090  0.16990  Biso   1.000  H
  H3002    1.0000 0.23850  0.67910  0.16990  Biso   1.000  H
  H3003    1.0000 0.01150  0.92910  0.41990  Biso   1.000  H
  H3004    1.0000 0.48850  0.57090  0.41990  Biso   1.000  H
  H3005    1.0000 0.76150  0.82090  0.66990  Biso   1.000  H
  H3006    1.0000 0.23850  0.17910  0.66990  Biso   1.000  H
  H3007    1.0000 0.01150  0.42910  0.91990  Biso   1.000  H
  H3008    1.0000 0.48850  0.07090  0.91990  Biso   1.000  H
  C1601    1.0000 0.31450  0.22360  0.82230  Biso   1.000  C
  C1602    1.0000 0.68550  0.77640  0.82230  Biso   1.000  C
  C1603    1.0000 0.56450  0.02640  0.07230  Biso   1.000  C
  C1604    1.0000 0.93550  0.47360  0.07230  Biso   1.000  C
  C1605    1.0000 0.31450  0.72360  0.32230  Biso   1.000  C
  C1606    1.0000 0.68550  0.27640  0.32230  Biso   1.000  C
  C1607    1.0000 0.56450  0.52640  0.57230  Biso   1.000  C
  C1608    1.0000 0.93550  0.97360  0.57230  Biso   1.000  C
  C1609    1.0000 0.81450  0.22360  0.32230  Biso   1.000  C
  C1610    1.0000 0.18550  0.77640  0.32230  Biso   1.000  C
  C1611    1.0000 0.06450  0.02640  0.57230  Biso   1.000  C
  C1612    1.0000 0.43550  0.47360  0.57230  Biso   1.000  C
  C1613    1.0000 0.81450  0.72360  0.82230  Biso   1.000  C
  C1614    1.0000 0.18550  0.27640  0.82230  Biso   1.000  C
  C1615    1.0000 0.06450  0.52640  0.07230  Biso   1.000  C
  C1616    1.0000 0.43550  0.97360  0.07230  Biso   1.000  C
  C1617    1.0000 0.27910  0.19540  0.93940  Biso   1.000  C
  C1618    1.0000 0.72090  0.80460  0.93940  Biso   1.000  C
  C1619    1.0000 0.52910  0.05460  0.18940  Biso   1.000  C
  C1620    1.0000 0.97090  0.44540  0.18940  Biso   1.000  C
  C1621    1.0000 0.27910  0.69540  0.43940  Biso   1.000  C
  C1622    1.0000 0.72090  0.30460  0.43940  Biso   1.000  C
  C1623    1.0000 0.52910  0.55460  0.68940  Biso   1.000  C
  C1624    1.0000 0.97090  0.94540  0.68940  Biso   1.000  C
  C1625    1.0000 0.77910  0.19540  0.43940  Biso   1.000  C
  C1626    1.0000 0.22090  0.80460  0.43940  Biso   1.000  C
  C1627    1.0000 0.02910  0.05460  0.68940  Biso   1.000  C
  C1628    1.0000 0.47090  0.44540  0.68940  Biso   1.000  C
  C1629    1.0000 0.77910  0.69540  0.93940  Biso   1.000  C
  C1630    1.0000 0.22090  0.30460  0.93940  Biso   1.000  C
  C1631    1.0000 0.02910  0.55460  0.18940  Biso   1.000  C
  C1632    1.0000 0.47090  0.94540  0.18940  Biso   1.000  C
  H3009    1.0000 0.27810  0.17300  0.95920  Biso   1.000  H
  H3010    1.0000 0.72190  0.82700  0.95920  Biso   1.000  H
  H3011    1.0000 0.52810  0.07700  0.20920  Biso   1.000  H
  H3012    1.0000 0.97190  0.42300  0.20920  Biso   1.000  H
  H3013    1.0000 0.27810  0.67300  0.45920  Biso   1.000  H
  H3014    1.0000 0.72190  0.32700  0.45920  Biso   1.000  H
  H3015    1.0000 0.52810  0.57700  0.70920  Biso   1.000  H
  H3016    1.0000 0.97190  0.92300  0.70920  Biso   1.000  H
  H3017    1.0000 0.77810  0.17300  0.45920  Biso   1.000  H
  H3018    1.0000 0.22190  0.82700  0.45920  Biso   1.000  H
  H3019    1.0000 0.02810  0.07700  0.70920  Biso   1.000  H
  H3020    1.0000 0.47190  0.42300  0.70920  Biso   1.000  H
  H3021    1.0000 0.77810  0.67300  0.95920  Biso   1.000  H
  H3022    1.0000 0.22190  0.32700  0.95920  Biso   1.000  H
  H3023    1.0000 0.02810  0.57700  0.20920  Biso   1.000  H
  H3024    1.0000 0.47190  0.92300  0.20920  Biso   1.000  H
  H3025    1.0000 0.25880  0.19790  0.92900  Biso   1.000  H
  H3026    1.0000 0.74120  0.80210  0.92900  Biso   1.000  H
  H3027    1.0000 0.50880  0.05210  0.17900  Biso   1.000  H
  H3028    1.0000 0.99120  0.44790  0.17900  Biso   1.000  H
  H3029    1.0000 0.25880  0.69790  0.42900  Biso   1.000  H
  H3030    1.0000 0.74120  0.30210  0.42900  Biso   1.000  H
  H3031    1.0000 0.50880  0.55210  0.67900  Biso   1.000  H
  H3032    1.0000 0.99120  0.94790  0.67900  Biso   1.000  H
  H3033    1.0000 0.75880  0.19790  0.42900  Biso   1.000  H
  H3034    1.0000 0.24120  0.80210  0.42900  Biso   1.000  H
  H3035    1.0000 0.00880  0.05210  0.67900  Biso   1.000  H
  H3036    1.0000 0.49120  0.44790  0.67900  Biso   1.000  H
  H3037    1.0000 0.75880  0.69790  0.92900  Biso   1.000  H
  H3038    1.0000 0.24120  0.30210  0.92900  Biso   1.000  H
  H3039    1.0000 0.00880  0.55210  0.17900  Biso   1.000  H
  H3040    1.0000 0.49120  0.94790  0.17900  Biso   1.000  H
  H3041    1.0000 0.28570  0.22890  0.94670  Biso   1.000  H
  H3042    1.0000 0.71430  0.77110  0.94670  Biso   1.000  H
  H3043    1.0000 0.53570  0.02110  0.19670  Biso   1.000  H
  H3044    1.0000 0.96430  0.47890  0.19670  Biso   1.000  H
  H3045    1.0000 0.28570  0.72890  0.44670  Biso   1.000  H
  H3046    1.0000 0.71430  0.27110  0.44670  Biso   1.000  H
  H3047    1.0000 0.53570  0.52110  0.69670  Biso   1.000  H
  H3048    1.0000 0.96430  0.97890  0.69670  Biso   1.000  H
  H3049    1.0000 0.78570  0.22890  0.44670  Biso   1.000  H
  H3050    1.0000 0.21430  0.77110  0.44670  Biso   1.000  H
  H3051    1.0000 0.03570  0.02110  0.69670  Biso   1.000  H
  H3052    1.0000 0.46430  0.47890  0.69670  Biso   1.000  H
  H3053    1.0000 0.78570  0.72890  0.94670  Biso   1.000  H
  H3054    1.0000 0.21430  0.27110  0.94670  Biso   1.000  H
  H3055    1.0000 0.03570  0.52110  0.19670  Biso   1.000  H
  H3056    1.0000 0.46430  0.97890  0.19670  Biso   1.000  H
  C1633    1.0000 0.29910  0.07410  0.77300  Biso   1.000  C
  C1634    1.0000 0.70090  0.92590  0.77300  Biso   1.000  C
  C1635    1.0000 0.54910  0.17590  0.02300  Biso   1.000  C
  C1636    1.0000 0.95090  0.32410  0.02300  Biso   1.000  C
  C1637    1.0000 0.29910  0.57410  0.27300  Biso   1.000  C
  C1638    1.0000 0.70090  0.42590  0.27300  Biso   1.000  C
  C1639    1.0000 0.54910  0.67590  0.52300  Biso   1.000  C
  C1640    1.0000 0.95090  0.82410  0.52300  Biso   1.000  C
  C1641    1.0000 0.79910  0.07410  0.27300  Biso   1.000  C
  C1642    1.0000 0.20090  0.92590  0.27300  Biso   1.000  C
  C1643    1.0000 0.04910  0.17590  0.52300  Biso   1.000  C
  C1644    1.0000 0.45090  0.32410  0.52300  Biso   1.000  C
  C1645    1.0000 0.79910  0.57410  0.77300  Biso   1.000  C
  C1646    1.0000 0.20090  0.42590  0.77300  Biso   1.000  C
  C1647    1.0000 0.04910  0.67590  0.02300  Biso   1.000  C
  C1648    1.0000 0.45090  0.82410  0.02300  Biso   1.000  C
  H3057    1.0000 0.28590  0.08290  0.75450  Biso   1.000  H
  H3058    1.0000 0.71410  0.91710  0.75450  Biso   1.000  H
  H3059    1.0000 0.53590  0.16710  0.00450  Biso   1.000  H
  H3060    1.0000 0.96410  0.33290  0.00450  Biso   1.000  H
  H3061    1.0000 0.28590  0.58290  0.25450  Biso   1.000  H
  H3062    1.0000 0.71410  0.41710  0.25450  Biso   1.000  H
  H3063    1.0000 0.53590  0.66710  0.50450  Biso   1.000  H
  H3064    1.0000 0.96410  0.83290  0.50450  Biso   1.000  H
  H3065    1.0000 0.78590  0.08290  0.25450  Biso   1.000  H
  H3066    1.0000 0.21410  0.91710  0.25450  Biso   1.000  H
  H3067    1.0000 0.03590  0.16710  0.50450  Biso   1.000  H
  H3068    1.0000 0.46410  0.33290  0.50450  Biso   1.000  H
  H3069    1.0000 0.78590  0.58290  0.75450  Biso   1.000  H
  H3070    1.0000 0.21410  0.41710  0.75450  Biso   1.000  H
  H3071    1.0000 0.03590  0.66710  0.00450  Biso   1.000  H
  H3072    1.0000 0.46410  0.83290  0.00450  Biso   1.000  H
  H3073    1.0000 0.32010  0.07920  0.76620  Biso   1.000  H
  H3074    1.0000 0.67990  0.92080  0.76620  Biso   1.000  H
  H3075    1.0000 0.57010  0.17080  0.01620  Biso   1.000  H
  H3076    1.0000 0.92990  0.32920  0.01620  Biso   1.000  H
  H3077    1.0000 0.32010  0.57920  0.26620  Biso   1.000  H
  H3078    1.0000 0.67990  0.42080  0.26620  Biso   1.000  H
  H3079    1.0000 0.57010  0.67080  0.51620  Biso   1.000  H
  H3080    1.0000 0.92990  0.82920  0.51620  Biso   1.000  H
  H3081    1.0000 0.82010  0.07920  0.26620  Biso   1.000  H
  H3082    1.0000 0.17990  0.92080  0.26620  Biso   1.000  H
  H3083    1.0000 0.07010  0.17080  0.51620  Biso   1.000  H
  H3084    1.0000 0.42990  0.32920  0.51620  Biso   1.000  H
  H3085    1.0000 0.82010  0.57920  0.76620  Biso   1.000  H
  H3086    1.0000 0.17990  0.42080  0.76620  Biso   1.000  H
  H3087    1.0000 0.07010  0.67080  0.01620  Biso   1.000  H
  H3088    1.0000 0.42990  0.82920  0.01620  Biso   1.000  H
  H3089    1.0000 0.29620  0.03940  0.77890  Biso   1.000  H
  H3090    1.0000 0.70380  0.96060  0.77890  Biso   1.000  H
  H3091    1.0000 0.54620  0.21060  0.02890  Biso   1.000  H
  H3092    1.0000 0.95380  0.28940  0.02890  Biso   1.000  H
  H3093    1.0000 0.29620  0.53940  0.27890  Biso   1.000  H
  H3094    1.0000 0.70380  0.46060  0.27890  Biso   1.000  H
  H3095    1.0000 0.54620  0.71060  0.52890  Biso   1.000  H
  H3096    1.0000 0.95380  0.78940  0.52890  Biso   1.000  H
  H3097    1.0000 0.79620  0.03940  0.27890  Biso   1.000  H
  H3098    1.0000 0.20380  0.96060  0.27890  Biso   1.000  H
  H3099    1.0000 0.04620  0.21060  0.52890  Biso   1.000  H
  H3100    1.0000 0.45380  0.28940  0.52890  Biso   1.000  H
  H3101    1.0000 0.79620  0.53940  0.77890  Biso   1.000  H
  H3102    1.0000 0.20380  0.46060  0.77890  Biso   1.000  H
  H3103    1.0000 0.04620  0.71060  0.02890  Biso   1.000  H
  H3104    1.0000 0.45380  0.78940  0.02890  Biso   1.000  H
  C1649    1.0000 0.30930  0.18290  0.85010  Biso   1.000  C
  C1650    1.0000 0.69070  0.81710  0.85010  Biso   1.000  C
  C1651    1.0000 0.55930  0.06710  0.10010  Biso   1.000  C
  C1652    1.0000 0.94070  0.43290  0.10010  Biso   1.000  C
  C1653    1.0000 0.30930  0.68290  0.35010  Biso   1.000  C
  C1654    1.0000 0.69070  0.31710  0.35010  Biso   1.000  C
  C1655    1.0000 0.55930  0.56710  0.60010  Biso   1.000  C
  C1656    1.0000 0.94070  0.93290  0.60010  Biso   1.000  C
  C1657    1.0000 0.80930  0.18290  0.35010  Biso   1.000  C
  C1658    1.0000 0.19070  0.81710  0.35010  Biso   1.000  C
  C1659    1.0000 0.05930  0.06710  0.60010  Biso   1.000  C
  C1660    1.0000 0.44070  0.43290  0.60010  Biso   1.000  C
  C1661    1.0000 0.80930  0.68290  0.85010  Biso   1.000  C
  C1662    1.0000 0.19070  0.31710  0.85010  Biso   1.000  C
  C1663    1.0000 0.05930  0.56710  0.10010  Biso   1.000  C
  C1664    1.0000 0.44070  0.93290  0.10010  Biso   1.000  C
  H3105    1.0000 0.29140  0.16180  0.84430  Biso   1.000  H
  H3106    1.0000 0.70860  0.83820  0.84430  Biso   1.000  H
  H3107    1.0000 0.54140  0.08820  0.09430  Biso   1.000  H
  H3108    1.0000 0.95860  0.41180  0.09430  Biso   1.000  H
  H3109    1.0000 0.29140  0.66180  0.34430  Biso   1.000  H
  H3110    1.0000 0.70860  0.33820  0.34430  Biso   1.000  H
  H3111    1.0000 0.54140  0.58820  0.59430  Biso   1.000  H
  H3112    1.0000 0.95860  0.91180  0.59430  Biso   1.000  H
  H3113    1.0000 0.79140  0.16180  0.34430  Biso   1.000  H
  H3114    1.0000 0.20860  0.83820  0.34430  Biso   1.000  H
  H3115    1.0000 0.04140  0.08820  0.59430  Biso   1.000  H
  H3116    1.0000 0.45860  0.41180  0.59430  Biso   1.000  H
  H3117    1.0000 0.79140  0.66180  0.84430  Biso   1.000  H
  H3118    1.0000 0.20860  0.33820  0.84430  Biso   1.000  H
  H3119    1.0000 0.04140  0.58820  0.09430  Biso   1.000  H
  H3120    1.0000 0.45860  0.91180  0.09430  Biso   1.000  H
  H3121    1.0000 0.32750  0.16080  0.85200  Biso   1.000  H
  H3122    1.0000 0.67250  0.83920  0.85200  Biso   1.000  H
  H3123    1.0000 0.57750  0.08920  0.10200  Biso   1.000  H
  H3124    1.0000 0.92250  0.41080  0.10200  Biso   1.000  H
  H3125    1.0000 0.32750  0.66080  0.35200  Biso   1.000  H
  H3126    1.0000 0.67250  0.33920  0.35200  Biso   1.000  H
  H3127    1.0000 0.57750  0.58920  0.60200  Biso   1.000  H
  H3128    1.0000 0.92250  0.91080  0.60200  Biso   1.000  H
  H3129    1.0000 0.82750  0.16080  0.35200  Biso   1.000  H
  H3130    1.0000 0.17250  0.83920  0.35200  Biso   1.000  H
  H3131    1.0000 0.07750  0.08920  0.60200  Biso   1.000  H
  H3132    1.0000 0.42250  0.41080  0.60200  Biso   1.000  H
  H3133    1.0000 0.82750  0.66080  0.85200  Biso   1.000  H
  H3134    1.0000 0.17250  0.33920  0.85200  Biso   1.000  H
  H3135    1.0000 0.07750  0.58920  0.10200  Biso   1.000  H
  H3136    1.0000 0.42250  0.91080  0.10200  Biso   1.000  H
  C1665    1.0000 0.30370  0.21060  0.88350  Biso   1.000  C
  C1666    1.0000 0.69630  0.78940  0.88350  Biso   1.000  C
  C1667    1.0000 0.55370  0.03940  0.13350  Biso   1.000  C
  C1668    1.0000 0.94630  0.46060  0.13350  Biso   1.000  C
  C1669    1.0000 0.30370  0.71060  0.38350  Biso   1.000  C
  C1670    1.0000 0.69630  0.28940  0.38350  Biso   1.000  C
  C1671    1.0000 0.55370  0.53940  0.63350  Biso   1.000  C
  C1672    1.0000 0.94630  0.96060  0.63350  Biso   1.000  C
  C1673    1.0000 0.80370  0.21060  0.38350  Biso   1.000  C
  C1674    1.0000 0.19630  0.78940  0.38350  Biso   1.000  C
  C1675    1.0000 0.05370  0.03940  0.63350  Biso   1.000  C
  C1676    1.0000 0.44630  0.46060  0.63350  Biso   1.000  C
  C1677    1.0000 0.80370  0.71060  0.88350  Biso   1.000  C
  C1678    1.0000 0.19630  0.28940  0.88350  Biso   1.000  C
  C1679    1.0000 0.05370  0.53940  0.13350  Biso   1.000  C
  C1680    1.0000 0.44630  0.96060  0.13350  Biso   1.000  C
  H3137    1.0000 0.28400  0.22880  0.88210  Biso   1.000  H
  H3138    1.0000 0.71600  0.77120  0.88210  Biso   1.000  H
  H3139    1.0000 0.53400  0.02120  0.13210  Biso   1.000  H
  H3140    1.0000 0.96600  0.47880  0.13210  Biso   1.000  H
  H3141    1.0000 0.28400  0.72880  0.38210  Biso   1.000  H
  H3142    1.0000 0.71600  0.27120  0.38210  Biso   1.000  H
  H3143    1.0000 0.53400  0.52120  0.63210  Biso   1.000  H
  H3144    1.0000 0.96600  0.97880  0.63210  Biso   1.000  H
  H3145    1.0000 0.78400  0.22880  0.38210  Biso   1.000  H
  H3146    1.0000 0.21600  0.77120  0.38210  Biso   1.000  H
  H3147    1.0000 0.03400  0.02120  0.63210  Biso   1.000  H
  H3148    1.0000 0.46600  0.47880  0.63210  Biso   1.000  H
  H3149    1.0000 0.78400  0.72880  0.88210  Biso   1.000  H
  H3150    1.0000 0.21600  0.27120  0.88210  Biso   1.000  H
  H3151    1.0000 0.03400  0.52120  0.13210  Biso   1.000  H
  H3152    1.0000 0.46600  0.97880  0.13210  Biso   1.000  H
  H3153    1.0000 0.32010  0.23590  0.88680  Biso   1.000  H
  H3154    1.0000 0.67990  0.76410  0.88680  Biso   1.000  H
  H3155    1.0000 0.57010  0.01410  0.13680  Biso   1.000  H
  H3156    1.0000 0.92990  0.48590  0.13680  Biso   1.000  H
  H3157    1.0000 0.32010  0.73590  0.38680  Biso   1.000  H
  H3158    1.0000 0.67990  0.26410  0.38680  Biso   1.000  H
  H3159    1.0000 0.57010  0.51410  0.63680  Biso   1.000  H
  H3160    1.0000 0.92990  0.98590  0.63680  Biso   1.000  H
  H3161    1.0000 0.82010  0.23590  0.38680  Biso   1.000  H
  H3162    1.0000 0.17990  0.76410  0.38680  Biso   1.000  H
  H3163    1.0000 0.07010  0.01410  0.63680  Biso   1.000  H
  H3164    1.0000 0.42990  0.48590  0.63680  Biso   1.000  H
  H3165    1.0000 0.82010  0.73590  0.88680  Biso   1.000  H
  H3166    1.0000 0.17990  0.26410  0.88680  Biso   1.000  H
  H3167    1.0000 0.07010  0.51410  0.13680  Biso   1.000  H
  H3168    1.0000 0.42990  0.98590  0.13680  Biso   1.000  H
  C1681    1.0000 0.30310  0.17510  0.91450  Biso   1.000  C
  C1682    1.0000 0.69690  0.82490  0.91450  Biso   1.000  C
  C1683    1.0000 0.55310  0.07490  0.16450  Biso   1.000  C
  C1684    1.0000 0.94690  0.42510  0.16450  Biso   1.000  C
  C1685    1.0000 0.30310  0.67510  0.41450  Biso   1.000  C
  C1686    1.0000 0.69690  0.32490  0.41450  Biso   1.000  C
  C1687    1.0000 0.55310  0.57490  0.66450  Biso   1.000  C
  C1688    1.0000 0.94690  0.92510  0.66450  Biso   1.000  C
  C1689    1.0000 0.80310  0.17510  0.41450  Biso   1.000  C
  C1690    1.0000 0.19690  0.82490  0.41450  Biso   1.000  C
  C1691    1.0000 0.05310  0.07490  0.66450  Biso   1.000  C
  C1692    1.0000 0.44690  0.42510  0.66450  Biso   1.000  C
  C1693    1.0000 0.80310  0.67510  0.91450  Biso   1.000  C
  C1694    1.0000 0.19690  0.32490  0.91450  Biso   1.000  C
  C1695    1.0000 0.05310  0.57490  0.16450  Biso   1.000  C
  C1696    1.0000 0.44690  0.92510  0.16450  Biso   1.000  C
  H3169    1.0000 0.29760  0.14060  0.90730  Biso   1.000  H
  H3170    1.0000 0.70240  0.85940  0.90730  Biso   1.000  H
  H3171    1.0000 0.54760  0.10940  0.15730  Biso   1.000  H
  H3172    1.0000 0.95240  0.39060  0.15730  Biso   1.000  H
  H3173    1.0000 0.29760  0.64060  0.40730  Biso   1.000  H
  H3174    1.0000 0.70240  0.35940  0.40730  Biso   1.000  H
  H3175    1.0000 0.54760  0.60940  0.65730  Biso   1.000  H
  H3176    1.0000 0.95240  0.89060  0.65730  Biso   1.000  H
  H3177    1.0000 0.79760  0.14060  0.40730  Biso   1.000  H
  H3178    1.0000 0.20240  0.85940  0.40730  Biso   1.000  H
  H3179    1.0000 0.04760  0.10940  0.65730  Biso   1.000  H
  H3180    1.0000 0.45240  0.39060  0.65730  Biso   1.000  H
  H3181    1.0000 0.79760  0.64060  0.90730  Biso   1.000  H
  H3182    1.0000 0.20240  0.35940  0.90730  Biso   1.000  H
  H3183    1.0000 0.04760  0.60940  0.15730  Biso   1.000  H
  H3184    1.0000 0.45240  0.89060  0.15730  Biso   1.000  H
  H3185    1.0000 0.32340  0.17420  0.92550  Biso   1.000  H
  H3186    1.0000 0.67660  0.82580  0.92550  Biso   1.000  H
  H3187    1.0000 0.57340  0.07580  0.17550  Biso   1.000  H
  H3188    1.0000 0.92660  0.42420  0.17550  Biso   1.000  H
  H3189    1.0000 0.32340  0.67420  0.42550  Biso   1.000  H
  H3190    1.0000 0.67660  0.32580  0.42550  Biso   1.000  H
  H3191    1.0000 0.57340  0.57580  0.67550  Biso   1.000  H
  H3192    1.0000 0.92660  0.92420  0.67550  Biso   1.000  H
  H3193    1.0000 0.82340  0.17420  0.42550  Biso   1.000  H
  H3194    1.0000 0.17660  0.82580  0.42550  Biso   1.000  H
  H3195    1.0000 0.07340  0.07580  0.67550  Biso   1.000  H
  H3196    1.0000 0.42660  0.42420  0.67550  Biso   1.000  H
  H3197    1.0000 0.82340  0.67420  0.92550  Biso   1.000  H
  H3198    1.0000 0.17660  0.32580  0.92550  Biso   1.000  H
  H3199    1.0000 0.07340  0.57580  0.17550  Biso   1.000  H
  H3200    1.0000 0.42660  0.92420  0.17550  Biso   1.000  H
  C1697    1.0000 0.29180  0.13700  0.83690  Biso   1.000  C
  C1698    1.0000 0.70820  0.86300  0.83690  Biso   1.000  C
  C1699    1.0000 0.54180  0.11300  0.08690  Biso   1.000  C
  C1700    1.0000 0.95820  0.38700  0.08690  Biso   1.000  C
  C1701    1.0000 0.29180  0.63700  0.33690  Biso   1.000  C
  C1702    1.0000 0.70820  0.36300  0.33690  Biso   1.000  C
  C1703    1.0000 0.54180  0.61300  0.58690  Biso   1.000  C
  C1704    1.0000 0.95820  0.88700  0.58690  Biso   1.000  C
  C1705    1.0000 0.79180  0.13700  0.33690  Biso   1.000  C
  C1706    1.0000 0.20820  0.86300  0.33690  Biso   1.000  C
  C1707    1.0000 0.04180  0.11300  0.58690  Biso   1.000  C
  C1708    1.0000 0.45820  0.38700  0.58690  Biso   1.000  C
  C1709    1.0000 0.79180  0.63700  0.83690  Biso   1.000  C
  C1710    1.0000 0.20820  0.36300  0.83690  Biso   1.000  C
  C1711    1.0000 0.04180  0.61300  0.08690  Biso   1.000  C
  C1712    1.0000 0.45820  0.88700  0.08690  Biso   1.000  C
  H3201    1.0000 0.29680  0.11080  0.85410  Biso   1.000  H
  H3202    1.0000 0.70320  0.88920  0.85410  Biso   1.000  H
  H3203    1.0000 0.54680  0.13920  0.10410  Biso   1.000  H
  H3204    1.0000 0.95320  0.36080  0.10410  Biso   1.000  H
  H3205    1.0000 0.29680  0.61080  0.35410  Biso   1.000  H
  H3206    1.0000 0.70320  0.38920  0.35410  Biso   1.000  H
  H3207    1.0000 0.54680  0.63920  0.60410  Biso   1.000  H
  H3208    1.0000 0.95320  0.86080  0.60410  Biso   1.000  H
  H3209    1.0000 0.79680  0.11080  0.35410  Biso   1.000  H
  H3210    1.0000 0.20320  0.88920  0.35410  Biso   1.000  H
  H3211    1.0000 0.04680  0.13920  0.60410  Biso   1.000  H
  H3212    1.0000 0.45320  0.36080  0.60410  Biso   1.000  H
  H3213    1.0000 0.79680  0.61080  0.85410  Biso   1.000  H
  H3214    1.0000 0.20320  0.38920  0.85410  Biso   1.000  H
  H3215    1.0000 0.04680  0.63920  0.10410  Biso   1.000  H
  H3216    1.0000 0.45320  0.86080  0.10410  Biso   1.000  H
  H3217    1.0000 0.27010  0.14600  0.84050  Biso   1.000  H
  H3218    1.0000 0.72990  0.85400  0.84050  Biso   1.000  H
  H3219    1.0000 0.52010  0.10400  0.09050  Biso   1.000  H
  H3220    1.0000 0.97990  0.39600  0.09050  Biso   1.000  H
  H3221    1.0000 0.27010  0.64600  0.34050  Biso   1.000  H
  H3222    1.0000 0.72990  0.35400  0.34050  Biso   1.000  H
  H3223    1.0000 0.52010  0.60400  0.59050  Biso   1.000  H
  H3224    1.0000 0.97990  0.89600  0.59050  Biso   1.000  H
  H3225    1.0000 0.77010  0.14600  0.34050  Biso   1.000  H
  H3226    1.0000 0.22990  0.85400  0.34050  Biso   1.000  H
  H3227    1.0000 0.02010  0.10400  0.59050  Biso   1.000  H
  H3228    1.0000 0.47990  0.39600  0.59050  Biso   1.000  H
  H3229    1.0000 0.77010  0.64600  0.84050  Biso   1.000  H
  H3230    1.0000 0.22990  0.35400  0.84050  Biso   1.000  H
  H3231    1.0000 0.02010  0.60400  0.09050  Biso   1.000  H
  H3232    1.0000 0.47990  0.89600  0.09050  Biso   1.000  H
  C1713    1.0000 0.29040  0.10200  0.80620  Biso   1.000  C
  C1714    1.0000 0.70960  0.89800  0.80620  Biso   1.000  C
  C1715    1.0000 0.54040  0.14800  0.05620  Biso   1.000  C
  C1716    1.0000 0.95960  0.35200  0.05620  Biso   1.000  C
  C1717    1.0000 0.29040  0.60200  0.30620  Biso   1.000  C
  C1718    1.0000 0.70960  0.39800  0.30620  Biso   1.000  C
  C1719    1.0000 0.54040  0.64800  0.55620  Biso   1.000  C
  C1720    1.0000 0.95960  0.85200  0.55620  Biso   1.000  C
  C1721    1.0000 0.79040  0.10200  0.30620  Biso   1.000  C
  C1722    1.0000 0.20960  0.89800  0.30620  Biso   1.000  C
  C1723    1.0000 0.04040  0.14800  0.55620  Biso   1.000  C
  C1724    1.0000 0.45960  0.35200  0.55620  Biso   1.000  C
  C1725    1.0000 0.79040  0.60200  0.80620  Biso   1.000  C
  C1726    1.0000 0.20960  0.39800  0.80620  Biso   1.000  C
  C1727    1.0000 0.04040  0.64800  0.05620  Biso   1.000  C
  C1728    1.0000 0.45960  0.85200  0.05620  Biso   1.000  C
  H3233    1.0000 0.29680  0.13340  0.79470  Biso   1.000  H
  H3234    1.0000 0.70320  0.86660  0.79470  Biso   1.000  H
  H3235    1.0000 0.54680  0.11660  0.04470  Biso   1.000  H
  H3236    1.0000 0.95320  0.38340  0.04470  Biso   1.000  H
  H3237    1.0000 0.29680  0.63340  0.29470  Biso   1.000  H
  H3238    1.0000 0.70320  0.36660  0.29470  Biso   1.000  H
  H3239    1.0000 0.54680  0.61660  0.54470  Biso   1.000  H
  H3240    1.0000 0.95320  0.88340  0.54470  Biso   1.000  H
  H3241    1.0000 0.79680  0.13340  0.29470  Biso   1.000  H
  H3242    1.0000 0.20320  0.86660  0.29470  Biso   1.000  H
  H3243    1.0000 0.04680  0.11660  0.54470  Biso   1.000  H
  H3244    1.0000 0.45320  0.38340  0.54470  Biso   1.000  H
  H3245    1.0000 0.79680  0.63340  0.79470  Biso   1.000  H
  H3246    1.0000 0.20320  0.36660  0.79470  Biso   1.000  H
  H3247    1.0000 0.04680  0.61660  0.04470  Biso   1.000  H
  H3248    1.0000 0.45320  0.88340  0.04470  Biso   1.000  H
  H3249    1.0000 0.26800  0.10150  0.80270  Biso   1.000  H
  H3250    1.0000 0.73200  0.89850  0.80270  Biso   1.000  H
  H3251    1.0000 0.51800  0.14850  0.05270  Biso   1.000  H
  H3252    1.0000 0.98200  0.35150  0.05270  Biso   1.000  H
  H3253    1.0000 0.26800  0.60150  0.30270  Biso   1.000  H
  H3254    1.0000 0.73200  0.39850  0.30270  Biso   1.000  H
  H3255    1.0000 0.51800  0.64850  0.55270  Biso   1.000  H
  H3256    1.0000 0.98200  0.85150  0.55270  Biso   1.000  H
  H3257    1.0000 0.76800  0.10150  0.30270  Biso   1.000  H
  H3258    1.0000 0.23200  0.89850  0.30270  Biso   1.000  H
  H3259    1.0000 0.01800  0.14850  0.55270  Biso   1.000  H
  H3260    1.0000 0.48200  0.35150  0.55270  Biso   1.000  H
  H3261    1.0000 0.76800  0.60150  0.80270  Biso   1.000  H
  H3262    1.0000 0.23200  0.39850  0.80270  Biso   1.000  H
  H3263    1.0000 0.01800  0.64850  0.05270  Biso   1.000  H
  H3264    1.0000 0.48200  0.85150  0.05270  Biso   1.000  H
