data_image0
_cell_length_a       31.667
_cell_length_b       10.4902
_cell_length_c       21.2886
_cell_angle_alpha    90
_cell_angle_beta     90
_cell_angle_gamma    90

_symmetry_space_group_name_H-M    "P 1"
_symmetry_int_tables_number       1

loop_
  _symmetry_equiv_pos_as_xyz
  'x, y, z'

loop_
  _atom_site_label
  _atom_site_occupancy
  _atom_site_fract_x
  _atom_site_fract_y
  _atom_site_fract_z
  _atom_site_thermal_displace_type
  _atom_site_B_iso_or_equiv
  _atom_site_type_symbol
  Cu1      1.0000 0.11946  0.52039  0.45317  Biso   1.000  Cu
  Cu2      1.0000 0.88054  0.47961  0.45317  Biso   1.000  Cu
  Cu3      1.0000 0.36946  0.72961  0.70317  Biso   1.000  Cu
  Cu4      1.0000 0.13054  0.77039  0.70317  Biso   1.000  Cu
  Cu5      1.0000 0.11946  0.02039  0.95317  Biso   1.000  Cu
  Cu6      1.0000 0.88054  0.97961  0.95317  Biso   1.000  Cu
  Cu7      1.0000 0.36946  0.22961  0.20317  Biso   1.000  Cu
  Cu8      1.0000 0.13054  0.27039  0.20317  Biso   1.000  Cu
  Cu9      1.0000 0.61946  0.52039  0.95317  Biso   1.000  Cu
  Cu10     1.0000 0.38054  0.47961  0.95317  Biso   1.000  Cu
  Cu11     1.0000 0.86946  0.72961  0.20317  Biso   1.000  Cu
  Cu12     1.0000 0.63054  0.77039  0.20317  Biso   1.000  Cu
  Cu13     1.0000 0.61946  0.02039  0.45317  Biso   1.000  Cu
  Cu14     1.0000 0.38054  0.97961  0.45317  Biso   1.000  Cu
  Cu15     1.0000 0.86946  0.22961  0.70317  Biso   1.000  Cu
  Cu16     1.0000 0.63054  0.27039  0.70317  Biso   1.000  Cu
  Cu17     1.0000 0.22295  0.50690  0.45068  Biso   1.000  Cu
  Cu18     1.0000 0.77705  0.49310  0.45068  Biso   1.000  Cu
  Cu19     1.0000 0.47295  0.74310  0.70068  Biso   1.000  Cu
  Cu20     1.0000 0.02705  0.75690  0.70068  Biso   1.000  Cu
  Cu21     1.0000 0.22295  0.00690  0.95068  Biso   1.000  Cu
  Cu22     1.0000 0.77705  0.99310  0.95068  Biso   1.000  Cu
  Cu23     1.0000 0.47295  0.24310  0.20068  Biso   1.000  Cu
  Cu24     1.0000 0.02705  0.25690  0.20068  Biso   1.000  Cu
  Cu25     1.0000 0.72295  0.50690  0.95068  Biso   1.000  Cu
  Cu26     1.0000 0.27705  0.49310  0.95068  Biso   1.000  Cu
  Cu27     1.0000 0.97295  0.74310  0.20068  Biso   1.000  Cu
  Cu28     1.0000 0.52705  0.75690  0.20068  Biso   1.000  Cu
  Cu29     1.0000 0.72295  0.00690  0.45068  Biso   1.000  Cu
  Cu30     1.0000 0.27705  0.99310  0.45068  Biso   1.000  Cu
  Cu31     1.0000 0.97295  0.24310  0.70068  Biso   1.000  Cu
  Cu32     1.0000 0.52705  0.25690  0.70068  Biso   1.000  Cu
  Cu33     1.0000 0.19689  0.73851  0.34058  Biso   1.000  Cu
  Cu34     1.0000 0.80311  0.26149  0.34058  Biso   1.000  Cu
  Cu35     1.0000 0.44689  0.51149  0.59058  Biso   1.000  Cu
  Cu36     1.0000 0.05311  0.98851  0.59058  Biso   1.000  Cu
  Cu37     1.0000 0.19689  0.23851  0.84058  Biso   1.000  Cu
  Cu38     1.0000 0.80311  0.76149  0.84058  Biso   1.000  Cu
  Cu39     1.0000 0.44689  0.01149  0.09058  Biso   1.000  Cu
  Cu40     1.0000 0.05311  0.48851  0.09058  Biso   1.000  Cu
  Cu41     1.0000 0.69689  0.73851  0.84058  Biso   1.000  Cu
  Cu42     1.0000 0.30311  0.26149  0.84058  Biso   1.000  Cu
  Cu43     1.0000 0.94689  0.51149  0.09058  Biso   1.000  Cu
  Cu44     1.0000 0.55311  0.98851  0.09058  Biso   1.000  Cu
  Cu45     1.0000 0.69689  0.23851  0.34058  Biso   1.000  Cu
  Cu46     1.0000 0.30311  0.76149  0.34058  Biso   1.000  Cu
  Cu47     1.0000 0.94689  0.01149  0.59058  Biso   1.000  Cu
  Cu48     1.0000 0.55311  0.48851  0.59058  Biso   1.000  Cu
  Cl1      1.0000 0.25000  0.75000  0.42528  Biso   1.000  Cl
  Cl2      1.0000 0.75000  0.25000  0.42528  Biso   1.000  Cl
  Cl3      1.0000 0.50000  0.50000  0.67528  Biso   1.000  Cl
  Cl4      1.0000 0.00000  0.00000  0.67528  Biso   1.000  Cl
  Cl5      1.0000 0.25000  0.25000  0.92528  Biso   1.000  Cl
  Cl6      1.0000 0.75000  0.75000  0.92528  Biso   1.000  Cl
  Cl7      1.0000 0.50000  0.00000  0.17528  Biso   1.000  Cl
  Cl8      1.0000 0.00000  0.50000  0.17528  Biso   1.000  Cl
  Cl9      1.0000 0.17045  0.51166  0.36739  Biso   1.000  Cl
  Cl10     1.0000 0.82955  0.48834  0.36739  Biso   1.000  Cl
  Cl11     1.0000 0.42045  0.73834  0.61739  Biso   1.000  Cl
  Cl12     1.0000 0.07955  0.76166  0.61739  Biso   1.000  Cl
  Cl13     1.0000 0.17045  0.01166  0.86739  Biso   1.000  Cl
  Cl14     1.0000 0.82955  0.98834  0.86739  Biso   1.000  Cl
  Cl15     1.0000 0.42045  0.23834  0.11739  Biso   1.000  Cl
  Cl16     1.0000 0.07955  0.26166  0.11739  Biso   1.000  Cl
  Cl17     1.0000 0.67045  0.51166  0.86739  Biso   1.000  Cl
  Cl18     1.0000 0.32955  0.48834  0.86739  Biso   1.000  Cl
  Cl19     1.0000 0.92045  0.73834  0.11739  Biso   1.000  Cl
  Cl20     1.0000 0.57955  0.76166  0.11739  Biso   1.000  Cl
  Cl21     1.0000 0.67045  0.01166  0.36739  Biso   1.000  Cl
  Cl22     1.0000 0.32955  0.98834  0.36739  Biso   1.000  Cl
  Cl23     1.0000 0.92045  0.23834  0.61739  Biso   1.000  Cl
  Cl24     1.0000 0.57955  0.26166  0.61739  Biso   1.000  Cl
  N1       1.0000 0.14984  0.48290  0.52915  Biso   1.000  N
  N2       1.0000 0.85016  0.51710  0.52915  Biso   1.000  N
  N3       1.0000 0.39984  0.76710  0.77915  Biso   1.000  N
  N4       1.0000 0.10016  0.73290  0.77915  Biso   1.000  N
  N5       1.0000 0.14984  0.98290  0.02915  Biso   1.000  N
  N6       1.0000 0.85016  0.01710  0.02915  Biso   1.000  N
  N7       1.0000 0.39984  0.26710  0.27915  Biso   1.000  N
  N8       1.0000 0.10016  0.23290  0.27915  Biso   1.000  N
  N9       1.0000 0.64984  0.48290  0.02915  Biso   1.000  N
  N10      1.0000 0.35016  0.51710  0.02915  Biso   1.000  N
  N11      1.0000 0.89984  0.76710  0.27915  Biso   1.000  N
  N12      1.0000 0.60016  0.73290  0.27915  Biso   1.000  N
  N13      1.0000 0.64984  0.98290  0.52915  Biso   1.000  N
  N14      1.0000 0.35016  0.01710  0.52915  Biso   1.000  N
  N15      1.0000 0.89984  0.26710  0.77915  Biso   1.000  N
  N16      1.0000 0.60016  0.23290  0.77915  Biso   1.000  N
  N17      1.0000 0.19187  0.51470  0.53010  Biso   1.000  N
  N18      1.0000 0.80813  0.48530  0.53010  Biso   1.000  N
  N19      1.0000 0.44187  0.73530  0.78010  Biso   1.000  N
  N20      1.0000 0.05813  0.76470  0.78010  Biso   1.000  N
  N21      1.0000 0.19187  0.01470  0.03010  Biso   1.000  N
  N22      1.0000 0.80813  0.98530  0.03010  Biso   1.000  N
  N23      1.0000 0.44187  0.23530  0.28010  Biso   1.000  N
  N24      1.0000 0.05813  0.26470  0.28010  Biso   1.000  N
  N25      1.0000 0.69187  0.51470  0.03010  Biso   1.000  N
  N26      1.0000 0.30813  0.48530  0.03010  Biso   1.000  N
  N27      1.0000 0.94187  0.73530  0.28010  Biso   1.000  N
  N28      1.0000 0.55813  0.76470  0.28010  Biso   1.000  N
  N29      1.0000 0.69187  0.01470  0.53010  Biso   1.000  N
  N30      1.0000 0.30813  0.98530  0.53010  Biso   1.000  N
  N31      1.0000 0.94187  0.23530  0.78010  Biso   1.000  N
  N32      1.0000 0.55813  0.26470  0.78010  Biso   1.000  N
  N33      1.0000 0.16895  0.50450  0.62952  Biso   1.000  N
  N34      1.0000 0.83105  0.49550  0.62952  Biso   1.000  N
  N35      1.0000 0.41895  0.74550  0.87952  Biso   1.000  N
  N36      1.0000 0.08105  0.75450  0.87952  Biso   1.000  N
  N37      1.0000 0.16895  0.00450  0.12952  Biso   1.000  N
  N38      1.0000 0.83105  0.99550  0.12952  Biso   1.000  N
  N39      1.0000 0.41895  0.24550  0.37952  Biso   1.000  N
  N40      1.0000 0.08105  0.25450  0.37952  Biso   1.000  N
  N41      1.0000 0.66895  0.50450  0.12952  Biso   1.000  N
  N42      1.0000 0.33105  0.49550  0.12952  Biso   1.000  N
  N43      1.0000 0.91895  0.74550  0.37952  Biso   1.000  N
  N44      1.0000 0.58105  0.75450  0.37952  Biso   1.000  N
  N45      1.0000 0.66895  0.00450  0.62952  Biso   1.000  N
  N46      1.0000 0.33105  0.99550  0.62952  Biso   1.000  N
  N47      1.0000 0.91895  0.24550  0.87952  Biso   1.000  N
  N48      1.0000 0.58105  0.25450  0.87952  Biso   1.000  N
  N49      1.0000 0.02095  0.33360  0.66117  Biso   1.000  N
  N50      1.0000 0.97905  0.66640  0.66117  Biso   1.000  N
  N51      1.0000 0.27095  0.91640  0.91117  Biso   1.000  N
  N52      1.0000 0.22905  0.58360  0.91117  Biso   1.000  N
  N53      1.0000 0.02095  0.83360  0.16117  Biso   1.000  N
  N54      1.0000 0.97905  0.16640  0.16117  Biso   1.000  N
  N55      1.0000 0.27095  0.41640  0.41117  Biso   1.000  N
  N56      1.0000 0.22905  0.08360  0.41117  Biso   1.000  N
  N57      1.0000 0.52095  0.33360  0.16117  Biso   1.000  N
  N58      1.0000 0.47905  0.66640  0.16117  Biso   1.000  N
  N59      1.0000 0.77095  0.91640  0.41117  Biso   1.000  N
  N60      1.0000 0.72905  0.58360  0.41117  Biso   1.000  N
  N61      1.0000 0.52095  0.83360  0.66117  Biso   1.000  N
  N62      1.0000 0.47905  0.16640  0.66117  Biso   1.000  N
  N63      1.0000 0.77095  0.41640  0.91117  Biso   1.000  N
  N64      1.0000 0.72905  0.08360  0.91117  Biso   1.000  N
  N65      1.0000 0.31839  0.66020  0.66695  Biso   1.000  N
  N66      1.0000 0.68161  0.33980  0.66695  Biso   1.000  N
  N67      1.0000 0.56839  0.58980  0.91695  Biso   1.000  N
  N68      1.0000 0.93161  0.91020  0.91695  Biso   1.000  N
  N69      1.0000 0.31839  0.16020  0.16695  Biso   1.000  N
  N70      1.0000 0.68161  0.83980  0.16695  Biso   1.000  N
  N71      1.0000 0.56839  0.08980  0.41695  Biso   1.000  N
  N72      1.0000 0.93161  0.41020  0.41695  Biso   1.000  N
  N73      1.0000 0.81839  0.66020  0.16695  Biso   1.000  N
  N74      1.0000 0.18161  0.33980  0.16695  Biso   1.000  N
  N75      1.0000 0.06839  0.58980  0.41695  Biso   1.000  N
  N76      1.0000 0.43161  0.91020  0.41695  Biso   1.000  N
  N77      1.0000 0.81839  0.16020  0.66695  Biso   1.000  N
  N78      1.0000 0.18161  0.83980  0.66695  Biso   1.000  N
  N79      1.0000 0.06839  0.08980  0.91695  Biso   1.000  N
  N80      1.0000 0.43161  0.41020  0.91695  Biso   1.000  N
  N81      1.0000 0.22889  0.73380  0.26231  Biso   1.000  N
  N82      1.0000 0.77111  0.26620  0.26231  Biso   1.000  N
  N83      1.0000 0.47889  0.51620  0.51231  Biso   1.000  N
  N84      1.0000 0.02111  0.98380  0.51231  Biso   1.000  N
  N85      1.0000 0.22889  0.23380  0.76231  Biso   1.000  N
  N86      1.0000 0.77111  0.76620  0.76231  Biso   1.000  N
  N87      1.0000 0.47889  0.01620  0.01231  Biso   1.000  N
  N88      1.0000 0.02111  0.48380  0.01231  Biso   1.000  N
  N89      1.0000 0.72889  0.73380  0.76231  Biso   1.000  N
  N90      1.0000 0.27111  0.26620  0.76231  Biso   1.000  N
  N91      1.0000 0.97889  0.51620  0.01231  Biso   1.000  N
  N92      1.0000 0.52111  0.98380  0.01231  Biso   1.000  N
  N93      1.0000 0.72889  0.23380  0.26231  Biso   1.000  N
  N94      1.0000 0.27111  0.76620  0.26231  Biso   1.000  N
  N95      1.0000 0.97889  0.01620  0.51231  Biso   1.000  N
  N96      1.0000 0.52111  0.48380  0.51231  Biso   1.000  N
  N97      1.0000 0.25000  0.75000  0.16210  Biso   1.000  N
  N98      1.0000 0.75000  0.25000  0.16210  Biso   1.000  N
  N99      1.0000 0.50000  0.50000  0.41210  Biso   1.000  N
  N100     1.0000 0.00000  0.00000  0.41210  Biso   1.000  N
  N101     1.0000 0.25000  0.25000  0.66210  Biso   1.000  N
  N102     1.0000 0.75000  0.75000  0.66210  Biso   1.000  N
  N103     1.0000 0.50000  0.00000  0.91210  Biso   1.000  N
  N104     1.0000 0.00000  0.50000  0.91210  Biso   1.000  N
  N105     1.0000 0.10236  0.58160  0.12663  Biso   1.000  N
  N106     1.0000 0.89764  0.41840  0.12663  Biso   1.000  N
  N107     1.0000 0.35236  0.66840  0.37663  Biso   1.000  N
  N108     1.0000 0.14764  0.83160  0.37663  Biso   1.000  N
  N109     1.0000 0.10236  0.08160  0.62663  Biso   1.000  N
  N110     1.0000 0.89764  0.91840  0.62663  Biso   1.000  N
  N111     1.0000 0.35236  0.16840  0.87663  Biso   1.000  N
  N112     1.0000 0.14764  0.33160  0.87663  Biso   1.000  N
  N113     1.0000 0.60236  0.58160  0.62663  Biso   1.000  N
  N114     1.0000 0.39764  0.41840  0.62663  Biso   1.000  N
  N115     1.0000 0.85236  0.66840  0.87663  Biso   1.000  N
  N116     1.0000 0.64764  0.83160  0.87663  Biso   1.000  N
  N117     1.0000 0.60236  0.08160  0.12663  Biso   1.000  N
  N118     1.0000 0.39764  0.91840  0.12663  Biso   1.000  N
  N119     1.0000 0.85236  0.16840  0.37663  Biso   1.000  N
  N120     1.0000 0.64764  0.33160  0.37663  Biso   1.000  N
  C1       1.0000 0.13795  0.47700  0.58961  Biso   1.000  C
  C2       1.0000 0.86205  0.52300  0.58961  Biso   1.000  C
  C3       1.0000 0.38795  0.77300  0.83961  Biso   1.000  C
  C4       1.0000 0.11205  0.72700  0.83961  Biso   1.000  C
  C5       1.0000 0.13795  0.97700  0.08961  Biso   1.000  C
  C6       1.0000 0.86205  0.02300  0.08961  Biso   1.000  C
  C7       1.0000 0.38795  0.27300  0.33961  Biso   1.000  C
  C8       1.0000 0.11205  0.22700  0.33961  Biso   1.000  C
  C9       1.0000 0.63795  0.47700  0.08961  Biso   1.000  C
  C10      1.0000 0.36205  0.52300  0.08961  Biso   1.000  C
  C11      1.0000 0.88795  0.77300  0.33961  Biso   1.000  C
  C12      1.0000 0.61205  0.72700  0.33961  Biso   1.000  C
  C13      1.0000 0.63795  0.97700  0.58961  Biso   1.000  C
  C14      1.0000 0.36205  0.02300  0.58961  Biso   1.000  C
  C15      1.0000 0.88795  0.27300  0.83961  Biso   1.000  C
  C16      1.0000 0.61205  0.22700  0.83961  Biso   1.000  C
  C17      1.0000 0.20181  0.52710  0.59112  Biso   1.000  C
  C18      1.0000 0.79819  0.47290  0.59112  Biso   1.000  C
  C19      1.0000 0.45181  0.72290  0.84112  Biso   1.000  C
  C20      1.0000 0.04819  0.77710  0.84112  Biso   1.000  C
  C21      1.0000 0.20181  0.02710  0.09112  Biso   1.000  C
  C22      1.0000 0.79819  0.97290  0.09112  Biso   1.000  C
  C23      1.0000 0.45181  0.22290  0.34112  Biso   1.000  C
  C24      1.0000 0.04819  0.27710  0.34112  Biso   1.000  C
  C25      1.0000 0.70181  0.52710  0.09112  Biso   1.000  C
  C26      1.0000 0.29819  0.47290  0.09112  Biso   1.000  C
  C27      1.0000 0.95181  0.72290  0.34112  Biso   1.000  C
  C28      1.0000 0.54819  0.77710  0.34112  Biso   1.000  C
  C29      1.0000 0.70181  0.02710  0.59112  Biso   1.000  C
  C30      1.0000 0.29819  0.97290  0.59112  Biso   1.000  C
  C31      1.0000 0.95181  0.22290  0.84112  Biso   1.000  C
  C32      1.0000 0.54819  0.27710  0.84112  Biso   1.000  C
  C33      1.0000 0.09613  0.43520  0.61148  Biso   1.000  C
  C34      1.0000 0.90387  0.56480  0.61148  Biso   1.000  C
  C35      1.0000 0.34613  0.81480  0.86148  Biso   1.000  C
  C36      1.0000 0.15387  0.68520  0.86148  Biso   1.000  C
  C37      1.0000 0.09613  0.93520  0.11148  Biso   1.000  C
  C38      1.0000 0.90387  0.06480  0.11148  Biso   1.000  C
  C39      1.0000 0.34613  0.31480  0.36148  Biso   1.000  C
  C40      1.0000 0.15387  0.18520  0.36148  Biso   1.000  C
  C41      1.0000 0.59613  0.43520  0.11148  Biso   1.000  C
  C42      1.0000 0.40387  0.56480  0.11148  Biso   1.000  C
  C43      1.0000 0.84613  0.81480  0.36148  Biso   1.000  C
  C44      1.0000 0.65387  0.68520  0.36148  Biso   1.000  C
  C45      1.0000 0.59613  0.93520  0.61148  Biso   1.000  C
  C46      1.0000 0.40387  0.06480  0.61148  Biso   1.000  C
  C47      1.0000 0.84613  0.31480  0.86148  Biso   1.000  C
  C48      1.0000 0.65387  0.18520  0.86148  Biso   1.000  C
  C49      1.0000 0.08528  0.45160  0.67400  Biso   1.000  C
  C50      1.0000 0.91472  0.54840  0.67400  Biso   1.000  C
  C51      1.0000 0.33528  0.79840  0.92400  Biso   1.000  C
  C52      1.0000 0.16472  0.70160  0.92400  Biso   1.000  C
  C53      1.0000 0.08528  0.95160  0.17400  Biso   1.000  C
  C54      1.0000 0.91472  0.04840  0.17400  Biso   1.000  C
  C55      1.0000 0.33528  0.29840  0.42400  Biso   1.000  C
  C56      1.0000 0.16472  0.20160  0.42400  Biso   1.000  C
  C57      1.0000 0.58528  0.45160  0.17400  Biso   1.000  C
  C58      1.0000 0.41472  0.54840  0.17400  Biso   1.000  C
  C59      1.0000 0.83528  0.79840  0.42400  Biso   1.000  C
  C60      1.0000 0.66472  0.70160  0.42400  Biso   1.000  C
  C61      1.0000 0.58528  0.95160  0.67400  Biso   1.000  C
  C62      1.0000 0.41472  0.04840  0.67400  Biso   1.000  C
  C63      1.0000 0.83528  0.29840  0.92400  Biso   1.000  C
  C64      1.0000 0.66472  0.20160  0.92400  Biso   1.000  C
  H1       1.0000 0.10330  0.49800  0.70140  Biso   1.000  H
  H2       1.0000 0.89670  0.50200  0.70140  Biso   1.000  H
  H3       1.0000 0.35330  0.75200  0.95140  Biso   1.000  H
  H4       1.0000 0.14670  0.74800  0.95140  Biso   1.000  H
  H5       1.0000 0.10330  0.99800  0.20140  Biso   1.000  H
  H6       1.0000 0.89670  0.00200  0.20140  Biso   1.000  H
  H7       1.0000 0.35330  0.25200  0.45140  Biso   1.000  H
  H8       1.0000 0.14670  0.24800  0.45140  Biso   1.000  H
  H9       1.0000 0.60330  0.49800  0.20140  Biso   1.000  H
  H10      1.0000 0.39670  0.50200  0.20140  Biso   1.000  H
  H11      1.0000 0.85330  0.75200  0.45140  Biso   1.000  H
  H12      1.0000 0.64670  0.74800  0.45140  Biso   1.000  H
  H13      1.0000 0.60330  0.99800  0.70140  Biso   1.000  H
  H14      1.0000 0.39670  0.00200  0.70140  Biso   1.000  H
  H15      1.0000 0.85330  0.25200  0.95140  Biso   1.000  H
  H16      1.0000 0.64670  0.24800  0.95140  Biso   1.000  H
  C65      1.0000 0.04806  0.40000  0.69619  Biso   1.000  C
  C66      1.0000 0.95194  0.60000  0.69619  Biso   1.000  C
  C67      1.0000 0.29806  0.85000  0.94619  Biso   1.000  C
  C68      1.0000 0.20194  0.65000  0.94619  Biso   1.000  C
  C69      1.0000 0.04806  0.90000  0.19619  Biso   1.000  C
  C70      1.0000 0.95194  0.10000  0.19619  Biso   1.000  C
  C71      1.0000 0.29806  0.35000  0.44619  Biso   1.000  C
  C72      1.0000 0.20194  0.15000  0.44619  Biso   1.000  C
  C73      1.0000 0.54806  0.40000  0.19619  Biso   1.000  C
  C74      1.0000 0.45194  0.60000  0.19619  Biso   1.000  C
  C75      1.0000 0.79806  0.85000  0.44619  Biso   1.000  C
  C76      1.0000 0.70194  0.65000  0.44619  Biso   1.000  C
  C77      1.0000 0.54806  0.90000  0.69619  Biso   1.000  C
  C78      1.0000 0.45194  0.10000  0.69619  Biso   1.000  C
  C79      1.0000 0.79806  0.35000  0.94619  Biso   1.000  C
  C80      1.0000 0.70194  0.15000  0.94619  Biso   1.000  C
  H17      1.0000 0.04130  0.41270  0.73920  Biso   1.000  H
  H18      1.0000 0.95870  0.58730  0.73920  Biso   1.000  H
  H19      1.0000 0.29130  0.83730  0.98920  Biso   1.000  H
  H20      1.0000 0.20870  0.66270  0.98920  Biso   1.000  H
  H21      1.0000 0.04130  0.91270  0.23920  Biso   1.000  H
  H22      1.0000 0.95870  0.08730  0.23920  Biso   1.000  H
  H23      1.0000 0.29130  0.33730  0.48920  Biso   1.000  H
  H24      1.0000 0.20870  0.16270  0.48920  Biso   1.000  H
  H25      1.0000 0.54130  0.41270  0.23920  Biso   1.000  H
  H26      1.0000 0.45870  0.58730  0.23920  Biso   1.000  H
  H27      1.0000 0.79130  0.83730  0.48920  Biso   1.000  H
  H28      1.0000 0.70870  0.66270  0.48920  Biso   1.000  H
  H29      1.0000 0.54130  0.91270  0.73920  Biso   1.000  H
  H30      1.0000 0.45870  0.08730  0.73920  Biso   1.000  H
  H31      1.0000 0.79130  0.33730  0.98920  Biso   1.000  H
  H32      1.0000 0.70870  0.16270  0.98920  Biso   1.000  H
  C81      1.0000 0.03087  0.32070  0.60035  Biso   1.000  C
  C82      1.0000 0.96913  0.67930  0.60035  Biso   1.000  C
  C83      1.0000 0.28087  0.92930  0.85035  Biso   1.000  C
  C84      1.0000 0.21913  0.57070  0.85035  Biso   1.000  C
  C85      1.0000 0.03087  0.82070  0.10035  Biso   1.000  C
  C86      1.0000 0.96913  0.17930  0.10035  Biso   1.000  C
  C87      1.0000 0.28087  0.42930  0.35035  Biso   1.000  C
  C88      1.0000 0.21913  0.07070  0.35035  Biso   1.000  C
  C89      1.0000 0.53087  0.32070  0.10035  Biso   1.000  C
  C90      1.0000 0.46913  0.67930  0.10035  Biso   1.000  C
  C91      1.0000 0.78087  0.92930  0.35035  Biso   1.000  C
  C92      1.0000 0.71913  0.57070  0.35035  Biso   1.000  C
  C93      1.0000 0.53087  0.82070  0.60035  Biso   1.000  C
  C94      1.0000 0.46913  0.17930  0.60035  Biso   1.000  C
  C95      1.0000 0.78087  0.42930  0.85035  Biso   1.000  C
  C96      1.0000 0.71913  0.07070  0.85035  Biso   1.000  C
  H33      1.0000 0.01190  0.27530  0.57390  Biso   1.000  H
  H34      1.0000 0.98810  0.72470  0.57390  Biso   1.000  H
  H35      1.0000 0.26190  0.97470  0.82390  Biso   1.000  H
  H36      1.0000 0.23810  0.52530  0.82390  Biso   1.000  H
  H37      1.0000 0.01190  0.77530  0.07390  Biso   1.000  H
  H38      1.0000 0.98810  0.22470  0.07390  Biso   1.000  H
  H39      1.0000 0.26190  0.47470  0.32390  Biso   1.000  H
  H40      1.0000 0.23810  0.02530  0.32390  Biso   1.000  H
  H41      1.0000 0.51190  0.27530  0.07390  Biso   1.000  H
  H42      1.0000 0.48810  0.72470  0.07390  Biso   1.000  H
  H43      1.0000 0.76190  0.97470  0.32390  Biso   1.000  H
  H44      1.0000 0.73810  0.52530  0.32390  Biso   1.000  H
  H45      1.0000 0.51190  0.77530  0.57390  Biso   1.000  H
  H46      1.0000 0.48810  0.22470  0.57390  Biso   1.000  H
  H47      1.0000 0.76190  0.47470  0.82390  Biso   1.000  H
  H48      1.0000 0.73810  0.02530  0.82390  Biso   1.000  H
  C97      1.0000 0.06727  0.37010  0.57416  Biso   1.000  C
  C98      1.0000 0.93273  0.62990  0.57416  Biso   1.000  C
  C99      1.0000 0.31727  0.87990  0.82416  Biso   1.000  C
  C100     1.0000 0.18273  0.62010  0.82416  Biso   1.000  C
  C101     1.0000 0.06727  0.87010  0.07416  Biso   1.000  C
  C102     1.0000 0.93273  0.12990  0.07416  Biso   1.000  C
  C103     1.0000 0.31727  0.37990  0.32416  Biso   1.000  C
  C104     1.0000 0.18273  0.12010  0.32416  Biso   1.000  C
  C105     1.0000 0.56727  0.37010  0.07416  Biso   1.000  C
  C106     1.0000 0.43273  0.62990  0.07416  Biso   1.000  C
  C107     1.0000 0.81727  0.87990  0.32416  Biso   1.000  C
  C108     1.0000 0.68273  0.62010  0.32416  Biso   1.000  C
  C109     1.0000 0.56727  0.87010  0.57416  Biso   1.000  C
  C110     1.0000 0.43273  0.12990  0.57416  Biso   1.000  C
  C111     1.0000 0.81727  0.37990  0.82416  Biso   1.000  C
  C112     1.0000 0.68273  0.12010  0.82416  Biso   1.000  C
  H49      1.0000 0.07260  0.35960  0.53050  Biso   1.000  H
  H50      1.0000 0.92740  0.64040  0.53050  Biso   1.000  H
  H51      1.0000 0.32260  0.89040  0.78050  Biso   1.000  H
  H52      1.0000 0.17740  0.60960  0.78050  Biso   1.000  H
  H53      1.0000 0.07260  0.85960  0.03050  Biso   1.000  H
  H54      1.0000 0.92740  0.14040  0.03050  Biso   1.000  H
  H55      1.0000 0.32260  0.39040  0.28050  Biso   1.000  H
  H56      1.0000 0.17740  0.10960  0.28050  Biso   1.000  H
  H57      1.0000 0.57260  0.35960  0.03050  Biso   1.000  H
  H58      1.0000 0.42740  0.64040  0.03050  Biso   1.000  H
  H59      1.0000 0.82260  0.89040  0.28050  Biso   1.000  H
  H60      1.0000 0.67740  0.60960  0.28050  Biso   1.000  H
  H61      1.0000 0.57260  0.85960  0.53050  Biso   1.000  H
  H62      1.0000 0.42740  0.14040  0.53050  Biso   1.000  H
  H63      1.0000 0.82260  0.39040  0.78050  Biso   1.000  H
  H64      1.0000 0.67740  0.10960  0.78050  Biso   1.000  H
  C113     1.0000 0.24342  0.56750  0.61505  Biso   1.000  C
  C114     1.0000 0.75658  0.43250  0.61505  Biso   1.000  C
  C115     1.0000 0.49342  0.68250  0.86505  Biso   1.000  C
  C116     1.0000 0.00658  0.81750  0.86505  Biso   1.000  C
  C117     1.0000 0.24342  0.06750  0.11505  Biso   1.000  C
  C118     1.0000 0.75658  0.93250  0.11505  Biso   1.000  C
  C119     1.0000 0.49342  0.18250  0.36505  Biso   1.000  C
  C120     1.0000 0.00658  0.31750  0.36505  Biso   1.000  C
  C121     1.0000 0.74342  0.56750  0.11505  Biso   1.000  C
  C122     1.0000 0.25658  0.43250  0.11505  Biso   1.000  C
  C123     1.0000 0.99342  0.68250  0.36505  Biso   1.000  C
  C124     1.0000 0.50658  0.81750  0.36505  Biso   1.000  C
  C125     1.0000 0.74342  0.06750  0.61505  Biso   1.000  C
  C126     1.0000 0.25658  0.93250  0.61505  Biso   1.000  C
  C127     1.0000 0.99342  0.18250  0.86505  Biso   1.000  C
  C128     1.0000 0.50658  0.31750  0.86505  Biso   1.000  C
  C129     1.0000 0.25007  0.56740  0.68005  Biso   1.000  C
  C130     1.0000 0.74993  0.43260  0.68005  Biso   1.000  C
  C131     1.0000 0.50007  0.68260  0.93005  Biso   1.000  C
  C132     1.0000 0.99993  0.81740  0.93005  Biso   1.000  C
  C133     1.0000 0.25007  0.06740  0.18005  Biso   1.000  C
  C134     1.0000 0.74993  0.93260  0.18005  Biso   1.000  C
  C135     1.0000 0.50007  0.18260  0.43005  Biso   1.000  C
  C136     1.0000 0.99993  0.31740  0.43005  Biso   1.000  C
  C137     1.0000 0.75007  0.56740  0.18005  Biso   1.000  C
  C138     1.0000 0.24993  0.43260  0.18005  Biso   1.000  C
  C139     1.0000 0.00007  0.68260  0.43005  Biso   1.000  C
  C140     1.0000 0.49993  0.81740  0.43005  Biso   1.000  C
  C141     1.0000 0.75007  0.06740  0.68005  Biso   1.000  C
  C142     1.0000 0.24993  0.93260  0.68005  Biso   1.000  C
  C143     1.0000 0.00007  0.18260  0.93005  Biso   1.000  C
  C144     1.0000 0.49993  0.31740  0.93005  Biso   1.000  C
  H65      1.0000 0.22900  0.53590  0.70770  Biso   1.000  H
  H66      1.0000 0.77100  0.46410  0.70770  Biso   1.000  H
  H67      1.0000 0.47900  0.71410  0.95770  Biso   1.000  H
  H68      1.0000 0.02100  0.78590  0.95770  Biso   1.000  H
  H69      1.0000 0.22900  0.03590  0.20770  Biso   1.000  H
  H70      1.0000 0.77100  0.96410  0.20770  Biso   1.000  H
  H71      1.0000 0.47900  0.21410  0.45770  Biso   1.000  H
  H72      1.0000 0.02100  0.28590  0.45770  Biso   1.000  H
  H73      1.0000 0.72900  0.53590  0.20770  Biso   1.000  H
  H74      1.0000 0.27100  0.46410  0.20770  Biso   1.000  H
  H75      1.0000 0.97900  0.71410  0.45770  Biso   1.000  H
  H76      1.0000 0.52100  0.78590  0.45770  Biso   1.000  H
  H77      1.0000 0.72900  0.03590  0.70770  Biso   1.000  H
  H78      1.0000 0.27100  0.96410  0.70770  Biso   1.000  H
  H79      1.0000 0.97900  0.21410  0.95770  Biso   1.000  H
  H80      1.0000 0.52100  0.28590  0.95770  Biso   1.000  H
  C145     1.0000 0.28763  0.61370  0.70331  Biso   1.000  C
  C146     1.0000 0.71237  0.38630  0.70331  Biso   1.000  C
  C147     1.0000 0.53763  0.63630  0.95331  Biso   1.000  C
  C148     1.0000 0.96237  0.86370  0.95331  Biso   1.000  C
  C149     1.0000 0.28763  0.11370  0.20331  Biso   1.000  C
  C150     1.0000 0.71237  0.88630  0.20331  Biso   1.000  C
  C151     1.0000 0.53763  0.13630  0.45331  Biso   1.000  C
  C152     1.0000 0.96237  0.36370  0.45331  Biso   1.000  C
  C153     1.0000 0.78763  0.61370  0.20331  Biso   1.000  C
  C154     1.0000 0.21237  0.38630  0.20331  Biso   1.000  C
  C155     1.0000 0.03763  0.63630  0.45331  Biso   1.000  C
  C156     1.0000 0.46237  0.86370  0.45331  Biso   1.000  C
  C157     1.0000 0.78763  0.11370  0.70331  Biso   1.000  C
  C158     1.0000 0.21237  0.88630  0.70331  Biso   1.000  C
  C159     1.0000 0.03763  0.13630  0.95331  Biso   1.000  C
  C160     1.0000 0.46237  0.36370  0.95331  Biso   1.000  C
  H81      1.0000 0.29190  0.61250  0.74750  Biso   1.000  H
  H82      1.0000 0.70810  0.38750  0.74750  Biso   1.000  H
  H83      1.0000 0.54190  0.63750  0.99750  Biso   1.000  H
  H84      1.0000 0.95810  0.86250  0.99750  Biso   1.000  H
  H85      1.0000 0.29190  0.11250  0.24750  Biso   1.000  H
  H86      1.0000 0.70810  0.88750  0.24750  Biso   1.000  H
  H87      1.0000 0.54190  0.13750  0.49750  Biso   1.000  H
  H88      1.0000 0.95810  0.36250  0.49750  Biso   1.000  H
  H89      1.0000 0.79190  0.61250  0.24750  Biso   1.000  H
  H90      1.0000 0.20810  0.38750  0.24750  Biso   1.000  H
  H91      1.0000 0.04190  0.63750  0.49750  Biso   1.000  H
  H92      1.0000 0.45810  0.86250  0.49750  Biso   1.000  H
  H93      1.0000 0.79190  0.11250  0.74750  Biso   1.000  H
  H94      1.0000 0.20810  0.88750  0.74750  Biso   1.000  H
  H95      1.0000 0.04190  0.13750  0.99750  Biso   1.000  H
  H96      1.0000 0.45810  0.36250  0.99750  Biso   1.000  H
  C161     1.0000 0.31216  0.65720  0.60503  Biso   1.000  C
  C162     1.0000 0.68784  0.34280  0.60503  Biso   1.000  C
  C163     1.0000 0.56216  0.59280  0.85503  Biso   1.000  C
  C164     1.0000 0.93784  0.90720  0.85503  Biso   1.000  C
  C165     1.0000 0.31216  0.15720  0.10503  Biso   1.000  C
  C166     1.0000 0.68784  0.84280  0.10503  Biso   1.000  C
  C167     1.0000 0.56216  0.09280  0.35503  Biso   1.000  C
  C168     1.0000 0.93784  0.40720  0.35503  Biso   1.000  C
  C169     1.0000 0.81216  0.65720  0.10503  Biso   1.000  C
  C170     1.0000 0.18784  0.34280  0.10503  Biso   1.000  C
  C171     1.0000 0.06216  0.59280  0.35503  Biso   1.000  C
  C172     1.0000 0.43784  0.90720  0.35503  Biso   1.000  C
  C173     1.0000 0.81216  0.15720  0.60503  Biso   1.000  C
  C174     1.0000 0.18784  0.84280  0.60503  Biso   1.000  C
  C175     1.0000 0.06216  0.09280  0.85503  Biso   1.000  C
  C176     1.0000 0.43784  0.40720  0.85503  Biso   1.000  C
  H97      1.0000 0.33400  0.68720  0.57830  Biso   1.000  H
  H98      1.0000 0.66600  0.31280  0.57830  Biso   1.000  H
  H99      1.0000 0.58400  0.56280  0.82830  Biso   1.000  H
  H100     1.0000 0.91600  0.93720  0.82830  Biso   1.000  H
  H101     1.0000 0.33400  0.18720  0.07830  Biso   1.000  H
  H102     1.0000 0.66600  0.81280  0.07830  Biso   1.000  H
  H103     1.0000 0.58400  0.06280  0.32830  Biso   1.000  H
  H104     1.0000 0.91600  0.43720  0.32830  Biso   1.000  H
  H105     1.0000 0.83400  0.68720  0.07830  Biso   1.000  H
  H106     1.0000 0.16600  0.31280  0.07830  Biso   1.000  H
  H107     1.0000 0.08400  0.56280  0.32830  Biso   1.000  H
  H108     1.0000 0.41600  0.93720  0.32830  Biso   1.000  H
  H109     1.0000 0.83400  0.18720  0.57830  Biso   1.000  H
  H110     1.0000 0.16600  0.81280  0.57830  Biso   1.000  H
  H111     1.0000 0.08400  0.06280  0.82830  Biso   1.000  H
  H112     1.0000 0.41600  0.43720  0.82830  Biso   1.000  H
  C177     1.0000 0.27542  0.61240  0.57785  Biso   1.000  C
  C178     1.0000 0.72458  0.38760  0.57785  Biso   1.000  C
  C179     1.0000 0.52542  0.63760  0.82785  Biso   1.000  C
  C180     1.0000 0.97458  0.86240  0.82785  Biso   1.000  C
  C181     1.0000 0.27542  0.11240  0.07785  Biso   1.000  C
  C182     1.0000 0.72458  0.88760  0.07785  Biso   1.000  C
  C183     1.0000 0.52542  0.13760  0.32785  Biso   1.000  C
  C184     1.0000 0.97458  0.36240  0.32785  Biso   1.000  C
  C185     1.0000 0.77542  0.61240  0.07785  Biso   1.000  C
  C186     1.0000 0.22458  0.38760  0.07785  Biso   1.000  C
  C187     1.0000 0.02542  0.63760  0.32785  Biso   1.000  C
  C188     1.0000 0.47458  0.86240  0.32785  Biso   1.000  C
  C189     1.0000 0.77542  0.11240  0.57785  Biso   1.000  C
  C190     1.0000 0.22458  0.88760  0.57785  Biso   1.000  C
  C191     1.0000 0.02542  0.13760  0.82785  Biso   1.000  C
  C192     1.0000 0.47458  0.36240  0.82785  Biso   1.000  C
  H113     1.0000 0.27240  0.61270  0.53350  Biso   1.000  H
  H114     1.0000 0.72760  0.38730  0.53350  Biso   1.000  H
  H115     1.0000 0.52240  0.63730  0.78350  Biso   1.000  H
  H116     1.0000 0.97760  0.86270  0.78350  Biso   1.000  H
  H117     1.0000 0.27240  0.11270  0.03350  Biso   1.000  H
  H118     1.0000 0.72760  0.88730  0.03350  Biso   1.000  H
  H119     1.0000 0.52240  0.13730  0.28350  Biso   1.000  H
  H120     1.0000 0.97760  0.36270  0.28350  Biso   1.000  H
  H121     1.0000 0.77240  0.61270  0.03350  Biso   1.000  H
  H122     1.0000 0.22760  0.38730  0.03350  Biso   1.000  H
  H123     1.0000 0.02240  0.63730  0.28350  Biso   1.000  H
  H124     1.0000 0.47760  0.86270  0.28350  Biso   1.000  H
  H125     1.0000 0.77240  0.11270  0.53350  Biso   1.000  H
  H126     1.0000 0.22760  0.88730  0.53350  Biso   1.000  H
  H127     1.0000 0.02240  0.13730  0.78350  Biso   1.000  H
  H128     1.0000 0.47760  0.36270  0.78350  Biso   1.000  H
  C193     1.0000 0.21810  0.72430  0.20160  Biso   1.000  C
  C194     1.0000 0.78190  0.27570  0.20160  Biso   1.000  C
  C195     1.0000 0.46810  0.52570  0.45160  Biso   1.000  C
  C196     1.0000 0.03190  0.97430  0.45160  Biso   1.000  C
  C197     1.0000 0.21810  0.22430  0.70160  Biso   1.000  C
  C198     1.0000 0.78190  0.77570  0.70160  Biso   1.000  C
  C199     1.0000 0.46810  0.02570  0.95160  Biso   1.000  C
  C200     1.0000 0.03190  0.47430  0.95160  Biso   1.000  C
  C201     1.0000 0.71810  0.72430  0.70160  Biso   1.000  C
  C202     1.0000 0.28190  0.27570  0.70160  Biso   1.000  C
  C203     1.0000 0.96810  0.52570  0.95160  Biso   1.000  C
  C204     1.0000 0.53190  0.97430  0.95160  Biso   1.000  C
  C205     1.0000 0.71810  0.22430  0.20160  Biso   1.000  C
  C206     1.0000 0.28190  0.77570  0.20160  Biso   1.000  C
  C207     1.0000 0.96810  0.02570  0.45160  Biso   1.000  C
  C208     1.0000 0.53190  0.47430  0.45160  Biso   1.000  C
  C209     1.0000 0.17671  0.68240  0.17833  Biso   1.000  C
  C210     1.0000 0.82329  0.31760  0.17833  Biso   1.000  C
  C211     1.0000 0.42671  0.56760  0.42833  Biso   1.000  C
  C212     1.0000 0.07329  0.93240  0.42833  Biso   1.000  C
  C213     1.0000 0.17671  0.18240  0.67833  Biso   1.000  C
  C214     1.0000 0.82329  0.81760  0.67833  Biso   1.000  C
  C215     1.0000 0.42671  0.06760  0.92833  Biso   1.000  C
  C216     1.0000 0.07329  0.43240  0.92833  Biso   1.000  C
  C217     1.0000 0.67671  0.68240  0.67833  Biso   1.000  C
  C218     1.0000 0.32329  0.31760  0.67833  Biso   1.000  C
  C219     1.0000 0.92671  0.56760  0.92833  Biso   1.000  C
  C220     1.0000 0.57329  0.93240  0.92833  Biso   1.000  C
  C221     1.0000 0.67671  0.18240  0.17833  Biso   1.000  C
  C222     1.0000 0.32329  0.81760  0.17833  Biso   1.000  C
  C223     1.0000 0.92671  0.06760  0.42833  Biso   1.000  C
  C224     1.0000 0.57329  0.43240  0.42833  Biso   1.000  C
  C225     1.0000 0.14472  0.63580  0.21641  Biso   1.000  C
  C226     1.0000 0.85528  0.36420  0.21641  Biso   1.000  C
  C227     1.0000 0.39472  0.61420  0.46641  Biso   1.000  C
  C228     1.0000 0.10528  0.88580  0.46641  Biso   1.000  C
  C229     1.0000 0.14472  0.13580  0.71641  Biso   1.000  C
  C230     1.0000 0.85528  0.86420  0.71641  Biso   1.000  C
  C231     1.0000 0.39472  0.11420  0.96641  Biso   1.000  C
  C232     1.0000 0.10528  0.38580  0.96641  Biso   1.000  C
  C233     1.0000 0.64472  0.63580  0.71641  Biso   1.000  C
  C234     1.0000 0.35528  0.36420  0.71641  Biso   1.000  C
  C235     1.0000 0.89472  0.61420  0.96641  Biso   1.000  C
  C236     1.0000 0.60528  0.88580  0.96641  Biso   1.000  C
  C237     1.0000 0.64472  0.13580  0.21641  Biso   1.000  C
  C238     1.0000 0.35528  0.86420  0.21641  Biso   1.000  C
  C239     1.0000 0.89472  0.11420  0.46641  Biso   1.000  C
  C240     1.0000 0.60528  0.38580  0.46641  Biso   1.000  C
  H129     1.0000 0.14760  0.63760  0.26080  Biso   1.000  H
  H130     1.0000 0.85240  0.36240  0.26080  Biso   1.000  H
  H131     1.0000 0.39760  0.61240  0.51080  Biso   1.000  H
  H132     1.0000 0.10240  0.88760  0.51080  Biso   1.000  H
  H133     1.0000 0.14760  0.13760  0.76080  Biso   1.000  H
  H134     1.0000 0.85240  0.86240  0.76080  Biso   1.000  H
  H135     1.0000 0.39760  0.11240  0.01080  Biso   1.000  H
  H136     1.0000 0.10240  0.38760  0.01080  Biso   1.000  H
  H137     1.0000 0.64760  0.63760  0.76080  Biso   1.000  H
  H138     1.0000 0.35240  0.36240  0.76080  Biso   1.000  H
  H139     1.0000 0.89760  0.61240  0.01080  Biso   1.000  H
  H140     1.0000 0.60240  0.88760  0.01080  Biso   1.000  H
  H141     1.0000 0.64760  0.13760  0.26080  Biso   1.000  H
  H142     1.0000 0.35240  0.86240  0.26080  Biso   1.000  H
  H143     1.0000 0.89760  0.11240  0.51080  Biso   1.000  H
  H144     1.0000 0.60240  0.38760  0.51080  Biso   1.000  H
  C241     1.0000 0.10836  0.58650  0.18880  Biso   1.000  C
  C242     1.0000 0.89164  0.41350  0.18880  Biso   1.000  C
  C243     1.0000 0.35836  0.66350  0.43880  Biso   1.000  C
  C244     1.0000 0.14164  0.83650  0.43880  Biso   1.000  C
  C245     1.0000 0.10836  0.08650  0.68880  Biso   1.000  C
  C246     1.0000 0.89164  0.91350  0.68880  Biso   1.000  C
  C247     1.0000 0.35836  0.16350  0.93880  Biso   1.000  C
  C248     1.0000 0.14164  0.33650  0.93880  Biso   1.000  C
  C249     1.0000 0.60836  0.58650  0.68880  Biso   1.000  C
  C250     1.0000 0.39164  0.41350  0.68880  Biso   1.000  C
  C251     1.0000 0.85836  0.66350  0.93880  Biso   1.000  C
  C252     1.0000 0.64164  0.83650  0.93880  Biso   1.000  C
  C253     1.0000 0.60836  0.08650  0.18880  Biso   1.000  C
  C254     1.0000 0.39164  0.91350  0.18880  Biso   1.000  C
  C255     1.0000 0.85836  0.16350  0.43880  Biso   1.000  C
  C256     1.0000 0.64164  0.33650  0.43880  Biso   1.000  C
  H145     1.0000 0.08670  0.55470  0.21540  Biso   1.000  H
  H146     1.0000 0.91330  0.44530  0.21540  Biso   1.000  H
  H147     1.0000 0.33670  0.69530  0.46540  Biso   1.000  H
  H148     1.0000 0.16330  0.80470  0.46540  Biso   1.000  H
  H149     1.0000 0.08670  0.05470  0.71540  Biso   1.000  H
  H150     1.0000 0.91330  0.94530  0.71540  Biso   1.000  H
  H151     1.0000 0.33670  0.19530  0.96540  Biso   1.000  H
  H152     1.0000 0.16330  0.30470  0.96540  Biso   1.000  H
  H153     1.0000 0.58670  0.55470  0.71540  Biso   1.000  H
  H154     1.0000 0.41330  0.44530  0.71540  Biso   1.000  H
  H155     1.0000 0.83670  0.69530  0.96540  Biso   1.000  H
  H156     1.0000 0.66330  0.80470  0.96540  Biso   1.000  H
  H157     1.0000 0.58670  0.05470  0.21540  Biso   1.000  H
  H158     1.0000 0.41330  0.94530  0.21540  Biso   1.000  H
  H159     1.0000 0.83670  0.19530  0.46540  Biso   1.000  H
  H160     1.0000 0.66330  0.30470  0.46540  Biso   1.000  H
  C257     1.0000 0.13283  0.63020  0.09024  Biso   1.000  C
  C258     1.0000 0.86717  0.36980  0.09024  Biso   1.000  C
  C259     1.0000 0.38283  0.61980  0.34024  Biso   1.000  C
  C260     1.0000 0.11717  0.88020  0.34024  Biso   1.000  C
  C261     1.0000 0.13283  0.13020  0.59024  Biso   1.000  C
  C262     1.0000 0.86717  0.86980  0.59024  Biso   1.000  C
  C263     1.0000 0.38283  0.11980  0.84024  Biso   1.000  C
  C264     1.0000 0.11717  0.38020  0.84024  Biso   1.000  C
  C265     1.0000 0.63283  0.63020  0.59024  Biso   1.000  C
  C266     1.0000 0.36717  0.36980  0.59024  Biso   1.000  C
  C267     1.0000 0.88283  0.61980  0.84024  Biso   1.000  C
  C268     1.0000 0.61717  0.88020  0.84024  Biso   1.000  C
  C269     1.0000 0.63283  0.13020  0.09024  Biso   1.000  C
  C270     1.0000 0.36717  0.86980  0.09024  Biso   1.000  C
  C271     1.0000 0.88283  0.11980  0.34024  Biso   1.000  C
  C272     1.0000 0.61717  0.38020  0.34024  Biso   1.000  C
  H161     1.0000 0.12890  0.63000  0.04600  Biso   1.000  H
  H162     1.0000 0.87110  0.37000  0.04600  Biso   1.000  H
  H163     1.0000 0.37890  0.62000  0.29600  Biso   1.000  H
  H164     1.0000 0.12110  0.88000  0.29600  Biso   1.000  H
  H165     1.0000 0.12890  0.13000  0.54600  Biso   1.000  H
  H166     1.0000 0.87110  0.87000  0.54600  Biso   1.000  H
  H167     1.0000 0.37890  0.12000  0.79600  Biso   1.000  H
  H168     1.0000 0.12110  0.38000  0.79600  Biso   1.000  H
  H169     1.0000 0.62890  0.63000  0.54600  Biso   1.000  H
  H170     1.0000 0.37110  0.37000  0.54600  Biso   1.000  H
  H171     1.0000 0.87890  0.62000  0.79600  Biso   1.000  H
  H172     1.0000 0.62110  0.88000  0.79600  Biso   1.000  H
  H173     1.0000 0.62890  0.13000  0.04600  Biso   1.000  H
  H174     1.0000 0.37110  0.87000  0.04600  Biso   1.000  H
  H175     1.0000 0.87890  0.12000  0.29600  Biso   1.000  H
  H176     1.0000 0.62110  0.38000  0.29600  Biso   1.000  H
  C273     1.0000 0.16963  0.68050  0.11406  Biso   1.000  C
  C274     1.0000 0.83037  0.31950  0.11406  Biso   1.000  C
  C275     1.0000 0.41963  0.56950  0.36406  Biso   1.000  C
  C276     1.0000 0.08037  0.93050  0.36406  Biso   1.000  C
  C277     1.0000 0.16963  0.18050  0.61406  Biso   1.000  C
  C278     1.0000 0.83037  0.81950  0.61406  Biso   1.000  C
  C279     1.0000 0.41963  0.06950  0.86406  Biso   1.000  C
  C280     1.0000 0.08037  0.43050  0.86406  Biso   1.000  C
  C281     1.0000 0.66963  0.68050  0.61406  Biso   1.000  C
  C282     1.0000 0.33037  0.31950  0.61406  Biso   1.000  C
  C283     1.0000 0.91963  0.56950  0.86406  Biso   1.000  C
  C284     1.0000 0.58037  0.93050  0.86406  Biso   1.000  C
  C285     1.0000 0.66963  0.18050  0.11406  Biso   1.000  C
  C286     1.0000 0.33037  0.81950  0.11406  Biso   1.000  C
  C287     1.0000 0.91963  0.06950  0.36406  Biso   1.000  C
  C288     1.0000 0.58037  0.43050  0.36406  Biso   1.000  C
  H177     1.0000 0.19030  0.71420  0.08630  Biso   1.000  H
  H178     1.0000 0.80970  0.28580  0.08630  Biso   1.000  H
  H179     1.0000 0.44030  0.53580  0.33630  Biso   1.000  H
  H180     1.0000 0.05970  0.96420  0.33630  Biso   1.000  H
  H181     1.0000 0.19030  0.21420  0.58630  Biso   1.000  H
  H182     1.0000 0.80970  0.78580  0.58630  Biso   1.000  H
  H183     1.0000 0.44030  0.03580  0.83630  Biso   1.000  H
  H184     1.0000 0.05970  0.46420  0.83630  Biso   1.000  H
  H185     1.0000 0.69030  0.71420  0.58630  Biso   1.000  H
  H186     1.0000 0.30970  0.28580  0.58630  Biso   1.000  H
  H187     1.0000 0.94030  0.53580  0.83630  Biso   1.000  H
  H188     1.0000 0.55970  0.96420  0.83630  Biso   1.000  H
  H189     1.0000 0.69030  0.21420  0.08630  Biso   1.000  H
  H190     1.0000 0.30970  0.78580  0.08630  Biso   1.000  H
  H191     1.0000 0.94030  0.03580  0.33630  Biso   1.000  H
  H192     1.0000 0.55970  0.46420  0.33630  Biso   1.000  H
