data_image0
_cell_length_a       44.249
_cell_length_b       14.0383
_cell_length_c       25.1116
_cell_angle_alpha    90
_cell_angle_beta     115.616
_cell_angle_gamma    90

_symmetry_space_group_name_H-M    "P 1"
_symmetry_int_tables_number       1

loop_
  _symmetry_equiv_pos_as_xyz
  'x, y, z'

loop_
  _atom_site_label
  _atom_site_occupancy
  _atom_site_fract_x
  _atom_site_fract_y
  _atom_site_fract_z
  _atom_site_thermal_displace_type
  _atom_site_B_iso_or_equiv
  _atom_site_type_symbol
  N1       1.0000 0.20223  0.52580  0.15440  Biso   1.000  N
  N2       1.0000 0.70223  0.02580  0.15440  Biso   1.000  N
  N3       1.0000 0.79777  0.52580  0.34560  Biso   1.000  N
  N4       1.0000 0.29777  0.02580  0.34560  Biso   1.000  N
  N5       1.0000 0.79777  0.47420  0.84560  Biso   1.000  N
  N6       1.0000 0.29777  0.97420  0.84560  Biso   1.000  N
  N7       1.0000 0.20223  0.47420  0.65440  Biso   1.000  N
  N8       1.0000 0.70223  0.97420  0.65440  Biso   1.000  N
  Cu1      1.0000 0.17110  0.40466  0.14563  Biso   1.000  Cu
  Cu2      1.0000 0.67110  0.90466  0.14563  Biso   1.000  Cu
  Cu3      1.0000 0.82890  0.40466  0.35437  Biso   1.000  Cu
  Cu4      1.0000 0.32890  0.90466  0.35437  Biso   1.000  Cu
  Cu5      1.0000 0.82890  0.59534  0.85437  Biso   1.000  Cu
  Cu6      1.0000 0.32890  0.09534  0.85437  Biso   1.000  Cu
  Cu7      1.0000 0.17110  0.59534  0.64563  Biso   1.000  Cu
  Cu8      1.0000 0.67110  0.09534  0.64563  Biso   1.000  Cu
  Cu9      1.0000 0.11582  0.26396  0.10019  Biso   1.000  Cu
  Cu10     1.0000 0.61582  0.76396  0.10019  Biso   1.000  Cu
  Cu11     1.0000 0.88418  0.26396  0.39981  Biso   1.000  Cu
  Cu12     1.0000 0.38418  0.76396  0.39981  Biso   1.000  Cu
  Cu13     1.0000 0.88418  0.73604  0.89981  Biso   1.000  Cu
  Cu14     1.0000 0.38418  0.23604  0.89981  Biso   1.000  Cu
  Cu15     1.0000 0.11582  0.73604  0.60019  Biso   1.000  Cu
  Cu16     1.0000 0.61582  0.23604  0.60019  Biso   1.000  Cu
  Cu17     1.0000 0.31868  0.69293  0.25070  Biso   1.000  Cu
  Cu18     1.0000 0.81868  0.19293  0.25070  Biso   1.000  Cu
  Cu19     1.0000 0.68132  0.69293  0.24930  Biso   1.000  Cu
  Cu20     1.0000 0.18132  0.19293  0.24930  Biso   1.000  Cu
  Cu21     1.0000 0.68132  0.30707  0.74930  Biso   1.000  Cu
  Cu22     1.0000 0.18132  0.80707  0.74930  Biso   1.000  Cu
  Cu23     1.0000 0.31868  0.30707  0.75070  Biso   1.000  Cu
  Cu24     1.0000 0.81868  0.80707  0.75070  Biso   1.000  Cu
  P1       1.0000 0.19506  0.29648  0.10808  Biso   1.000  P
  P2       1.0000 0.69506  0.79648  0.10808  Biso   1.000  P
  P3       1.0000 0.80494  0.29648  0.39192  Biso   1.000  P
  P4       1.0000 0.30494  0.79648  0.39192  Biso   1.000  P
  P5       1.0000 0.80494  0.70352  0.89192  Biso   1.000  P
  P6       1.0000 0.30494  0.20352  0.89192  Biso   1.000  P
  P7       1.0000 0.19506  0.70352  0.60808  Biso   1.000  P
  P8       1.0000 0.69506  0.20352  0.60808  Biso   1.000  P
  P9       1.0000 0.13883  0.15183  0.06723  Biso   1.000  P
  P10      1.0000 0.63883  0.65183  0.06723  Biso   1.000  P
  P11      1.0000 0.86117  0.15183  0.43277  Biso   1.000  P
  P12      1.0000 0.36117  0.65183  0.43277  Biso   1.000  P
  P13      1.0000 0.86117  0.84817  0.93277  Biso   1.000  P
  P14      1.0000 0.36117  0.34817  0.93277  Biso   1.000  P
  P15      1.0000 0.13883  0.84817  0.56723  Biso   1.000  P
  P16      1.0000 0.63883  0.34817  0.56723  Biso   1.000  P
  P17      1.0000 0.16339  0.39393  0.22958  Biso   1.000  P
  P18      1.0000 0.66339  0.89393  0.22958  Biso   1.000  P
  P19      1.0000 0.83661  0.39393  0.27042  Biso   1.000  P
  P20      1.0000 0.33661  0.89393  0.27042  Biso   1.000  P
  P21      1.0000 0.83661  0.60607  0.77042  Biso   1.000  P
  P22      1.0000 0.33661  0.10607  0.77042  Biso   1.000  P
  P23      1.0000 0.16339  0.60607  0.72958  Biso   1.000  P
  P24      1.0000 0.66339  0.10607  0.72958  Biso   1.000  P
  P25      1.0000 0.10980  0.24825  0.18317  Biso   1.000  P
  P26      1.0000 0.60980  0.74825  0.18317  Biso   1.000  P
  P27      1.0000 0.89020  0.24825  0.31683  Biso   1.000  P
  P28      1.0000 0.39020  0.74825  0.31683  Biso   1.000  P
  P29      1.0000 0.89020  0.75175  0.81683  Biso   1.000  P
  P30      1.0000 0.39020  0.25175  0.81683  Biso   1.000  P
  P31      1.0000 0.10980  0.75175  0.68317  Biso   1.000  P
  P32      1.0000 0.60980  0.25175  0.68317  Biso   1.000  P
  O1       1.0000 0.12934  0.48010  0.08160  Biso   1.000  O
  O2       1.0000 0.62934  0.98010  0.08160  Biso   1.000  O
  O3       1.0000 0.87066  0.48010  0.41840  Biso   1.000  O
  O4       1.0000 0.37066  0.98010  0.41840  Biso   1.000  O
  O5       1.0000 0.87066  0.51990  0.91840  Biso   1.000  O
  O6       1.0000 0.37066  0.01990  0.91840  Biso   1.000  O
  O7       1.0000 0.12934  0.51990  0.58160  Biso   1.000  O
  O8       1.0000 0.62934  0.01990  0.58160  Biso   1.000  O
  O9       1.0000 0.09102  0.36520  0.04290  Biso   1.000  O
  O10      1.0000 0.59102  0.86520  0.04290  Biso   1.000  O
  O11      1.0000 0.90898  0.36520  0.45710  Biso   1.000  O
  O12      1.0000 0.40898  0.86520  0.45710  Biso   1.000  O
  O13      1.0000 0.90898  0.63480  0.95710  Biso   1.000  O
  O14      1.0000 0.40898  0.13480  0.95710  Biso   1.000  O
  O15      1.0000 0.09102  0.63480  0.54290  Biso   1.000  O
  O16      1.0000 0.59102  0.13480  0.54290  Biso   1.000  O
  O17      1.0000 0.03320  0.37080  0.91650  Biso   1.000  O
  O18      1.0000 0.53320  0.87080  0.91650  Biso   1.000  O
  O19      1.0000 0.96680  0.37080  0.58350  Biso   1.000  O
  O20      1.0000 0.46680  0.87080  0.58350  Biso   1.000  O
  O21      1.0000 0.96680  0.62920  0.08350  Biso   1.000  O
  O22      1.0000 0.46680  0.12920  0.08350  Biso   1.000  O
  O23      1.0000 0.03320  0.62920  0.41650  Biso   1.000  O
  O24      1.0000 0.53320  0.12920  0.41650  Biso   1.000  O
  O25      1.0000 0.01510  0.35750  0.98930  Biso   1.000  O
  O26      1.0000 0.51510  0.85750  0.98930  Biso   1.000  O
  O27      1.0000 0.98490  0.35750  0.51070  Biso   1.000  O
  O28      1.0000 0.48490  0.85750  0.51070  Biso   1.000  O
  O29      1.0000 0.98490  0.64250  0.01070  Biso   1.000  O
  O30      1.0000 0.48490  0.14250  0.01070  Biso   1.000  O
  O31      1.0000 0.01510  0.64250  0.48930  Biso   1.000  O
  O32      1.0000 0.51510  0.14250  0.48930  Biso   1.000  O
  O33      1.0000 0.28619  0.60660  0.24660  Biso   1.000  O
  O34      1.0000 0.78619  0.10660  0.24660  Biso   1.000  O
  O35      1.0000 0.71381  0.60660  0.25340  Biso   1.000  O
  O36      1.0000 0.21381  0.10660  0.25340  Biso   1.000  O
  O37      1.0000 0.71381  0.39340  0.75340  Biso   1.000  O
  O38      1.0000 0.21381  0.89340  0.75340  Biso   1.000  O
  O39      1.0000 0.28619  0.39340  0.74660  Biso   1.000  O
  O40      1.0000 0.78619  0.89340  0.74660  Biso   1.000  O
  C1       1.0000 0.24060  0.29370  0.14810  Biso   1.000  C
  C2       1.0000 0.74060  0.79370  0.14810  Biso   1.000  C
  C3       1.0000 0.75940  0.29370  0.35190  Biso   1.000  C
  C4       1.0000 0.25940  0.79370  0.35190  Biso   1.000  C
  C5       1.0000 0.75940  0.70630  0.85190  Biso   1.000  C
  C6       1.0000 0.25940  0.20630  0.85190  Biso   1.000  C
  C7       1.0000 0.24060  0.70630  0.64810  Biso   1.000  C
  C8       1.0000 0.74060  0.20630  0.64810  Biso   1.000  C
  C9       1.0000 0.25870  0.22120  0.18640  Biso   1.000  C
  C10      1.0000 0.75870  0.72120  0.18640  Biso   1.000  C
  C11      1.0000 0.74130  0.22120  0.31360  Biso   1.000  C
  C12      1.0000 0.24130  0.72120  0.31360  Biso   1.000  C
  C13      1.0000 0.74130  0.77880  0.81360  Biso   1.000  C
  C14      1.0000 0.24130  0.27880  0.81360  Biso   1.000  C
  C15      1.0000 0.25870  0.77880  0.68640  Biso   1.000  C
  C16      1.0000 0.75870  0.27880  0.68640  Biso   1.000  C
  H1       1.0000 0.24720  0.17030  0.19290  Biso   1.000  H
  H2       1.0000 0.74720  0.67030  0.19290  Biso   1.000  H
  H3       1.0000 0.75280  0.17030  0.30710  Biso   1.000  H
  H4       1.0000 0.25280  0.67030  0.30710  Biso   1.000  H
  H5       1.0000 0.75280  0.82970  0.80710  Biso   1.000  H
  H6       1.0000 0.25280  0.32970  0.80710  Biso   1.000  H
  H7       1.0000 0.24720  0.82970  0.69290  Biso   1.000  H
  H8       1.0000 0.74720  0.32970  0.69290  Biso   1.000  H
  C17      1.0000 0.29290  0.22270  0.21470  Biso   1.000  C
  C18      1.0000 0.79290  0.72270  0.21470  Biso   1.000  C
  C19      1.0000 0.70710  0.22270  0.28530  Biso   1.000  C
  C20      1.0000 0.20710  0.72270  0.28530  Biso   1.000  C
  C21      1.0000 0.70710  0.77730  0.78530  Biso   1.000  C
  C22      1.0000 0.20710  0.27730  0.78530  Biso   1.000  C
  C23      1.0000 0.29290  0.77730  0.71470  Biso   1.000  C
  C24      1.0000 0.79290  0.27730  0.71470  Biso   1.000  C
  H9       1.0000 0.30440  0.17160  0.23830  Biso   1.000  H
  H10      1.0000 0.80440  0.67160  0.23830  Biso   1.000  H
  H11      1.0000 0.69560  0.17160  0.26170  Biso   1.000  H
  H12      1.0000 0.19560  0.67160  0.26170  Biso   1.000  H
  H13      1.0000 0.69560  0.82840  0.76170  Biso   1.000  H
  H14      1.0000 0.19560  0.32840  0.76170  Biso   1.000  H
  H15      1.0000 0.30440  0.82840  0.73830  Biso   1.000  H
  H16      1.0000 0.80440  0.32840  0.73830  Biso   1.000  H
  C25      1.0000 0.31020  0.29810  0.20850  Biso   1.000  C
  C26      1.0000 0.81020  0.79810  0.20850  Biso   1.000  C
  C27      1.0000 0.68980  0.29810  0.29150  Biso   1.000  C
  C28      1.0000 0.18980  0.79810  0.29150  Biso   1.000  C
  C29      1.0000 0.68980  0.70190  0.79150  Biso   1.000  C
  C30      1.0000 0.18980  0.20190  0.79150  Biso   1.000  C
  C31      1.0000 0.31020  0.70190  0.70850  Biso   1.000  C
  C32      1.0000 0.81020  0.20190  0.70850  Biso   1.000  C
  H17      1.0000 0.33340  0.30010  0.22880  Biso   1.000  H
  H18      1.0000 0.83340  0.80010  0.22880  Biso   1.000  H
  H19      1.0000 0.66660  0.30010  0.27120  Biso   1.000  H
  H20      1.0000 0.16660  0.80010  0.27120  Biso   1.000  H
  H21      1.0000 0.66660  0.69990  0.77120  Biso   1.000  H
  H22      1.0000 0.16660  0.19990  0.77120  Biso   1.000  H
  H23      1.0000 0.33340  0.69990  0.72880  Biso   1.000  H
  H24      1.0000 0.83340  0.19990  0.72880  Biso   1.000  H
  C33      1.0000 0.29270  0.37290  0.17140  Biso   1.000  C
  C34      1.0000 0.79270  0.87290  0.17140  Biso   1.000  C
  C35      1.0000 0.70730  0.37290  0.32860  Biso   1.000  C
  C36      1.0000 0.20730  0.87290  0.32860  Biso   1.000  C
  C37      1.0000 0.70730  0.62710  0.82860  Biso   1.000  C
  C38      1.0000 0.20730  0.12710  0.82860  Biso   1.000  C
  C39      1.0000 0.29270  0.62710  0.67140  Biso   1.000  C
  C40      1.0000 0.79270  0.12710  0.67140  Biso   1.000  C
  H25      1.0000 0.30450  0.42480  0.16690  Biso   1.000  H
  H26      1.0000 0.80450  0.92480  0.16690  Biso   1.000  H
  H27      1.0000 0.69550  0.42480  0.33310  Biso   1.000  H
  H28      1.0000 0.19550  0.92480  0.33310  Biso   1.000  H
  H29      1.0000 0.69550  0.57520  0.83310  Biso   1.000  H
  H30      1.0000 0.19550  0.07520  0.83310  Biso   1.000  H
  H31      1.0000 0.30450  0.57520  0.66690  Biso   1.000  H
  H32      1.0000 0.80450  0.07520  0.66690  Biso   1.000  H
  C41      1.0000 0.25870  0.37130  0.14160  Biso   1.000  C
  C42      1.0000 0.75870  0.87130  0.14160  Biso   1.000  C
  C43      1.0000 0.74130  0.37130  0.35840  Biso   1.000  C
  C44      1.0000 0.24130  0.87130  0.35840  Biso   1.000  C
  C45      1.0000 0.74130  0.62870  0.85840  Biso   1.000  C
  C46      1.0000 0.24130  0.12870  0.85840  Biso   1.000  C
  C47      1.0000 0.25870  0.62870  0.64160  Biso   1.000  C
  C48      1.0000 0.75870  0.12870  0.64160  Biso   1.000  C
  H33      1.0000 0.24750  0.42170  0.11690  Biso   1.000  H
  H34      1.0000 0.74750  0.92170  0.11690  Biso   1.000  H
  H35      1.0000 0.75250  0.42170  0.38310  Biso   1.000  H
  H36      1.0000 0.25250  0.92170  0.38310  Biso   1.000  H
  H37      1.0000 0.75250  0.57830  0.88310  Biso   1.000  H
  H38      1.0000 0.25250  0.07830  0.88310  Biso   1.000  H
  H39      1.0000 0.24750  0.57830  0.61690  Biso   1.000  H
  H40      1.0000 0.74750  0.07830  0.61690  Biso   1.000  H
  C49      1.0000 0.18960  0.31890  0.03150  Biso   1.000  C
  C50      1.0000 0.68960  0.81890  0.03150  Biso   1.000  C
  C51      1.0000 0.81040  0.31890  0.46850  Biso   1.000  C
  C52      1.0000 0.31040  0.81890  0.46850  Biso   1.000  C
  C53      1.0000 0.81040  0.68110  0.96850  Biso   1.000  C
  C54      1.0000 0.31040  0.18110  0.96850  Biso   1.000  C
  C55      1.0000 0.18960  0.68110  0.53150  Biso   1.000  C
  C56      1.0000 0.68960  0.18110  0.53150  Biso   1.000  C
  C57      1.0000 0.20720  0.26700  0.00790  Biso   1.000  C
  C58      1.0000 0.70720  0.76700  0.00790  Biso   1.000  C
  C59      1.0000 0.79280  0.26700  0.49210  Biso   1.000  C
  C60      1.0000 0.29280  0.76700  0.49210  Biso   1.000  C
  C61      1.0000 0.79280  0.73300  0.99210  Biso   1.000  C
  C62      1.0000 0.29280  0.23300  0.99210  Biso   1.000  C
  C63      1.0000 0.20720  0.73300  0.50790  Biso   1.000  C
  C64      1.0000 0.70720  0.23300  0.50790  Biso   1.000  C
  H41      1.0000 0.22300  0.22290  0.03130  Biso   1.000  H
  H42      1.0000 0.72300  0.72290  0.03130  Biso   1.000  H
  H43      1.0000 0.77700  0.22290  0.46870  Biso   1.000  H
  H44      1.0000 0.27700  0.72290  0.46870  Biso   1.000  H
  H45      1.0000 0.77700  0.77710  0.96870  Biso   1.000  H
  H46      1.0000 0.27700  0.27710  0.96870  Biso   1.000  H
  H47      1.0000 0.22300  0.77710  0.53130  Biso   1.000  H
  H48      1.0000 0.72300  0.27710  0.53130  Biso   1.000  H
  C65      1.0000 0.20170  0.27930  0.94950  Biso   1.000  C
  C66      1.0000 0.70170  0.77930  0.94950  Biso   1.000  C
  C67      1.0000 0.79830  0.27930  0.55050  Biso   1.000  C
  C68      1.0000 0.29830  0.77930  0.55050  Biso   1.000  C
  C69      1.0000 0.79830  0.72070  0.05050  Biso   1.000  C
  C70      1.0000 0.29830  0.22070  0.05050  Biso   1.000  C
  C71      1.0000 0.20170  0.72070  0.44950  Biso   1.000  C
  C72      1.0000 0.70170  0.22070  0.44950  Biso   1.000  C
  H49      1.0000 0.21330  0.24250  0.93360  Biso   1.000  H
  H50      1.0000 0.71330  0.74250  0.93360  Biso   1.000  H
  H51      1.0000 0.78670  0.24250  0.56640  Biso   1.000  H
  H52      1.0000 0.28670  0.74250  0.56640  Biso   1.000  H
  H53      1.0000 0.78670  0.75750  0.06640  Biso   1.000  H
  H54      1.0000 0.28670  0.25750  0.06640  Biso   1.000  H
  H55      1.0000 0.21330  0.75750  0.43360  Biso   1.000  H
  H56      1.0000 0.71330  0.25750  0.43360  Biso   1.000  H
  C73      1.0000 0.17920  0.34560  0.91580  Biso   1.000  C
  C74      1.0000 0.67920  0.84560  0.91580  Biso   1.000  C
  C75      1.0000 0.82080  0.34560  0.58420  Biso   1.000  C
  C76      1.0000 0.32080  0.84560  0.58420  Biso   1.000  C
  C77      1.0000 0.82080  0.65440  0.08420  Biso   1.000  C
  C78      1.0000 0.32080  0.15440  0.08420  Biso   1.000  C
  C79      1.0000 0.17920  0.65440  0.41580  Biso   1.000  C
  C80      1.0000 0.67920  0.15440  0.41580  Biso   1.000  C
  H57      1.0000 0.17560  0.35470  0.87680  Biso   1.000  H
  H58      1.0000 0.67560  0.85470  0.87680  Biso   1.000  H
  H59      1.0000 0.82440  0.35470  0.62320  Biso   1.000  H
  H60      1.0000 0.32440  0.85470  0.62320  Biso   1.000  H
  H61      1.0000 0.82440  0.64530  0.12320  Biso   1.000  H
  H62      1.0000 0.32440  0.14530  0.12320  Biso   1.000  H
  H63      1.0000 0.17560  0.64530  0.37680  Biso   1.000  H
  H64      1.0000 0.67560  0.14530  0.37680  Biso   1.000  H
  C81      1.0000 0.16200  0.39870  0.93870  Biso   1.000  C
  C82      1.0000 0.66200  0.89870  0.93870  Biso   1.000  C
  C83      1.0000 0.83800  0.39870  0.56130  Biso   1.000  C
  C84      1.0000 0.33800  0.89870  0.56130  Biso   1.000  C
  C85      1.0000 0.83800  0.60130  0.06130  Biso   1.000  C
  C86      1.0000 0.33800  0.10130  0.06130  Biso   1.000  C
  C87      1.0000 0.16200  0.60130  0.43870  Biso   1.000  C
  C88      1.0000 0.66200  0.10130  0.43870  Biso   1.000  C
  H65      1.0000 0.14650  0.44380  0.91560  Biso   1.000  H
  H66      1.0000 0.64650  0.94380  0.91560  Biso   1.000  H
  H67      1.0000 0.85350  0.44380  0.58440  Biso   1.000  H
  H68      1.0000 0.35350  0.94380  0.58440  Biso   1.000  H
  H69      1.0000 0.85350  0.55620  0.08440  Biso   1.000  H
  H70      1.0000 0.35350  0.05620  0.08440  Biso   1.000  H
  H71      1.0000 0.14650  0.55620  0.41560  Biso   1.000  H
  H72      1.0000 0.64650  0.05620  0.41560  Biso   1.000  H
  C89      1.0000 0.16790  0.38460  0.99780  Biso   1.000  C
  C90      1.0000 0.66790  0.88460  0.99780  Biso   1.000  C
  C91      1.0000 0.83210  0.38460  0.50220  Biso   1.000  C
  C92      1.0000 0.33210  0.88460  0.50220  Biso   1.000  C
  C93      1.0000 0.83210  0.61540  0.00220  Biso   1.000  C
  C94      1.0000 0.33210  0.11540  0.00220  Biso   1.000  C
  C95      1.0000 0.16790  0.61540  0.49780  Biso   1.000  C
  C96      1.0000 0.66790  0.11540  0.49780  Biso   1.000  C
  H73      1.0000 0.15650  0.42170  0.01380  Biso   1.000  H
  H74      1.0000 0.65650  0.92170  0.01380  Biso   1.000  H
  H75      1.0000 0.84350  0.42170  0.48620  Biso   1.000  H
  H76      1.0000 0.34350  0.92170  0.48620  Biso   1.000  H
  H77      1.0000 0.84350  0.57830  0.98620  Biso   1.000  H
  H78      1.0000 0.34350  0.07830  0.98620  Biso   1.000  H
  H79      1.0000 0.15650  0.57830  0.51380  Biso   1.000  H
  H80      1.0000 0.65650  0.07830  0.51380  Biso   1.000  H
  C97      1.0000 0.12870  0.15400  0.98820  Biso   1.000  C
  C98      1.0000 0.62870  0.65400  0.98820  Biso   1.000  C
  C99      1.0000 0.87130  0.15400  0.51180  Biso   1.000  C
  C100     1.0000 0.37130  0.65400  0.51180  Biso   1.000  C
  C101     1.0000 0.87130  0.84600  0.01180  Biso   1.000  C
  C102     1.0000 0.37130  0.34600  0.01180  Biso   1.000  C
  C103     1.0000 0.12870  0.84600  0.48820  Biso   1.000  C
  C104     1.0000 0.62870  0.34600  0.48820  Biso   1.000  C
  C105     1.0000 0.14370  0.09400  0.96320  Biso   1.000  C
  C106     1.0000 0.64370  0.59400  0.96320  Biso   1.000  C
  C107     1.0000 0.85630  0.09400  0.53680  Biso   1.000  C
  C108     1.0000 0.35630  0.59400  0.53680  Biso   1.000  C
  C109     1.0000 0.85630  0.90600  0.03680  Biso   1.000  C
  C110     1.0000 0.35630  0.40600  0.03680  Biso   1.000  C
  C111     1.0000 0.14370  0.90600  0.46320  Biso   1.000  C
  C112     1.0000 0.64370  0.40600  0.46320  Biso   1.000  C
  H81      1.0000 0.15980  0.05050  0.98660  Biso   1.000  H
  H82      1.0000 0.65980  0.55050  0.98660  Biso   1.000  H
  H83      1.0000 0.84020  0.05050  0.51340  Biso   1.000  H
  H84      1.0000 0.34020  0.55050  0.51340  Biso   1.000  H
  H85      1.0000 0.84020  0.94950  0.01340  Biso   1.000  H
  H86      1.0000 0.34020  0.44950  0.01340  Biso   1.000  H
  H87      1.0000 0.15980  0.94950  0.48660  Biso   1.000  H
  H88      1.0000 0.65980  0.44950  0.48660  Biso   1.000  H
  C113     1.0000 0.13470  0.09890  0.90330  Biso   1.000  C
  C114     1.0000 0.63470  0.59890  0.90330  Biso   1.000  C
  C115     1.0000 0.86530  0.09890  0.59670  Biso   1.000  C
  C116     1.0000 0.36530  0.59890  0.59670  Biso   1.000  C
  C117     1.0000 0.86530  0.90110  0.09670  Biso   1.000  C
  C118     1.0000 0.36530  0.40110  0.09670  Biso   1.000  C
  C119     1.0000 0.13470  0.90110  0.40330  Biso   1.000  C
  C120     1.0000 0.63470  0.40110  0.40330  Biso   1.000  C
  H89      1.0000 0.14490  0.05880  0.88650  Biso   1.000  H
  H90      1.0000 0.64490  0.55880  0.88650  Biso   1.000  H
  H91      1.0000 0.85510  0.05880  0.61350  Biso   1.000  H
  H92      1.0000 0.35510  0.55880  0.61350  Biso   1.000  H
  H93      1.0000 0.85510  0.94120  0.11350  Biso   1.000  H
  H94      1.0000 0.35510  0.44120  0.11350  Biso   1.000  H
  H95      1.0000 0.14490  0.94120  0.38650  Biso   1.000  H
  H96      1.0000 0.64490  0.44120  0.38650  Biso   1.000  H
  C121     1.0000 0.11030  0.16400  0.86760  Biso   1.000  C
  C122     1.0000 0.61030  0.66400  0.86760  Biso   1.000  C
  C123     1.0000 0.88970  0.16400  0.63240  Biso   1.000  C
  C124     1.0000 0.38970  0.66400  0.63240  Biso   1.000  C
  C125     1.0000 0.88970  0.83600  0.13240  Biso   1.000  C
  C126     1.0000 0.38970  0.33600  0.13240  Biso   1.000  C
  C127     1.0000 0.11030  0.83600  0.36760  Biso   1.000  C
  C128     1.0000 0.61030  0.33600  0.36760  Biso   1.000  C
  H97      1.0000 0.10410  0.16750  0.82730  Biso   1.000  H
  H98      1.0000 0.60410  0.66750  0.82730  Biso   1.000  H
  H99      1.0000 0.89590  0.16750  0.67270  Biso   1.000  H
  H100     1.0000 0.39590  0.66750  0.67270  Biso   1.000  H
  H101     1.0000 0.89590  0.83250  0.17270  Biso   1.000  H
  H102     1.0000 0.39590  0.33250  0.17270  Biso   1.000  H
  H103     1.0000 0.10410  0.83250  0.32730  Biso   1.000  H
  H104     1.0000 0.60410  0.33250  0.32730  Biso   1.000  H
  C129     1.0000 0.09590  0.22110  0.89300  Biso   1.000  C
  C130     1.0000 0.59590  0.72110  0.89300  Biso   1.000  C
  C131     1.0000 0.90410  0.22110  0.60700  Biso   1.000  C
  C132     1.0000 0.40410  0.72110  0.60700  Biso   1.000  C
  C133     1.0000 0.90410  0.77890  0.10700  Biso   1.000  C
  C134     1.0000 0.40410  0.27890  0.10700  Biso   1.000  C
  C135     1.0000 0.09590  0.77890  0.39300  Biso   1.000  C
  C136     1.0000 0.59590  0.27890  0.39300  Biso   1.000  C
  H105     1.0000 0.07950  0.26390  0.86950  Biso   1.000  H
  H106     1.0000 0.57950  0.76390  0.86950  Biso   1.000  H
  H107     1.0000 0.92050  0.26390  0.63050  Biso   1.000  H
  H108     1.0000 0.42050  0.76390  0.63050  Biso   1.000  H
  H109     1.0000 0.92050  0.73610  0.13050  Biso   1.000  H
  H110     1.0000 0.42050  0.23610  0.13050  Biso   1.000  H
  H111     1.0000 0.07950  0.73610  0.36950  Biso   1.000  H
  H112     1.0000 0.57950  0.23610  0.36950  Biso   1.000  H
  C137     1.0000 0.10480  0.21840  0.95380  Biso   1.000  C
  C138     1.0000 0.60480  0.71840  0.95380  Biso   1.000  C
  C139     1.0000 0.89520  0.21840  0.54620  Biso   1.000  C
  C140     1.0000 0.39520  0.71840  0.54620  Biso   1.000  C
  C141     1.0000 0.89520  0.78160  0.04620  Biso   1.000  C
  C142     1.0000 0.39520  0.28160  0.04620  Biso   1.000  C
  C143     1.0000 0.10480  0.78160  0.45380  Biso   1.000  C
  C144     1.0000 0.60480  0.28160  0.45380  Biso   1.000  C
  H113     1.0000 0.09480  0.25930  0.97050  Biso   1.000  H
  H114     1.0000 0.59480  0.75930  0.97050  Biso   1.000  H
  H115     1.0000 0.90520  0.25930  0.52950  Biso   1.000  H
  H116     1.0000 0.40520  0.75930  0.52950  Biso   1.000  H
  H117     1.0000 0.90520  0.74070  0.02950  Biso   1.000  H
  H118     1.0000 0.40520  0.24070  0.02950  Biso   1.000  H
  H119     1.0000 0.09480  0.74070  0.47050  Biso   1.000  H
  H120     1.0000 0.59480  0.24070  0.47050  Biso   1.000  H
  C145     1.0000 0.13340  0.02700  0.07970  Biso   1.000  C
  C146     1.0000 0.63340  0.52700  0.07970  Biso   1.000  C
  C147     1.0000 0.86660  0.02700  0.42030  Biso   1.000  C
  C148     1.0000 0.36660  0.52700  0.42030  Biso   1.000  C
  C149     1.0000 0.86660  0.97300  0.92030  Biso   1.000  C
  C150     1.0000 0.36660  0.47300  0.92030  Biso   1.000  C
  C151     1.0000 0.13340  0.97300  0.57970  Biso   1.000  C
  C152     1.0000 0.63340  0.47300  0.57970  Biso   1.000  C
  C153     1.0000 0.10720  0.97800  0.03510  Biso   1.000  C
  C154     1.0000 0.60720  0.47800  0.03510  Biso   1.000  C
  C155     1.0000 0.89280  0.97800  0.46490  Biso   1.000  C
  C156     1.0000 0.39280  0.47800  0.46490  Biso   1.000  C
  C157     1.0000 0.89280  0.02200  0.96490  Biso   1.000  C
  C158     1.0000 0.39280  0.52200  0.96490  Biso   1.000  C
  C159     1.0000 0.10720  0.02200  0.53510  Biso   1.000  C
  C160     1.0000 0.60720  0.52200  0.53510  Biso   1.000  C
  H121     1.0000 0.09300  0.00930  0.00080  Biso   1.000  H
  H122     1.0000 0.59300  0.50930  0.00080  Biso   1.000  H
  H123     1.0000 0.90700  0.00930  0.49920  Biso   1.000  H
  H124     1.0000 0.40700  0.50930  0.49920  Biso   1.000  H
  H125     1.0000 0.90700  0.99070  0.99920  Biso   1.000  H
  H126     1.0000 0.40700  0.49070  0.99920  Biso   1.000  H
  H127     1.0000 0.09300  0.99070  0.50080  Biso   1.000  H
  H128     1.0000 0.59300  0.49070  0.50080  Biso   1.000  H
  C161     1.0000 0.10270  0.88160  0.04280  Biso   1.000  C
  C162     1.0000 0.60270  0.38160  0.04280  Biso   1.000  C
  C163     1.0000 0.89730  0.88160  0.45720  Biso   1.000  C
  C164     1.0000 0.39730  0.38160  0.45720  Biso   1.000  C
  C165     1.0000 0.89730  0.11840  0.95720  Biso   1.000  C
  C166     1.0000 0.39730  0.61840  0.95720  Biso   1.000  C
  C167     1.0000 0.10270  0.11840  0.54280  Biso   1.000  C
  C168     1.0000 0.60270  0.61840  0.54280  Biso   1.000  C
  H129     1.0000 0.08550  0.84820  0.01300  Biso   1.000  H
  H130     1.0000 0.58550  0.34820  0.01300  Biso   1.000  H
  H131     1.0000 0.91450  0.84820  0.48700  Biso   1.000  H
  H132     1.0000 0.41450  0.34820  0.48700  Biso   1.000  H
  H133     1.0000 0.91450  0.15180  0.98700  Biso   1.000  H
  H134     1.0000 0.41450  0.65180  0.98700  Biso   1.000  H
  H135     1.0000 0.08550  0.15180  0.51300  Biso   1.000  H
  H136     1.0000 0.58550  0.65180  0.51300  Biso   1.000  H
  C169     1.0000 0.12350  0.83490  0.09430  Biso   1.000  C
  C170     1.0000 0.62350  0.33490  0.09430  Biso   1.000  C
  C171     1.0000 0.87650  0.83490  0.40570  Biso   1.000  C
  C172     1.0000 0.37650  0.33490  0.40570  Biso   1.000  C
  C173     1.0000 0.87650  0.16510  0.90570  Biso   1.000  C
  C174     1.0000 0.37650  0.66510  0.90570  Biso   1.000  C
  C175     1.0000 0.12350  0.16510  0.59430  Biso   1.000  C
  C176     1.0000 0.62350  0.66510  0.59430  Biso   1.000  C
  H137     1.0000 0.12040  0.77060  0.09950  Biso   1.000  H
  H138     1.0000 0.62040  0.27060  0.09950  Biso   1.000  H
  H139     1.0000 0.87960  0.77060  0.40050  Biso   1.000  H
  H140     1.0000 0.37960  0.27060  0.40050  Biso   1.000  H
  H141     1.0000 0.87960  0.22940  0.90050  Biso   1.000  H
  H142     1.0000 0.37960  0.72940  0.90050  Biso   1.000  H
  H143     1.0000 0.12040  0.22940  0.59950  Biso   1.000  H
  H144     1.0000 0.62040  0.72940  0.59950  Biso   1.000  H
  C177     1.0000 0.14860  0.88530  0.13720  Biso   1.000  C
  C178     1.0000 0.64860  0.38530  0.13720  Biso   1.000  C
  C179     1.0000 0.85140  0.88530  0.36280  Biso   1.000  C
  C180     1.0000 0.35140  0.38530  0.36280  Biso   1.000  C
  C181     1.0000 0.85140  0.11470  0.86280  Biso   1.000  C
  C182     1.0000 0.35140  0.61470  0.86280  Biso   1.000  C
  C183     1.0000 0.14860  0.11470  0.63720  Biso   1.000  C
  C184     1.0000 0.64860  0.61470  0.63720  Biso   1.000  C
  H145     1.0000 0.16240  0.85460  0.17220  Biso   1.000  H
  H146     1.0000 0.66240  0.35460  0.17220  Biso   1.000  H
  H147     1.0000 0.83760  0.85460  0.32780  Biso   1.000  H
  H148     1.0000 0.33760  0.35460  0.32780  Biso   1.000  H
  H149     1.0000 0.83760  0.14540  0.82780  Biso   1.000  H
  H150     1.0000 0.33760  0.64540  0.82780  Biso   1.000  H
  H151     1.0000 0.16240  0.14540  0.67220  Biso   1.000  H
  H152     1.0000 0.66240  0.64540  0.67220  Biso   1.000  H
  C185     1.0000 0.15410  0.97880  0.13080  Biso   1.000  C
  C186     1.0000 0.65410  0.47880  0.13080  Biso   1.000  C
  C187     1.0000 0.84590  0.97880  0.36920  Biso   1.000  C
  C188     1.0000 0.34590  0.47880  0.36920  Biso   1.000  C
  C189     1.0000 0.84590  0.02120  0.86920  Biso   1.000  C
  C190     1.0000 0.34590  0.52120  0.86920  Biso   1.000  C
  C191     1.0000 0.15410  0.02120  0.63080  Biso   1.000  C
  C192     1.0000 0.65410  0.52120  0.63080  Biso   1.000  C
  H153     1.0000 0.17180  0.01050  0.16070  Biso   1.000  H
  H154     1.0000 0.67180  0.51050  0.16070  Biso   1.000  H
  H155     1.0000 0.82820  0.01050  0.33930  Biso   1.000  H
  H156     1.0000 0.32820  0.51050  0.33930  Biso   1.000  H
  H157     1.0000 0.82820  0.98950  0.83930  Biso   1.000  H
  H158     1.0000 0.32820  0.48950  0.83930  Biso   1.000  H
  H159     1.0000 0.17180  0.98950  0.66070  Biso   1.000  H
  H160     1.0000 0.67180  0.48950  0.66070  Biso   1.000  H
  C193     1.0000 0.18390  0.17030  0.10520  Biso   1.000  C
  C194     1.0000 0.68390  0.67030  0.10520  Biso   1.000  C
  C195     1.0000 0.81610  0.17030  0.39480  Biso   1.000  C
  C196     1.0000 0.31610  0.67030  0.39480  Biso   1.000  C
  C197     1.0000 0.81610  0.82970  0.89480  Biso   1.000  C
  C198     1.0000 0.31610  0.32970  0.89480  Biso   1.000  C
  C199     1.0000 0.18390  0.82970  0.60520  Biso   1.000  C
  C200     1.0000 0.68390  0.32970  0.60520  Biso   1.000  C
  H161     1.0000 0.19470  0.13500  0.08490  Biso   1.000  H
  H162     1.0000 0.69470  0.63500  0.08490  Biso   1.000  H
  H163     1.0000 0.80530  0.13500  0.41510  Biso   1.000  H
  H164     1.0000 0.30530  0.63500  0.41510  Biso   1.000  H
  H165     1.0000 0.80530  0.86500  0.91510  Biso   1.000  H
  H166     1.0000 0.30530  0.36500  0.91510  Biso   1.000  H
  H167     1.0000 0.19470  0.86500  0.58490  Biso   1.000  H
  H168     1.0000 0.69470  0.36500  0.58490  Biso   1.000  H
  H169     1.0000 0.19220  0.14560  0.14510  Biso   1.000  H
  H170     1.0000 0.69220  0.64560  0.14510  Biso   1.000  H
  H171     1.0000 0.80780  0.14560  0.35490  Biso   1.000  H
  H172     1.0000 0.30780  0.64560  0.35490  Biso   1.000  H
  H173     1.0000 0.80780  0.85440  0.85490  Biso   1.000  H
  H174     1.0000 0.30780  0.35440  0.85490  Biso   1.000  H
  H175     1.0000 0.19220  0.85440  0.64510  Biso   1.000  H
  H176     1.0000 0.69220  0.35440  0.64510  Biso   1.000  H
  C201     1.0000 0.20340  0.41160  0.29480  Biso   1.000  C
  C202     1.0000 0.70340  0.91160  0.29480  Biso   1.000  C
  C203     1.0000 0.79660  0.41160  0.20520  Biso   1.000  C
  C204     1.0000 0.29660  0.91160  0.20520  Biso   1.000  C
  C205     1.0000 0.79660  0.58840  0.70520  Biso   1.000  C
  C206     1.0000 0.29660  0.08840  0.70520  Biso   1.000  C
  C207     1.0000 0.20340  0.58840  0.79480  Biso   1.000  C
  C208     1.0000 0.70340  0.08840  0.79480  Biso   1.000  C
  C209     1.0000 0.20750  0.47010  0.34040  Biso   1.000  C
  C210     1.0000 0.70750  0.97010  0.34040  Biso   1.000  C
  C211     1.0000 0.79250  0.47010  0.15960  Biso   1.000  C
  C212     1.0000 0.29250  0.97010  0.15960  Biso   1.000  C
  C213     1.0000 0.79250  0.52990  0.65960  Biso   1.000  C
  C214     1.0000 0.29250  0.02990  0.65960  Biso   1.000  C
  C215     1.0000 0.20750  0.52990  0.84040  Biso   1.000  C
  C216     1.0000 0.70750  0.02990  0.84040  Biso   1.000  C
  H177     1.0000 0.18900  0.50290  0.33950  Biso   1.000  H
  H178     1.0000 0.68900  0.00290  0.33950  Biso   1.000  H
  H179     1.0000 0.81100  0.50290  0.16050  Biso   1.000  H
  H180     1.0000 0.31100  0.00290  0.16050  Biso   1.000  H
  H181     1.0000 0.81100  0.49710  0.66050  Biso   1.000  H
  H182     1.0000 0.31100  0.99710  0.66050  Biso   1.000  H
  H183     1.0000 0.18900  0.49710  0.83950  Biso   1.000  H
  H184     1.0000 0.68900  0.99710  0.83950  Biso   1.000  H
  C217     1.0000 0.23860  0.48270  0.38870  Biso   1.000  C
  C218     1.0000 0.73860  0.98270  0.38870  Biso   1.000  C
  C219     1.0000 0.76140  0.48270  0.11130  Biso   1.000  C
  C220     1.0000 0.26140  0.98270  0.11130  Biso   1.000  C
  C221     1.0000 0.76140  0.51730  0.61130  Biso   1.000  C
  C222     1.0000 0.26140  0.01730  0.61130  Biso   1.000  C
  C223     1.0000 0.23860  0.51730  0.88870  Biso   1.000  C
  C224     1.0000 0.73860  0.01730  0.88870  Biso   1.000  C
  H185     1.0000 0.24050  0.52260  0.41950  Biso   1.000  H
  H186     1.0000 0.74050  0.02260  0.41950  Biso   1.000  H
  H187     1.0000 0.75950  0.52260  0.08050  Biso   1.000  H
  H188     1.0000 0.25950  0.02260  0.08050  Biso   1.000  H
  H189     1.0000 0.75950  0.47740  0.58050  Biso   1.000  H
  H190     1.0000 0.25950  0.97740  0.58050  Biso   1.000  H
  H191     1.0000 0.24050  0.47740  0.91950  Biso   1.000  H
  H192     1.0000 0.74050  0.97740  0.91950  Biso   1.000  H
  C225     1.0000 0.26600  0.43740  0.39080  Biso   1.000  C
  C226     1.0000 0.76600  0.93740  0.39080  Biso   1.000  C
  C227     1.0000 0.73400  0.43740  0.10920  Biso   1.000  C
  C228     1.0000 0.23400  0.93740  0.10920  Biso   1.000  C
  C229     1.0000 0.73400  0.56260  0.60920  Biso   1.000  C
  C230     1.0000 0.23400  0.06260  0.60920  Biso   1.000  C
  C231     1.0000 0.26600  0.56260  0.89080  Biso   1.000  C
  C232     1.0000 0.76600  0.06260  0.89080  Biso   1.000  C
  H193     1.0000 0.28670  0.44520  0.42300  Biso   1.000  H
  H194     1.0000 0.78670  0.94520  0.42300  Biso   1.000  H
  H195     1.0000 0.71330  0.44520  0.07700  Biso   1.000  H
  H196     1.0000 0.21330  0.94520  0.07700  Biso   1.000  H
  H197     1.0000 0.71330  0.55480  0.57700  Biso   1.000  H
  H198     1.0000 0.21330  0.05480  0.57700  Biso   1.000  H
  H199     1.0000 0.28670  0.55480  0.92300  Biso   1.000  H
  H200     1.0000 0.78670  0.05480  0.92300  Biso   1.000  H
  C233     1.0000 0.26270  0.37870  0.34400  Biso   1.000  C
  C234     1.0000 0.76270  0.87870  0.34400  Biso   1.000  C
  C235     1.0000 0.73730  0.37870  0.15600  Biso   1.000  C
  C236     1.0000 0.23730  0.87870  0.15600  Biso   1.000  C
  C237     1.0000 0.73730  0.62130  0.65600  Biso   1.000  C
  C238     1.0000 0.23730  0.12130  0.65600  Biso   1.000  C
  C239     1.0000 0.26270  0.62130  0.84400  Biso   1.000  C
  C240     1.0000 0.76270  0.12130  0.84400  Biso   1.000  C
  H201     1.0000 0.28140  0.34660  0.34490  Biso   1.000  H
  H202     1.0000 0.78140  0.84660  0.34490  Biso   1.000  H
  H203     1.0000 0.71860  0.34660  0.15510  Biso   1.000  H
  H204     1.0000 0.21860  0.84660  0.15510  Biso   1.000  H
  H205     1.0000 0.71860  0.65340  0.65510  Biso   1.000  H
  H206     1.0000 0.21860  0.15340  0.65510  Biso   1.000  H
  H207     1.0000 0.28140  0.65340  0.84490  Biso   1.000  H
  H208     1.0000 0.78140  0.15340  0.84490  Biso   1.000  H
  C241     1.0000 0.23260  0.36810  0.29730  Biso   1.000  C
  C242     1.0000 0.73260  0.86810  0.29730  Biso   1.000  C
  C243     1.0000 0.76740  0.36810  0.20270  Biso   1.000  C
  C244     1.0000 0.26740  0.86810  0.20270  Biso   1.000  C
  C245     1.0000 0.76740  0.63190  0.70270  Biso   1.000  C
  C246     1.0000 0.26740  0.13190  0.70270  Biso   1.000  C
  C247     1.0000 0.23260  0.63190  0.79730  Biso   1.000  C
  C248     1.0000 0.73260  0.13190  0.79730  Biso   1.000  C
  H209     1.0000 0.23120  0.33080  0.26560  Biso   1.000  H
  H210     1.0000 0.73120  0.83080  0.26560  Biso   1.000  H
  H211     1.0000 0.76880  0.33080  0.23440  Biso   1.000  H
  H212     1.0000 0.26880  0.83080  0.23440  Biso   1.000  H
  H213     1.0000 0.76880  0.66920  0.73440  Biso   1.000  H
  H214     1.0000 0.26880  0.16920  0.73440  Biso   1.000  H
  H215     1.0000 0.23120  0.66920  0.76560  Biso   1.000  H
  H216     1.0000 0.73120  0.16920  0.76560  Biso   1.000  H
  C249     1.0000 0.13790  0.49180  0.23660  Biso   1.000  C
  C250     1.0000 0.63790  0.99180  0.23660  Biso   1.000  C
  C251     1.0000 0.86210  0.49180  0.26340  Biso   1.000  C
  C252     1.0000 0.36210  0.99180  0.26340  Biso   1.000  C
  C253     1.0000 0.86210  0.50820  0.76340  Biso   1.000  C
  C254     1.0000 0.36210  0.00820  0.76340  Biso   1.000  C
  C255     1.0000 0.13790  0.50820  0.73660  Biso   1.000  C
  C256     1.0000 0.63790  0.00820  0.73660  Biso   1.000  C
  C257     1.0000 0.13260  0.57350  0.20230  Biso   1.000  C
  C258     1.0000 0.63260  0.07350  0.20230  Biso   1.000  C
  C259     1.0000 0.86740  0.57350  0.29770  Biso   1.000  C
  C260     1.0000 0.36740  0.07350  0.29770  Biso   1.000  C
  C261     1.0000 0.86740  0.42650  0.79770  Biso   1.000  C
  C262     1.0000 0.36740  0.92650  0.79770  Biso   1.000  C
  C263     1.0000 0.13260  0.42650  0.70230  Biso   1.000  C
  C264     1.0000 0.63260  0.92650  0.70230  Biso   1.000  C
  H217     1.0000 0.14210  0.57780  0.17580  Biso   1.000  H
  H218     1.0000 0.64210  0.07780  0.17580  Biso   1.000  H
  H219     1.0000 0.85790  0.57780  0.32420  Biso   1.000  H
  H220     1.0000 0.35790  0.07780  0.32420  Biso   1.000  H
  H221     1.0000 0.85790  0.42220  0.82420  Biso   1.000  H
  H222     1.0000 0.35790  0.92220  0.82420  Biso   1.000  H
  H223     1.0000 0.14210  0.42220  0.67580  Biso   1.000  H
  H224     1.0000 0.64210  0.92220  0.67580  Biso   1.000  H
  C265     1.0000 0.11360  0.64810  0.20680  Biso   1.000  C
  C266     1.0000 0.61360  0.14810  0.20680  Biso   1.000  C
  C267     1.0000 0.88640  0.64810  0.29320  Biso   1.000  C
  C268     1.0000 0.38640  0.14810  0.29320  Biso   1.000  C
  C269     1.0000 0.88640  0.35190  0.79320  Biso   1.000  C
  C270     1.0000 0.38640  0.85190  0.79320  Biso   1.000  C
  C271     1.0000 0.11360  0.35190  0.70680  Biso   1.000  C
  C272     1.0000 0.61360  0.85190  0.70680  Biso   1.000  C
  H225     1.0000 0.11080  0.70250  0.18400  Biso   1.000  H
  H226     1.0000 0.61080  0.20250  0.18400  Biso   1.000  H
  H227     1.0000 0.88920  0.70250  0.31600  Biso   1.000  H
  H228     1.0000 0.38920  0.20250  0.31600  Biso   1.000  H
  H229     1.0000 0.88920  0.29750  0.81600  Biso   1.000  H
  H230     1.0000 0.38920  0.79750  0.81600  Biso   1.000  H
  H231     1.0000 0.11080  0.29750  0.68400  Biso   1.000  H
  H232     1.0000 0.61080  0.79750  0.68400  Biso   1.000  H
  C273     1.0000 0.09870  0.64270  0.24450  Biso   1.000  C
  C274     1.0000 0.59870  0.14270  0.24450  Biso   1.000  C
  C275     1.0000 0.90130  0.64270  0.25550  Biso   1.000  C
  C276     1.0000 0.40130  0.14270  0.25550  Biso   1.000  C
  C277     1.0000 0.90130  0.35730  0.75550  Biso   1.000  C
  C278     1.0000 0.40130  0.85730  0.75550  Biso   1.000  C
  C279     1.0000 0.09870  0.35730  0.74450  Biso   1.000  C
  C280     1.0000 0.59870  0.85730  0.74450  Biso   1.000  C
  H233     1.0000 0.08600  0.69320  0.24760  Biso   1.000  H
  H234     1.0000 0.58600  0.19320  0.24760  Biso   1.000  H
  H235     1.0000 0.91400  0.69320  0.25240  Biso   1.000  H
  H236     1.0000 0.41400  0.19320  0.25240  Biso   1.000  H
  H237     1.0000 0.91400  0.30680  0.75240  Biso   1.000  H
  H238     1.0000 0.41400  0.80680  0.75240  Biso   1.000  H
  H239     1.0000 0.08600  0.30680  0.74760  Biso   1.000  H
  H240     1.0000 0.58600  0.80680  0.74760  Biso   1.000  H
  C281     1.0000 0.10290  0.56140  0.27800  Biso   1.000  C
  C282     1.0000 0.60290  0.06140  0.27800  Biso   1.000  C
  C283     1.0000 0.89710  0.56140  0.22200  Biso   1.000  C
  C284     1.0000 0.39710  0.06140  0.22200  Biso   1.000  C
  C285     1.0000 0.89710  0.43860  0.72200  Biso   1.000  C
  C286     1.0000 0.39710  0.93860  0.72200  Biso   1.000  C
  C287     1.0000 0.10290  0.43860  0.77800  Biso   1.000  C
  C288     1.0000 0.60290  0.93860  0.77800  Biso   1.000  C
  H241     1.0000 0.09270  0.55740  0.30340  Biso   1.000  H
  H242     1.0000 0.59270  0.05740  0.30340  Biso   1.000  H
  H243     1.0000 0.90730  0.55740  0.19660  Biso   1.000  H
  H244     1.0000 0.40730  0.05740  0.19660  Biso   1.000  H
  H245     1.0000 0.90730  0.44260  0.69660  Biso   1.000  H
  H246     1.0000 0.40730  0.94260  0.69660  Biso   1.000  H
  H247     1.0000 0.09270  0.44260  0.80340  Biso   1.000  H
  H248     1.0000 0.59270  0.94260  0.80340  Biso   1.000  H
  C289     1.0000 0.12180  0.48670  0.27430  Biso   1.000  C
  C290     1.0000 0.62180  0.98670  0.27430  Biso   1.000  C
  C291     1.0000 0.87820  0.48670  0.22570  Biso   1.000  C
  C292     1.0000 0.37820  0.98670  0.22570  Biso   1.000  C
  C293     1.0000 0.87820  0.51330  0.72570  Biso   1.000  C
  C294     1.0000 0.37820  0.01330  0.72570  Biso   1.000  C
  C295     1.0000 0.12180  0.51330  0.77430  Biso   1.000  C
  C296     1.0000 0.62180  0.01330  0.77430  Biso   1.000  C
  H249     1.0000 0.12400  0.43230  0.29680  Biso   1.000  H
  H250     1.0000 0.62400  0.93230  0.29680  Biso   1.000  H
  H251     1.0000 0.87600  0.43230  0.20320  Biso   1.000  H
  H252     1.0000 0.37600  0.93230  0.20320  Biso   1.000  H
  H253     1.0000 0.87600  0.56770  0.70320  Biso   1.000  H
  H254     1.0000 0.37600  0.06770  0.70320  Biso   1.000  H
  H255     1.0000 0.12400  0.56770  0.79680  Biso   1.000  H
  H256     1.0000 0.62400  0.06770  0.79680  Biso   1.000  H
  C297     1.0000 0.07490  0.31250  0.18850  Biso   1.000  C
  C298     1.0000 0.57490  0.81250  0.18850  Biso   1.000  C
  C299     1.0000 0.92510  0.31250  0.31150  Biso   1.000  C
  C300     1.0000 0.42510  0.81250  0.31150  Biso   1.000  C
  C301     1.0000 0.92510  0.68750  0.81150  Biso   1.000  C
  C302     1.0000 0.42510  0.18750  0.81150  Biso   1.000  C
  C303     1.0000 0.07490  0.68750  0.68850  Biso   1.000  C
  C304     1.0000 0.57490  0.18750  0.68850  Biso   1.000  C
  C305     1.0000 0.05920  0.38650  0.14910  Biso   1.000  C
  C306     1.0000 0.55920  0.88650  0.14910  Biso   1.000  C
  C307     1.0000 0.94080  0.38650  0.35090  Biso   1.000  C
  C308     1.0000 0.44080  0.88650  0.35090  Biso   1.000  C
  C309     1.0000 0.94080  0.61350  0.85090  Biso   1.000  C
  C310     1.0000 0.44080  0.11350  0.85090  Biso   1.000  C
  C311     1.0000 0.05920  0.61350  0.64910  Biso   1.000  C
  C312     1.0000 0.55920  0.11350  0.64910  Biso   1.000  C
  H257     1.0000 0.06550  0.40010  0.11910  Biso   1.000  H
  H258     1.0000 0.56550  0.90010  0.11910  Biso   1.000  H
  H259     1.0000 0.93450  0.40010  0.38090  Biso   1.000  H
  H260     1.0000 0.43450  0.90010  0.38090  Biso   1.000  H
  H261     1.0000 0.93450  0.59990  0.88090  Biso   1.000  H
  H262     1.0000 0.43450  0.09990  0.88090  Biso   1.000  H
  H263     1.0000 0.06550  0.59990  0.61910  Biso   1.000  H
  H264     1.0000 0.56550  0.09990  0.61910  Biso   1.000  H
  C313     1.0000 0.03400  0.44060  0.15460  Biso   1.000  C
  C314     1.0000 0.53400  0.94060  0.15460  Biso   1.000  C
  C315     1.0000 0.96600  0.44060  0.34540  Biso   1.000  C
  C316     1.0000 0.46600  0.94060  0.34540  Biso   1.000  C
  C317     1.0000 0.96600  0.55940  0.84540  Biso   1.000  C
  C318     1.0000 0.46600  0.05940  0.84540  Biso   1.000  C
  C319     1.0000 0.03400  0.55940  0.65460  Biso   1.000  C
  C320     1.0000 0.53400  0.05940  0.65460  Biso   1.000  C
  H265     1.0000 0.02410  0.49150  0.12930  Biso   1.000  H
  H266     1.0000 0.52410  0.99150  0.12930  Biso   1.000  H
  H267     1.0000 0.97590  0.49150  0.37070  Biso   1.000  H
  H268     1.0000 0.47590  0.99150  0.37070  Biso   1.000  H
  H269     1.0000 0.97590  0.50850  0.87070  Biso   1.000  H
  H270     1.0000 0.47590  0.00850  0.87070  Biso   1.000  H
  H271     1.0000 0.02410  0.50850  0.62930  Biso   1.000  H
  H272     1.0000 0.52410  0.00850  0.62930  Biso   1.000  H
  C321     1.0000 0.02440  0.41750  0.19690  Biso   1.000  C
  C322     1.0000 0.52440  0.91750  0.19690  Biso   1.000  C
  C323     1.0000 0.97560  0.41750  0.30310  Biso   1.000  C
  C324     1.0000 0.47560  0.91750  0.30310  Biso   1.000  C
  C325     1.0000 0.97560  0.58250  0.80310  Biso   1.000  C
  C326     1.0000 0.47560  0.08250  0.80310  Biso   1.000  C
  C327     1.0000 0.02440  0.58250  0.69690  Biso   1.000  C
  C328     1.0000 0.52440  0.08250  0.69690  Biso   1.000  C
  H273     1.0000 0.00730  0.45210  0.20020  Biso   1.000  H
  H274     1.0000 0.50730  0.95210  0.20020  Biso   1.000  H
  H275     1.0000 0.99270  0.45210  0.29980  Biso   1.000  H
  H276     1.0000 0.49270  0.95210  0.29980  Biso   1.000  H
  H277     1.0000 0.99270  0.54790  0.79980  Biso   1.000  H
  H278     1.0000 0.49270  0.04790  0.79980  Biso   1.000  H
  H279     1.0000 0.00730  0.54790  0.70020  Biso   1.000  H
  H280     1.0000 0.50730  0.04790  0.70020  Biso   1.000  H
  C329     1.0000 0.03920  0.34370  0.23540  Biso   1.000  C
  C330     1.0000 0.53920  0.84370  0.23540  Biso   1.000  C
  C331     1.0000 0.96080  0.34370  0.26460  Biso   1.000  C
  C332     1.0000 0.46080  0.84370  0.26460  Biso   1.000  C
  C333     1.0000 0.96080  0.65630  0.76460  Biso   1.000  C
  C334     1.0000 0.46080  0.15630  0.76460  Biso   1.000  C
  C335     1.0000 0.03920  0.65630  0.73540  Biso   1.000  C
  C336     1.0000 0.53920  0.15630  0.73540  Biso   1.000  C
  H281     1.0000 0.03230  0.32950  0.26460  Biso   1.000  H
  H282     1.0000 0.53230  0.82950  0.26460  Biso   1.000  H
  H283     1.0000 0.96770  0.32950  0.23540  Biso   1.000  H
  H284     1.0000 0.46770  0.82950  0.23540  Biso   1.000  H
  H285     1.0000 0.96770  0.67050  0.73540  Biso   1.000  H
  H286     1.0000 0.46770  0.17050  0.73540  Biso   1.000  H
  H287     1.0000 0.03230  0.67050  0.76460  Biso   1.000  H
  H288     1.0000 0.53230  0.17050  0.76460  Biso   1.000  H
  C337     1.0000 0.06430  0.29040  0.23100  Biso   1.000  C
  C338     1.0000 0.56430  0.79040  0.23100  Biso   1.000  C
  C339     1.0000 0.93570  0.29040  0.26900  Biso   1.000  C
  C340     1.0000 0.43570  0.79040  0.26900  Biso   1.000  C
  C341     1.0000 0.93570  0.70960  0.76900  Biso   1.000  C
  C342     1.0000 0.43570  0.20960  0.76900  Biso   1.000  C
  C343     1.0000 0.06430  0.70960  0.73100  Biso   1.000  C
  C344     1.0000 0.56430  0.20960  0.73100  Biso   1.000  C
  H289     1.0000 0.07400  0.23990  0.25680  Biso   1.000  H
  H290     1.0000 0.57400  0.73990  0.25680  Biso   1.000  H
  H291     1.0000 0.92600  0.23990  0.24320  Biso   1.000  H
  H292     1.0000 0.42600  0.73990  0.24320  Biso   1.000  H
  H293     1.0000 0.92600  0.76010  0.74320  Biso   1.000  H
  H294     1.0000 0.42600  0.26010  0.74320  Biso   1.000  H
  H295     1.0000 0.07400  0.76010  0.75680  Biso   1.000  H
  H296     1.0000 0.57400  0.26010  0.75680  Biso   1.000  H
  C345     1.0000 0.10060  0.12490  0.19510  Biso   1.000  C
  C346     1.0000 0.60060  0.62490  0.19510  Biso   1.000  C
  C347     1.0000 0.89940  0.12490  0.30490  Biso   1.000  C
  C348     1.0000 0.39940  0.62490  0.30490  Biso   1.000  C
  C349     1.0000 0.89940  0.87510  0.80490  Biso   1.000  C
  C350     1.0000 0.39940  0.37510  0.80490  Biso   1.000  C
  C351     1.0000 0.10060  0.87510  0.69510  Biso   1.000  C
  C352     1.0000 0.60060  0.37510  0.69510  Biso   1.000  C
  C353     1.0000 0.12050  0.06830  0.24180  Biso   1.000  C
  C354     1.0000 0.62050  0.56830  0.24180  Biso   1.000  C
  C355     1.0000 0.87950  0.06830  0.25820  Biso   1.000  C
  C356     1.0000 0.37950  0.56830  0.25820  Biso   1.000  C
  C357     1.0000 0.87950  0.93170  0.75820  Biso   1.000  C
  C358     1.0000 0.37950  0.43170  0.75820  Biso   1.000  C
  C359     1.0000 0.12050  0.93170  0.74180  Biso   1.000  C
  C360     1.0000 0.62050  0.43170  0.74180  Biso   1.000  C
  H297     1.0000 0.13980  0.09430  0.27140  Biso   1.000  H
  H298     1.0000 0.63980  0.59430  0.27140  Biso   1.000  H
  H299     1.0000 0.86020  0.09430  0.22860  Biso   1.000  H
  H300     1.0000 0.36020  0.59430  0.22860  Biso   1.000  H
  H301     1.0000 0.86020  0.90570  0.72860  Biso   1.000  H
  H302     1.0000 0.36020  0.40570  0.72860  Biso   1.000  H
  H303     1.0000 0.13980  0.90570  0.77140  Biso   1.000  H
  H304     1.0000 0.63980  0.40570  0.77140  Biso   1.000  H
  C361     1.0000 0.11290  0.97540  0.24620  Biso   1.000  C
  C362     1.0000 0.61290  0.47540  0.24620  Biso   1.000  C
  C363     1.0000 0.88710  0.97540  0.25380  Biso   1.000  C
  C364     1.0000 0.38710  0.47540  0.25380  Biso   1.000  C
  C365     1.0000 0.88710  0.02460  0.75380  Biso   1.000  C
  C366     1.0000 0.38710  0.52460  0.75380  Biso   1.000  C
  C367     1.0000 0.11290  0.02460  0.74620  Biso   1.000  C
  C368     1.0000 0.61290  0.52460  0.74620  Biso   1.000  C
  H305     1.0000 0.12690  0.93910  0.27830  Biso   1.000  H
  H306     1.0000 0.62690  0.43910  0.27830  Biso   1.000  H
  H307     1.0000 0.87310  0.93910  0.22170  Biso   1.000  H
  H308     1.0000 0.37310  0.43910  0.22170  Biso   1.000  H
  H309     1.0000 0.87310  0.06090  0.72170  Biso   1.000  H
  H310     1.0000 0.37310  0.56090  0.72170  Biso   1.000  H
  H311     1.0000 0.12690  0.06090  0.77830  Biso   1.000  H
  H312     1.0000 0.62690  0.56090  0.77830  Biso   1.000  H
  C369     1.0000 0.08450  0.93510  0.20300  Biso   1.000  C
  C370     1.0000 0.58450  0.43510  0.20300  Biso   1.000  C
  C371     1.0000 0.91550  0.93510  0.29700  Biso   1.000  C
  C372     1.0000 0.41550  0.43510  0.29700  Biso   1.000  C
  C373     1.0000 0.91550  0.06490  0.79700  Biso   1.000  C
  C374     1.0000 0.41550  0.56490  0.79700  Biso   1.000  C
  C375     1.0000 0.08450  0.06490  0.70300  Biso   1.000  C
  C376     1.0000 0.58450  0.56490  0.70300  Biso   1.000  C
  H313     1.0000 0.07830  0.87320  0.20700  Biso   1.000  H
  H314     1.0000 0.57830  0.37320  0.20700  Biso   1.000  H
  H315     1.0000 0.92170  0.87320  0.29300  Biso   1.000  H
  H316     1.0000 0.42170  0.37320  0.29300  Biso   1.000  H
  H317     1.0000 0.92170  0.12680  0.79300  Biso   1.000  H
  H318     1.0000 0.42170  0.62680  0.79300  Biso   1.000  H
  H319     1.0000 0.07830  0.12680  0.70700  Biso   1.000  H
  H320     1.0000 0.57830  0.62680  0.70700  Biso   1.000  H
  C377     1.0000 0.06590  0.98740  0.15520  Biso   1.000  C
  C378     1.0000 0.56590  0.48740  0.15520  Biso   1.000  C
  C379     1.0000 0.93410  0.98740  0.34480  Biso   1.000  C
  C380     1.0000 0.43410  0.48740  0.34480  Biso   1.000  C
  C381     1.0000 0.93410  0.01260  0.84480  Biso   1.000  C
  C382     1.0000 0.43410  0.51260  0.84480  Biso   1.000  C
  C383     1.0000 0.06590  0.01260  0.65520  Biso   1.000  C
  C384     1.0000 0.56590  0.51260  0.65520  Biso   1.000  C
  H321     1.0000 0.04770  0.95940  0.12430  Biso   1.000  H
  H322     1.0000 0.54770  0.45940  0.12430  Biso   1.000  H
  H323     1.0000 0.95230  0.95940  0.37570  Biso   1.000  H
  H324     1.0000 0.45230  0.45940  0.37570  Biso   1.000  H
  H325     1.0000 0.95230  0.04060  0.87570  Biso   1.000  H
  H326     1.0000 0.45230  0.54060  0.87570  Biso   1.000  H
  H327     1.0000 0.04770  0.04060  0.62430  Biso   1.000  H
  H328     1.0000 0.54770  0.54060  0.62430  Biso   1.000  H
  C385     1.0000 0.07340  0.08320  0.15100  Biso   1.000  C
  C386     1.0000 0.57340  0.58320  0.15100  Biso   1.000  C
  C387     1.0000 0.92660  0.08320  0.34900  Biso   1.000  C
  C388     1.0000 0.42660  0.58320  0.34900  Biso   1.000  C
  C389     1.0000 0.92660  0.91680  0.84900  Biso   1.000  C
  C390     1.0000 0.42660  0.41680  0.84900  Biso   1.000  C
  C391     1.0000 0.07340  0.91680  0.65100  Biso   1.000  C
  C392     1.0000 0.57340  0.41680  0.65100  Biso   1.000  C
  H329     1.0000 0.05980  0.11870  0.11810  Biso   1.000  H
  H330     1.0000 0.55980  0.61870  0.11810  Biso   1.000  H
  H331     1.0000 0.94020  0.11870  0.38190  Biso   1.000  H
  H332     1.0000 0.44020  0.61870  0.38190  Biso   1.000  H
  H333     1.0000 0.94020  0.88130  0.88190  Biso   1.000  H
  H334     1.0000 0.44020  0.38130  0.88190  Biso   1.000  H
  H335     1.0000 0.05980  0.88130  0.61810  Biso   1.000  H
  H336     1.0000 0.55980  0.38130  0.61810  Biso   1.000  H
  C393     1.0000 0.14820  0.28380  0.24590  Biso   1.000  C
  C394     1.0000 0.64820  0.78380  0.24590  Biso   1.000  C
  C395     1.0000 0.85180  0.28380  0.25410  Biso   1.000  C
  C396     1.0000 0.35180  0.78380  0.25410  Biso   1.000  C
  C397     1.0000 0.85180  0.71620  0.75410  Biso   1.000  C
  C398     1.0000 0.35180  0.21620  0.75410  Biso   1.000  C
  C399     1.0000 0.14820  0.71620  0.74590  Biso   1.000  C
  C400     1.0000 0.64820  0.21620  0.74590  Biso   1.000  C
  H337     1.0000 0.14570  0.28680  0.28280  Biso   1.000  H
  H338     1.0000 0.64570  0.78680  0.28280  Biso   1.000  H
  H339     1.0000 0.85430  0.28680  0.21720  Biso   1.000  H
  H340     1.0000 0.35430  0.78680  0.21720  Biso   1.000  H
  H341     1.0000 0.85430  0.71320  0.71720  Biso   1.000  H
  H342     1.0000 0.35430  0.21320  0.71720  Biso   1.000  H
  H343     1.0000 0.14570  0.71320  0.78280  Biso   1.000  H
  H344     1.0000 0.64570  0.21320  0.78280  Biso   1.000  H
  C401     1.0000 0.10100  0.45070  0.05040  Biso   1.000  C
  C402     1.0000 0.60100  0.95070  0.05040  Biso   1.000  C
  C403     1.0000 0.89900  0.45070  0.44960  Biso   1.000  C
  C404     1.0000 0.39900  0.95070  0.44960  Biso   1.000  C
  C405     1.0000 0.89900  0.54930  0.94960  Biso   1.000  C
  C406     1.0000 0.39900  0.04930  0.94960  Biso   1.000  C
  C407     1.0000 0.10100  0.54930  0.55040  Biso   1.000  C
  C408     1.0000 0.60100  0.04930  0.55040  Biso   1.000  C
  C409     1.0000 0.07590  0.52180  0.01480  Biso   1.000  C
  C410     1.0000 0.57590  0.02180  0.01480  Biso   1.000  C
  C411     1.0000 0.92410  0.52180  0.48520  Biso   1.000  C
  C412     1.0000 0.42410  0.02180  0.48520  Biso   1.000  C
  C413     1.0000 0.92410  0.47820  0.98520  Biso   1.000  C
  C414     1.0000 0.42410  0.97820  0.98520  Biso   1.000  C
  C415     1.0000 0.07590  0.47820  0.51480  Biso   1.000  C
  C416     1.0000 0.57590  0.97820  0.51480  Biso   1.000  C
  H345     1.0000 0.08190  0.58580  0.01910  Biso   1.000  H
  H346     1.0000 0.58190  0.08580  0.01910  Biso   1.000  H
  H347     1.0000 0.91810  0.58580  0.48090  Biso   1.000  H
  H348     1.0000 0.41810  0.08580  0.48090  Biso   1.000  H
  H349     1.0000 0.91810  0.41420  0.98090  Biso   1.000  H
  H350     1.0000 0.41810  0.91420  0.98090  Biso   1.000  H
  H351     1.0000 0.08190  0.41420  0.51910  Biso   1.000  H
  H352     1.0000 0.58190  0.91420  0.51910  Biso   1.000  H
  C417     1.0000 0.04400  0.49670  0.97540  Biso   1.000  C
  C418     1.0000 0.54400  0.99670  0.97540  Biso   1.000  C
  C419     1.0000 0.95600  0.49670  0.52460  Biso   1.000  C
  C420     1.0000 0.45600  0.99670  0.52460  Biso   1.000  C
  C421     1.0000 0.95600  0.50330  0.02460  Biso   1.000  C
  C422     1.0000 0.45600  0.00330  0.02460  Biso   1.000  C
  C423     1.0000 0.04400  0.50330  0.47540  Biso   1.000  C
  C424     1.0000 0.54400  0.00330  0.47540  Biso   1.000  C
  H353     1.0000 0.03080  0.54700  0.95350  Biso   1.000  H
  H354     1.0000 0.53080  0.04700  0.95350  Biso   1.000  H
  H355     1.0000 0.96920  0.54700  0.54650  Biso   1.000  H
  H356     1.0000 0.46920  0.04700  0.54650  Biso   1.000  H
  H357     1.0000 0.96920  0.45300  0.04650  Biso   1.000  H
  H358     1.0000 0.46920  0.95300  0.04650  Biso   1.000  H
  H359     1.0000 0.03080  0.45300  0.45350  Biso   1.000  H
  H360     1.0000 0.53080  0.95300  0.45350  Biso   1.000  H
  C425     1.0000 0.02640  0.39720  0.96140  Biso   1.000  C
  C426     1.0000 0.52640  0.89720  0.96140  Biso   1.000  C
  C427     1.0000 0.97360  0.39720  0.53860  Biso   1.000  C
  C428     1.0000 0.47360  0.89720  0.53860  Biso   1.000  C
  C429     1.0000 0.97360  0.60280  0.03860  Biso   1.000  C
  C430     1.0000 0.47360  0.10280  0.03860  Biso   1.000  C
  C431     1.0000 0.02640  0.60280  0.46140  Biso   1.000  C
  C432     1.0000 0.52640  0.10280  0.46140  Biso   1.000  C
  C433     1.0000 0.00010  0.26800  0.96630  Biso   1.000  C
  C434     1.0000 0.50010  0.76800  0.96630  Biso   1.000  C
  C435     1.0000 0.99990  0.26800  0.53370  Biso   1.000  C
  C436     1.0000 0.49990  0.76800  0.53370  Biso   1.000  C
  C437     1.0000 0.99990  0.73200  0.03370  Biso   1.000  C
  C438     1.0000 0.49990  0.23200  0.03370  Biso   1.000  C
  C439     1.0000 0.00010  0.73200  0.46630  Biso   1.000  C
  C440     1.0000 0.50010  0.23200  0.46630  Biso   1.000  C
  C441     1.0000 0.98890  0.25010  0.01740  Biso   1.000  C
  C442     1.0000 0.48890  0.75010  0.01740  Biso   1.000  C
  C443     1.0000 0.01110  0.25010  0.48260  Biso   1.000  C
  C444     1.0000 0.51110  0.75010  0.48260  Biso   1.000  C
  C445     1.0000 0.01110  0.74990  0.98260  Biso   1.000  C
  C446     1.0000 0.51110  0.24990  0.98260  Biso   1.000  C
  C447     1.0000 0.98890  0.74990  0.51740  Biso   1.000  C
  C448     1.0000 0.48890  0.24990  0.51740  Biso   1.000  C
  H361     1.0000 0.97180  0.29520  0.01410  Biso   1.000  H
  H362     1.0000 0.47180  0.79520  0.01410  Biso   1.000  H
  H363     1.0000 0.02820  0.29520  0.48590  Biso   1.000  H
  H364     1.0000 0.52820  0.79520  0.48590  Biso   1.000  H
  H365     1.0000 0.02820  0.70480  0.98590  Biso   1.000  H
  H366     1.0000 0.52820  0.20480  0.98590  Biso   1.000  H
  H367     1.0000 0.97180  0.70480  0.51410  Biso   1.000  H
  H368     1.0000 0.47180  0.20480  0.51410  Biso   1.000  H
  H369     1.0000 0.00780  0.25750  0.05510  Biso   1.000  H
  H370     1.0000 0.50780  0.75750  0.05510  Biso   1.000  H
  H371     1.0000 0.99220  0.25750  0.44490  Biso   1.000  H
  H372     1.0000 0.49220  0.75750  0.44490  Biso   1.000  H
  H373     1.0000 0.99220  0.74250  0.94490  Biso   1.000  H
  H374     1.0000 0.49220  0.24250  0.94490  Biso   1.000  H
  H375     1.0000 0.00780  0.74250  0.55510  Biso   1.000  H
  H376     1.0000 0.50780  0.24250  0.55510  Biso   1.000  H
  H377     1.0000 0.98010  0.18660  0.01420  Biso   1.000  H
  H378     1.0000 0.48010  0.68660  0.01420  Biso   1.000  H
  H379     1.0000 0.01990  0.18660  0.48580  Biso   1.000  H
  H380     1.0000 0.51990  0.68660  0.48580  Biso   1.000  H
  H381     1.0000 0.01990  0.81340  0.98580  Biso   1.000  H
  H382     1.0000 0.51990  0.31340  0.98580  Biso   1.000  H
  H383     1.0000 0.98010  0.81340  0.51420  Biso   1.000  H
  H384     1.0000 0.48010  0.31340  0.51420  Biso   1.000  H
  C449     1.0000 0.02610  0.19360  0.97270  Biso   1.000  C
  C450     1.0000 0.52610  0.69360  0.97270  Biso   1.000  C
  C451     1.0000 0.97390  0.19360  0.52730  Biso   1.000  C
  C452     1.0000 0.47390  0.69360  0.52730  Biso   1.000  C
  C453     1.0000 0.97390  0.80640  0.02730  Biso   1.000  C
  C454     1.0000 0.47390  0.30640  0.02730  Biso   1.000  C
  C455     1.0000 0.02610  0.80640  0.47270  Biso   1.000  C
  C456     1.0000 0.52610  0.30640  0.47270  Biso   1.000  C
  H385     1.0000 0.03390  0.20330  0.94280  Biso   1.000  H
  H386     1.0000 0.53390  0.70330  0.94280  Biso   1.000  H
  H387     1.0000 0.96610  0.20330  0.55720  Biso   1.000  H
  H388     1.0000 0.46610  0.70330  0.55720  Biso   1.000  H
  H389     1.0000 0.96610  0.79670  0.05720  Biso   1.000  H
  H390     1.0000 0.46610  0.29670  0.05720  Biso   1.000  H
  H391     1.0000 0.03390  0.79670  0.44280  Biso   1.000  H
  H392     1.0000 0.53390  0.29670  0.44280  Biso   1.000  H
  H393     1.0000 0.01640  0.13130  0.96820  Biso   1.000  H
  H394     1.0000 0.51640  0.63130  0.96820  Biso   1.000  H
  H395     1.0000 0.98360  0.13130  0.53180  Biso   1.000  H
  H396     1.0000 0.48360  0.63130  0.53180  Biso   1.000  H
  H397     1.0000 0.98360  0.86870  0.03180  Biso   1.000  H
  H398     1.0000 0.48360  0.36870  0.03180  Biso   1.000  H
  H399     1.0000 0.01640  0.86870  0.46820  Biso   1.000  H
  H400     1.0000 0.51640  0.36870  0.46820  Biso   1.000  H
  H401     1.0000 0.04460  0.19890  0.01100  Biso   1.000  H
  H402     1.0000 0.54460  0.69890  0.01100  Biso   1.000  H
  H403     1.0000 0.95540  0.19890  0.48900  Biso   1.000  H
  H404     1.0000 0.45540  0.69890  0.48900  Biso   1.000  H
  H405     1.0000 0.95540  0.80110  0.98900  Biso   1.000  H
  H406     1.0000 0.45540  0.30110  0.98900  Biso   1.000  H
  H407     1.0000 0.04460  0.80110  0.51100  Biso   1.000  H
  H408     1.0000 0.54460  0.30110  0.51100  Biso   1.000  H
  C457     1.0000 0.97070  0.27160  0.91000  Biso   1.000  C
  C458     1.0000 0.47070  0.77160  0.91000  Biso   1.000  C
  C459     1.0000 0.02930  0.27160  0.59000  Biso   1.000  C
  C460     1.0000 0.52930  0.77160  0.59000  Biso   1.000  C
  C461     1.0000 0.02930  0.72840  0.09000  Biso   1.000  C
  C462     1.0000 0.52930  0.22840  0.09000  Biso   1.000  C
  C463     1.0000 0.97070  0.72840  0.41000  Biso   1.000  C
  C464     1.0000 0.47070  0.22840  0.41000  Biso   1.000  C
  H409     1.0000 0.97740  0.28300  0.87900  Biso   1.000  H
  H410     1.0000 0.47740  0.78300  0.87900  Biso   1.000  H
  H411     1.0000 0.02260  0.28300  0.62100  Biso   1.000  H
  H412     1.0000 0.52260  0.78300  0.62100  Biso   1.000  H
  H413     1.0000 0.02260  0.71700  0.12100  Biso   1.000  H
  H414     1.0000 0.52260  0.21700  0.12100  Biso   1.000  H
  H415     1.0000 0.97740  0.71700  0.37900  Biso   1.000  H
  H416     1.0000 0.47740  0.21700  0.37900  Biso   1.000  H
  H417     1.0000 0.95620  0.32210  0.91060  Biso   1.000  H
  H418     1.0000 0.45620  0.82210  0.91060  Biso   1.000  H
  H419     1.0000 0.04380  0.32210  0.58940  Biso   1.000  H
  H420     1.0000 0.54380  0.82210  0.58940  Biso   1.000  H
  H421     1.0000 0.04380  0.67790  0.08940  Biso   1.000  H
  H422     1.0000 0.54380  0.17790  0.08940  Biso   1.000  H
  H423     1.0000 0.95620  0.67790  0.41060  Biso   1.000  H
  H424     1.0000 0.45620  0.17790  0.41060  Biso   1.000  H
  H425     1.0000 0.95900  0.21200  0.90310  Biso   1.000  H
  H426     1.0000 0.45900  0.71200  0.90310  Biso   1.000  H
  H427     1.0000 0.04100  0.21200  0.59690  Biso   1.000  H
  H428     1.0000 0.54100  0.71200  0.59690  Biso   1.000  H
  H429     1.0000 0.04100  0.78800  0.09690  Biso   1.000  H
  H430     1.0000 0.54100  0.28800  0.09690  Biso   1.000  H
  H431     1.0000 0.95900  0.78800  0.40310  Biso   1.000  H
  H432     1.0000 0.45900  0.28800  0.40310  Biso   1.000  H
  C465     1.0000 0.23260  0.53780  0.19910  Biso   1.000  C
  C466     1.0000 0.73260  0.03780  0.19910  Biso   1.000  C
  C467     1.0000 0.76740  0.53780  0.30090  Biso   1.000  C
  C468     1.0000 0.26740  0.03780  0.30090  Biso   1.000  C
  C469     1.0000 0.76740  0.46220  0.80090  Biso   1.000  C
  C470     1.0000 0.26740  0.96220  0.80090  Biso   1.000  C
  C471     1.0000 0.23260  0.46220  0.69910  Biso   1.000  C
  C472     1.0000 0.73260  0.96220  0.69910  Biso   1.000  C
  H433     1.0000 0.23770  0.50140  0.23290  Biso   1.000  H
  H434     1.0000 0.73770  0.00140  0.23290  Biso   1.000  H
  H435     1.0000 0.76230  0.50140  0.26710  Biso   1.000  H
  H436     1.0000 0.26230  0.00140  0.26710  Biso   1.000  H
  H437     1.0000 0.76230  0.49860  0.76710  Biso   1.000  H
  H438     1.0000 0.26230  0.99860  0.76710  Biso   1.000  H
  H439     1.0000 0.23770  0.49860  0.73290  Biso   1.000  H
  H440     1.0000 0.73770  0.99860  0.73290  Biso   1.000  H
  C473     1.0000 0.25710  0.59950  0.19960  Biso   1.000  C
  C474     1.0000 0.75710  0.09950  0.19960  Biso   1.000  C
  C475     1.0000 0.74290  0.59950  0.30040  Biso   1.000  C
  C476     1.0000 0.24290  0.09950  0.30040  Biso   1.000  C
  C477     1.0000 0.74290  0.40050  0.80040  Biso   1.000  C
  C478     1.0000 0.24290  0.90050  0.80040  Biso   1.000  C
  C479     1.0000 0.25710  0.40050  0.69960  Biso   1.000  C
  C480     1.0000 0.75710  0.90050  0.69960  Biso   1.000  C
  C481     1.0000 0.24890  0.64740  0.14660  Biso   1.000  C
  C482     1.0000 0.74890  0.14740  0.14660  Biso   1.000  C
  C483     1.0000 0.75110  0.64740  0.35340  Biso   1.000  C
  C484     1.0000 0.25110  0.14740  0.35340  Biso   1.000  C
  C485     1.0000 0.75110  0.35260  0.85340  Biso   1.000  C
  C486     1.0000 0.25110  0.85260  0.85340  Biso   1.000  C
  C487     1.0000 0.24890  0.35260  0.64660  Biso   1.000  C
  C488     1.0000 0.74890  0.85260  0.64660  Biso   1.000  C
  H441     1.0000 0.26460  0.68730  0.14260  Biso   1.000  H
  H442     1.0000 0.76460  0.18730  0.14260  Biso   1.000  H
  H443     1.0000 0.73540  0.68730  0.35740  Biso   1.000  H
  H444     1.0000 0.23540  0.18730  0.35740  Biso   1.000  H
  H445     1.0000 0.73540  0.31270  0.85740  Biso   1.000  H
  H446     1.0000 0.23540  0.81270  0.85740  Biso   1.000  H
  H447     1.0000 0.26460  0.31270  0.64260  Biso   1.000  H
  H448     1.0000 0.76460  0.81270  0.64260  Biso   1.000  H
  C489     1.0000 0.21790  0.63640  0.10010  Biso   1.000  C
  C490     1.0000 0.71790  0.13640  0.10010  Biso   1.000  C
  C491     1.0000 0.78210  0.63640  0.39990  Biso   1.000  C
  C492     1.0000 0.28210  0.13640  0.39990  Biso   1.000  C
  C493     1.0000 0.78210  0.36360  0.89990  Biso   1.000  C
  C494     1.0000 0.28210  0.86360  0.89990  Biso   1.000  C
  C495     1.0000 0.21790  0.36360  0.60010  Biso   1.000  C
  C496     1.0000 0.71790  0.86360  0.60010  Biso   1.000  C
  H449     1.0000 0.21260  0.66900  0.06490  Biso   1.000  H
  H450     1.0000 0.71260  0.16900  0.06490  Biso   1.000  H
  H451     1.0000 0.78740  0.66900  0.43510  Biso   1.000  H
  H452     1.0000 0.28740  0.16900  0.43510  Biso   1.000  H
  H453     1.0000 0.78740  0.33100  0.93510  Biso   1.000  H
  H454     1.0000 0.28740  0.83100  0.93510  Biso   1.000  H
  H455     1.0000 0.21260  0.33100  0.56490  Biso   1.000  H
  H456     1.0000 0.71260  0.83100  0.56490  Biso   1.000  H
  C497     1.0000 0.19510  0.57730  0.10580  Biso   1.000  C
  C498     1.0000 0.69510  0.07730  0.10580  Biso   1.000  C
  C499     1.0000 0.80490  0.57730  0.39420  Biso   1.000  C
  C500     1.0000 0.30490  0.07730  0.39420  Biso   1.000  C
  C501     1.0000 0.80490  0.42270  0.89420  Biso   1.000  C
  C502     1.0000 0.30490  0.92270  0.89420  Biso   1.000  C
  C503     1.0000 0.19510  0.42270  0.60580  Biso   1.000  C
  C504     1.0000 0.69510  0.92270  0.60580  Biso   1.000  C
  H457     1.0000 0.17370  0.57290  0.07480  Biso   1.000  H
  H458     1.0000 0.67370  0.07290  0.07480  Biso   1.000  H
  H459     1.0000 0.82630  0.57290  0.42520  Biso   1.000  H
  H460     1.0000 0.32630  0.07290  0.42520  Biso   1.000  H
  H461     1.0000 0.82630  0.42710  0.92520  Biso   1.000  H
  H462     1.0000 0.32630  0.92710  0.92520  Biso   1.000  H
  H463     1.0000 0.17370  0.42710  0.57480  Biso   1.000  H
  H464     1.0000 0.67370  0.92710  0.57480  Biso   1.000  H
  C505     1.0000 0.18480  0.79800  0.93400  Biso   1.000  C
  C506     1.0000 0.68480  0.29800  0.93400  Biso   1.000  C
  C507     1.0000 0.81520  0.79800  0.56600  Biso   1.000  C
  C508     1.0000 0.31520  0.29800  0.56600  Biso   1.000  C
  C509     1.0000 0.81520  0.20200  0.06600  Biso   1.000  C
  C510     1.0000 0.31520  0.70200  0.06600  Biso   1.000  C
  C511     1.0000 0.18480  0.20200  0.43400  Biso   1.000  C
  C512     1.0000 0.68480  0.70200  0.43400  Biso   1.000  C
  O41      1.0000 0.18650  0.91920  0.89900  Biso   1.000  O
  O42      1.0000 0.68650  0.41920  0.89900  Biso   1.000  O
  O43      1.0000 0.81350  0.91920  0.60100  Biso   1.000  O
  O44      1.0000 0.31350  0.41920  0.60100  Biso   1.000  O
  O45      1.0000 0.81350  0.08080  0.10100  Biso   1.000  O
  O46      1.0000 0.31350  0.58080  0.10100  Biso   1.000  O
  O47      1.0000 0.18650  0.08080  0.39900  Biso   1.000  O
  O48      1.0000 0.68650  0.58080  0.39900  Biso   1.000  O
  C513     1.0000 0.21440  0.93230  0.94310  Biso   1.000  C
  C514     1.0000 0.71440  0.43230  0.94310  Biso   1.000  C
  C515     1.0000 0.78560  0.93230  0.55690  Biso   1.000  C
  C516     1.0000 0.28560  0.43230  0.55690  Biso   1.000  C
  C517     1.0000 0.78560  0.06770  0.05690  Biso   1.000  C
  C518     1.0000 0.28560  0.56770  0.05690  Biso   1.000  C
  C519     1.0000 0.21440  0.06770  0.44310  Biso   1.000  C
  C520     1.0000 0.71440  0.56770  0.44310  Biso   1.000  C
  H465     1.0000 0.21210  0.97230  0.97270  Biso   1.000  H
  H466     1.0000 0.71210  0.47230  0.97270  Biso   1.000  H
  H467     1.0000 0.78790  0.97230  0.52730  Biso   1.000  H
  H468     1.0000 0.28790  0.47230  0.52730  Biso   1.000  H
  H469     1.0000 0.78790  0.02770  0.02730  Biso   1.000  H
  H470     1.0000 0.28790  0.52770  0.02730  Biso   1.000  H
  H471     1.0000 0.21210  0.02770  0.47270  Biso   1.000  H
  H472     1.0000 0.71210  0.52770  0.47270  Biso   1.000  H
  H473     1.0000 0.23070  0.96020  0.93150  Biso   1.000  H
  H474     1.0000 0.73070  0.46020  0.93150  Biso   1.000  H
  H475     1.0000 0.76930  0.96020  0.56850  Biso   1.000  H
  H476     1.0000 0.26930  0.46020  0.56850  Biso   1.000  H
  H477     1.0000 0.76930  0.03980  0.06850  Biso   1.000  H
  H478     1.0000 0.26930  0.53980  0.06850  Biso   1.000  H
  H479     1.0000 0.23070  0.03980  0.43150  Biso   1.000  H
  H480     1.0000 0.73070  0.53980  0.43150  Biso   1.000  H
  C521     1.0000 0.22370  0.83000  0.96510  Biso   1.000  C
  C522     1.0000 0.72370  0.33000  0.96510  Biso   1.000  C
  C523     1.0000 0.77630  0.83000  0.53490  Biso   1.000  C
  C524     1.0000 0.27630  0.33000  0.53490  Biso   1.000  C
  C525     1.0000 0.77630  0.17000  0.03490  Biso   1.000  C
  C526     1.0000 0.27630  0.67000  0.03490  Biso   1.000  C
  C527     1.0000 0.22370  0.17000  0.46510  Biso   1.000  C
  C528     1.0000 0.72370  0.67000  0.46510  Biso   1.000  C
  H481     1.0000 0.23440  0.79650  0.94390  Biso   1.000  H
  H482     1.0000 0.73440  0.29650  0.94390  Biso   1.000  H
  H483     1.0000 0.76560  0.79650  0.55610  Biso   1.000  H
  H484     1.0000 0.26560  0.29650  0.55610  Biso   1.000  H
  H485     1.0000 0.76560  0.20350  0.05610  Biso   1.000  H
  H486     1.0000 0.26560  0.70350  0.05610  Biso   1.000  H
  H487     1.0000 0.23440  0.20350  0.44390  Biso   1.000  H
  H488     1.0000 0.73440  0.70350  0.44390  Biso   1.000  H
  H489     1.0000 0.23800  0.82740  0.00720  Biso   1.000  H
  H490     1.0000 0.73800  0.32740  0.00720  Biso   1.000  H
  H491     1.0000 0.76200  0.82740  0.49280  Biso   1.000  H
  H492     1.0000 0.26200  0.32740  0.49280  Biso   1.000  H
  H493     1.0000 0.76200  0.17260  0.99280  Biso   1.000  H
  H494     1.0000 0.26200  0.67260  0.99280  Biso   1.000  H
  H495     1.0000 0.23800  0.17260  0.50720  Biso   1.000  H
  H496     1.0000 0.73800  0.67260  0.50720  Biso   1.000  H
  H497     1.0000 0.18810  0.72630  0.93890  Biso   1.000  H
  H498     1.0000 0.68810  0.22630  0.93890  Biso   1.000  H
  H499     1.0000 0.81190  0.72630  0.56110  Biso   1.000  H
  H500     1.0000 0.31190  0.22630  0.56110  Biso   1.000  H
  H501     1.0000 0.81190  0.27370  0.06110  Biso   1.000  H
  H502     1.0000 0.31190  0.77370  0.06110  Biso   1.000  H
  H503     1.0000 0.18810  0.27370  0.43890  Biso   1.000  H
  H504     1.0000 0.68810  0.77370  0.43890  Biso   1.000  H
  H505     1.0000 0.18440  0.79900  0.98370  Biso   1.000  H
  H506     1.0000 0.68440  0.29900  0.98370  Biso   1.000  H
  H507     1.0000 0.81560  0.79900  0.51630  Biso   1.000  H
  H508     1.0000 0.31560  0.29900  0.51630  Biso   1.000  H
  H509     1.0000 0.81560  0.20100  0.01630  Biso   1.000  H
  H510     1.0000 0.31560  0.70100  0.01630  Biso   1.000  H
  H511     1.0000 0.18440  0.20100  0.48370  Biso   1.000  H
  H512     1.0000 0.68440  0.70100  0.48370  Biso   1.000  H
  C529     1.0000 0.16850  0.85100  0.90200  Biso   1.000  C
  C530     1.0000 0.66850  0.35100  0.90200  Biso   1.000  C
  C531     1.0000 0.83150  0.85100  0.59800  Biso   1.000  C
  C532     1.0000 0.33150  0.35100  0.59800  Biso   1.000  C
  C533     1.0000 0.83150  0.14900  0.09800  Biso   1.000  C
  C534     1.0000 0.33150  0.64900  0.09800  Biso   1.000  C
  C535     1.0000 0.16850  0.14900  0.40200  Biso   1.000  C
  C536     1.0000 0.66850  0.64900  0.40200  Biso   1.000  C
  H513     1.0000 0.15950  0.81480  0.86560  Biso   1.000  H
  H514     1.0000 0.65950  0.31480  0.86560  Biso   1.000  H
  H515     1.0000 0.84050  0.81480  0.63440  Biso   1.000  H
  H516     1.0000 0.34050  0.31480  0.63440  Biso   1.000  H
  H517     1.0000 0.84050  0.18520  0.13440  Biso   1.000  H
  H518     1.0000 0.34050  0.68520  0.13440  Biso   1.000  H
  H519     1.0000 0.15950  0.18520  0.36560  Biso   1.000  H
  H520     1.0000 0.65950  0.68520  0.36560  Biso   1.000  H
  H521     1.0000 0.14990  0.87530  0.90890  Biso   1.000  H
  H522     1.0000 0.64990  0.37530  0.90890  Biso   1.000  H
  H523     1.0000 0.85010  0.87530  0.59110  Biso   1.000  H
  H524     1.0000 0.35010  0.37530  0.59110  Biso   1.000  H
  H525     1.0000 0.85010  0.12470  0.09110  Biso   1.000  H
  H526     1.0000 0.35010  0.62470  0.09110  Biso   1.000  H
  H527     1.0000 0.14990  0.12470  0.40890  Biso   1.000  H
  H528     1.0000 0.64990  0.62470  0.40890  Biso   1.000  H
  O49      1.0000 0.05450  0.96800  0.86760  Biso   1.000  O
  O50      1.0000 0.55450  0.46800  0.86760  Biso   1.000  O
  O51      1.0000 0.94550  0.96800  0.63240  Biso   1.000  O
  O52      1.0000 0.44550  0.46800  0.63240  Biso   1.000  O
  O53      1.0000 0.94550  0.03200  0.13240  Biso   1.000  O
  O54      1.0000 0.44550  0.53200  0.13240  Biso   1.000  O
  O55      1.0000 0.05450  0.03200  0.36760  Biso   1.000  O
  O56      1.0000 0.55450  0.53200  0.36760  Biso   1.000  O
  C537     1.0000 0.02900  0.97400  0.87140  Biso   1.000  C
  C538     1.0000 0.52900  0.47400  0.87140  Biso   1.000  C
  C539     1.0000 0.97100  0.97400  0.62860  Biso   1.000  C
  C540     1.0000 0.47100  0.47400  0.62860  Biso   1.000  C
  C541     1.0000 0.97100  0.02600  0.12860  Biso   1.000  C
  C542     1.0000 0.47100  0.52600  0.12860  Biso   1.000  C
  C543     1.0000 0.02900  0.02600  0.37140  Biso   1.000  C
  C544     1.0000 0.52900  0.52600  0.37140  Biso   1.000  C
  H529     1.0000 0.02200  0.01750  0.89190  Biso   1.000  H
  H530     1.0000 0.52200  0.51750  0.89190  Biso   1.000  H
  H531     1.0000 0.97800  0.01750  0.60810  Biso   1.000  H
  H532     1.0000 0.47800  0.51750  0.60810  Biso   1.000  H
  H533     1.0000 0.97800  0.98250  0.10810  Biso   1.000  H
  H534     1.0000 0.47800  0.48250  0.10810  Biso   1.000  H
  H535     1.0000 0.02200  0.98250  0.39190  Biso   1.000  H
  H536     1.0000 0.52200  0.48250  0.39190  Biso   1.000  H
  C545     1.0000 0.01070  0.88900  0.83200  Biso   1.000  C
  C546     1.0000 0.51070  0.38900  0.83200  Biso   1.000  C
  C547     1.0000 0.98930  0.88900  0.66800  Biso   1.000  C
  C548     1.0000 0.48930  0.38900  0.66800  Biso   1.000  C
  C549     1.0000 0.98930  0.11100  0.16800  Biso   1.000  C
  C550     1.0000 0.48930  0.61100  0.16800  Biso   1.000  C
  C551     1.0000 0.01070  0.11100  0.33200  Biso   1.000  C
  C552     1.0000 0.51070  0.61100  0.33200  Biso   1.000  C
  H537     1.0000 0.98710  0.90340  0.80900  Biso   1.000  H
  H538     1.0000 0.48710  0.40340  0.80900  Biso   1.000  H
  H539     1.0000 0.01290  0.90340  0.69100  Biso   1.000  H
  H540     1.0000 0.51290  0.40340  0.69100  Biso   1.000  H
  H541     1.0000 0.01290  0.09660  0.19100  Biso   1.000  H
  H542     1.0000 0.51290  0.59660  0.19100  Biso   1.000  H
  H543     1.0000 0.98710  0.09660  0.30900  Biso   1.000  H
  H544     1.0000 0.48710  0.59660  0.30900  Biso   1.000  H
  C553     1.0000 0.02610  0.87210  0.79510  Biso   1.000  C
  C554     1.0000 0.52610  0.37210  0.79510  Biso   1.000  C
  C555     1.0000 0.97390  0.87210  0.70490  Biso   1.000  C
  C556     1.0000 0.47390  0.37210  0.70490  Biso   1.000  C
  C557     1.0000 0.97390  0.12790  0.20490  Biso   1.000  C
  C558     1.0000 0.47390  0.62790  0.20490  Biso   1.000  C
  C559     1.0000 0.02610  0.12790  0.29510  Biso   1.000  C
  C560     1.0000 0.52610  0.62790  0.29510  Biso   1.000  C
  H545     1.0000 0.03090  0.80490  0.79370  Biso   1.000  H
  H546     1.0000 0.53090  0.30490  0.79370  Biso   1.000  H
  H547     1.0000 0.96910  0.80490  0.70630  Biso   1.000  H
  H548     1.0000 0.46910  0.30490  0.70630  Biso   1.000  H
  H549     1.0000 0.96910  0.19510  0.20630  Biso   1.000  H
  H550     1.0000 0.46910  0.69510  0.20630  Biso   1.000  H
  H551     1.0000 0.03090  0.19510  0.29370  Biso   1.000  H
  H552     1.0000 0.53090  0.69510  0.29370  Biso   1.000  H
  H553     1.0000 0.01240  0.89470  0.75530  Biso   1.000  H
  H554     1.0000 0.51240  0.39470  0.75530  Biso   1.000  H
  H555     1.0000 0.98760  0.89470  0.74470  Biso   1.000  H
  H556     1.0000 0.48760  0.39470  0.74470  Biso   1.000  H
  H557     1.0000 0.98760  0.10530  0.24470  Biso   1.000  H
  H558     1.0000 0.48760  0.60530  0.24470  Biso   1.000  H
  H559     1.0000 0.01240  0.10530  0.25530  Biso   1.000  H
  H560     1.0000 0.51240  0.60530  0.25530  Biso   1.000  H
  C561     1.0000 0.05480  0.92400  0.82170  Biso   1.000  C
  C562     1.0000 0.55480  0.42400  0.82170  Biso   1.000  C
  C563     1.0000 0.94520  0.92400  0.67830  Biso   1.000  C
  C564     1.0000 0.44520  0.42400  0.67830  Biso   1.000  C
  C565     1.0000 0.94520  0.07600  0.17830  Biso   1.000  C
  C566     1.0000 0.44520  0.57600  0.17830  Biso   1.000  C
  C567     1.0000 0.05480  0.07600  0.32170  Biso   1.000  C
  C568     1.0000 0.55480  0.57600  0.32170  Biso   1.000  C
  H561     1.0000 0.07020  0.90780  0.80540  Biso   1.000  H
  H562     1.0000 0.57020  0.40780  0.80540  Biso   1.000  H
  H563     1.0000 0.92980  0.90780  0.69460  Biso   1.000  H
  H564     1.0000 0.42980  0.40780  0.69460  Biso   1.000  H
  H565     1.0000 0.92980  0.09220  0.19460  Biso   1.000  H
  H566     1.0000 0.42980  0.59220  0.19460  Biso   1.000  H
  H567     1.0000 0.07020  0.09220  0.30540  Biso   1.000  H
  H568     1.0000 0.57020  0.59220  0.30540  Biso   1.000  H
  O57      1.0000 0.07800  0.70440  0.94610  Biso   1.000  O
  O58      1.0000 0.57800  0.20440  0.94610  Biso   1.000  O
  O59      1.0000 0.92200  0.70440  0.55390  Biso   1.000  O
  O60      1.0000 0.42200  0.20440  0.55390  Biso   1.000  O
  O61      1.0000 0.92200  0.29560  0.05390  Biso   1.000  O
  O62      1.0000 0.42200  0.79560  0.05390  Biso   1.000  O
  O63      1.0000 0.07800  0.29560  0.44610  Biso   1.000  O
  O64      1.0000 0.57800  0.79560  0.44610  Biso   1.000  O
  C569     1.0000 0.05850  0.65600  0.89330  Biso   1.000  C
  C570     1.0000 0.55850  0.15600  0.89330  Biso   1.000  C
  C571     1.0000 0.94150  0.65600  0.60670  Biso   1.000  C
  C572     1.0000 0.44150  0.15600  0.60670  Biso   1.000  C
  C573     1.0000 0.94150  0.34400  0.10670  Biso   1.000  C
  C574     1.0000 0.44150  0.84400  0.10670  Biso   1.000  C
  C575     1.0000 0.05850  0.34400  0.39330  Biso   1.000  C
  C576     1.0000 0.55850  0.84400  0.39330  Biso   1.000  C
  H569     1.0000 0.04930  0.70000  0.86030  Biso   1.000  H
  H570     1.0000 0.54930  0.20000  0.86030  Biso   1.000  H
  H571     1.0000 0.95070  0.70000  0.63970  Biso   1.000  H
  H572     1.0000 0.45070  0.20000  0.63970  Biso   1.000  H
  H573     1.0000 0.95070  0.30000  0.13970  Biso   1.000  H
  H574     1.0000 0.45070  0.80000  0.13970  Biso   1.000  H
  H575     1.0000 0.04930  0.30000  0.36030  Biso   1.000  H
  H576     1.0000 0.54930  0.80000  0.36030  Biso   1.000  H
  H577     1.0000 0.04020  0.62200  0.89640  Biso   1.000  H
  H578     1.0000 0.54020  0.12200  0.89640  Biso   1.000  H
  H579     1.0000 0.95980  0.62200  0.60360  Biso   1.000  H
  H580     1.0000 0.45980  0.12200  0.60360  Biso   1.000  H
  H581     1.0000 0.95980  0.37800  0.10360  Biso   1.000  H
  H582     1.0000 0.45980  0.87800  0.10360  Biso   1.000  H
  H583     1.0000 0.04020  0.37800  0.39640  Biso   1.000  H
  H584     1.0000 0.54020  0.87800  0.39640  Biso   1.000  H
  C577     1.0000 0.08220  0.58800  0.88560  Biso   1.000  C
  C578     1.0000 0.58220  0.08800  0.88560  Biso   1.000  C
  C579     1.0000 0.91780  0.58800  0.61440  Biso   1.000  C
  C580     1.0000 0.41780  0.08800  0.61440  Biso   1.000  C
  C581     1.0000 0.91780  0.41200  0.11440  Biso   1.000  C
  C582     1.0000 0.41780  0.91200  0.11440  Biso   1.000  C
  C583     1.0000 0.08220  0.41200  0.38560  Biso   1.000  C
  C584     1.0000 0.58220  0.91200  0.38560  Biso   1.000  C
  H585     1.0000 0.07690  0.58050  0.84410  Biso   1.000  H
  H586     1.0000 0.57690  0.08050  0.84410  Biso   1.000  H
  H587     1.0000 0.92310  0.58050  0.65590  Biso   1.000  H
  H588     1.0000 0.42310  0.08050  0.65590  Biso   1.000  H
  H589     1.0000 0.92310  0.41950  0.15590  Biso   1.000  H
  H590     1.0000 0.42310  0.91950  0.15590  Biso   1.000  H
  H591     1.0000 0.07690  0.41950  0.34410  Biso   1.000  H
  H592     1.0000 0.57690  0.91950  0.34410  Biso   1.000  H
  H593     1.0000 0.08140  0.52650  0.90210  Biso   1.000  H
  H594     1.0000 0.58140  0.02650  0.90210  Biso   1.000  H
  H595     1.0000 0.91860  0.52650  0.59790  Biso   1.000  H
  H596     1.0000 0.41860  0.02650  0.59790  Biso   1.000  H
  H597     1.0000 0.91860  0.47350  0.09790  Biso   1.000  H
  H598     1.0000 0.41860  0.97350  0.09790  Biso   1.000  H
  H599     1.0000 0.08140  0.47350  0.40210  Biso   1.000  H
  H600     1.0000 0.58140  0.97350  0.40210  Biso   1.000  H
  C585     1.0000 0.11650  0.63300  0.91850  Biso   1.000  C
  C586     1.0000 0.61650  0.13300  0.91850  Biso   1.000  C
  C587     1.0000 0.88350  0.63300  0.58150  Biso   1.000  C
  C588     1.0000 0.38350  0.13300  0.58150  Biso   1.000  C
  C589     1.0000 0.88350  0.36700  0.08150  Biso   1.000  C
  C590     1.0000 0.38350  0.86700  0.08150  Biso   1.000  C
  C591     1.0000 0.11650  0.36700  0.41850  Biso   1.000  C
  C592     1.0000 0.61650  0.86700  0.41850  Biso   1.000  C
  H601     1.0000 0.13360  0.58500  0.93610  Biso   1.000  H
  H602     1.0000 0.63360  0.08500  0.93610  Biso   1.000  H
  H603     1.0000 0.86640  0.58500  0.56390  Biso   1.000  H
  H604     1.0000 0.36640  0.08500  0.56390  Biso   1.000  H
  H605     1.0000 0.86640  0.41500  0.06390  Biso   1.000  H
  H606     1.0000 0.36640  0.91500  0.06390  Biso   1.000  H
  H607     1.0000 0.13360  0.41500  0.43610  Biso   1.000  H
  H608     1.0000 0.63360  0.91500  0.43610  Biso   1.000  H
  H609     1.0000 0.12220  0.67250  0.89230  Biso   1.000  H
  H610     1.0000 0.62220  0.17250  0.89230  Biso   1.000  H
  H611     1.0000 0.87780  0.67250  0.60770  Biso   1.000  H
  H612     1.0000 0.37780  0.17250  0.60770  Biso   1.000  H
  H613     1.0000 0.87780  0.32750  0.10770  Biso   1.000  H
  H614     1.0000 0.37780  0.82750  0.10770  Biso   1.000  H
  H615     1.0000 0.12220  0.32750  0.39230  Biso   1.000  H
  H616     1.0000 0.62220  0.82750  0.39230  Biso   1.000  H
  C593     1.0000 0.11340  0.68700  0.96060  Biso   1.000  C
  C594     1.0000 0.61340  0.18700  0.96060  Biso   1.000  C
  C595     1.0000 0.88660  0.68700  0.53940  Biso   1.000  C
  C596     1.0000 0.38660  0.18700  0.53940  Biso   1.000  C
  C597     1.0000 0.88660  0.31300  0.03940  Biso   1.000  C
  C598     1.0000 0.38660  0.81300  0.03940  Biso   1.000  C
  C599     1.0000 0.11340  0.31300  0.46060  Biso   1.000  C
  C600     1.0000 0.61340  0.81300  0.46060  Biso   1.000  C
  H617     1.0000 0.12480  0.74750  0.96400  Biso   1.000  H
  H618     1.0000 0.62480  0.24750  0.96400  Biso   1.000  H
  H619     1.0000 0.87520  0.74750  0.53600  Biso   1.000  H
  H620     1.0000 0.37520  0.24750  0.53600  Biso   1.000  H
  H621     1.0000 0.87520  0.25250  0.03600  Biso   1.000  H
  H622     1.0000 0.37520  0.75250  0.03600  Biso   1.000  H
  H623     1.0000 0.12480  0.25250  0.46400  Biso   1.000  H
  H624     1.0000 0.62480  0.75250  0.46400  Biso   1.000  H
  H625     1.0000 0.12400  0.65480  0.99840  Biso   1.000  H
  H626     1.0000 0.62400  0.15480  0.99840  Biso   1.000  H
  H627     1.0000 0.87600  0.65480  0.50160  Biso   1.000  H
  H628     1.0000 0.37600  0.15480  0.50160  Biso   1.000  H
  H629     1.0000 0.87600  0.34520  0.00160  Biso   1.000  H
  H630     1.0000 0.37600  0.84520  0.00160  Biso   1.000  H
  H631     1.0000 0.12400  0.34520  0.49840  Biso   1.000  H
  H632     1.0000 0.62400  0.84520  0.49840  Biso   1.000  H
  O65      1.0000 0.17850  0.71200  0.91870  Biso   1.000  O
  O66      1.0000 0.67850  0.21200  0.91870  Biso   1.000  O
  O67      1.0000 0.82150  0.71200  0.58130  Biso   1.000  O
  O68      1.0000 0.32150  0.21200  0.58130  Biso   1.000  O
  O69      1.0000 0.82150  0.28800  0.08130  Biso   1.000  O
  O70      1.0000 0.32150  0.78800  0.08130  Biso   1.000  O
  O71      1.0000 0.17850  0.28800  0.41870  Biso   1.000  O
  O72      1.0000 0.67850  0.78800  0.41870  Biso   1.000  O
  C601     1.0000 0.15050  0.67800  0.91200  Biso   1.000  C
  C602     1.0000 0.65050  0.17800  0.91200  Biso   1.000  C
  C603     1.0000 0.84950  0.67800  0.58800  Biso   1.000  C
  C604     1.0000 0.34950  0.17800  0.58800  Biso   1.000  C
  C605     1.0000 0.84950  0.32200  0.08800  Biso   1.000  C
  C606     1.0000 0.34950  0.82200  0.08800  Biso   1.000  C
  C607     1.0000 0.15050  0.32200  0.41200  Biso   1.000  C
  C608     1.0000 0.65050  0.82200  0.41200  Biso   1.000  C
  H633     1.0000 0.15180  0.61020  0.92020  Biso   1.000  H
  H634     1.0000 0.65180  0.11020  0.92020  Biso   1.000  H
  H635     1.0000 0.84820  0.61020  0.57980  Biso   1.000  H
  H636     1.0000 0.34820  0.11020  0.57980  Biso   1.000  H
  H637     1.0000 0.84820  0.38980  0.07980  Biso   1.000  H
  H638     1.0000 0.34820  0.88980  0.07980  Biso   1.000  H
  H639     1.0000 0.15180  0.38980  0.42020  Biso   1.000  H
  H640     1.0000 0.65180  0.88980  0.42020  Biso   1.000  H
  H641     1.0000 0.13310  0.69000  0.87260  Biso   1.000  H
  H642     1.0000 0.63310  0.19000  0.87260  Biso   1.000  H
  H643     1.0000 0.86690  0.69000  0.62740  Biso   1.000  H
  H644     1.0000 0.36690  0.19000  0.62740  Biso   1.000  H
  H645     1.0000 0.86690  0.31000  0.12740  Biso   1.000  H
  H646     1.0000 0.36690  0.81000  0.12740  Biso   1.000  H
  H647     1.0000 0.13310  0.31000  0.37260  Biso   1.000  H
  H648     1.0000 0.63310  0.81000  0.37260  Biso   1.000  H
  C609     1.0000 0.14520  0.73700  0.96000  Biso   1.000  C
  C610     1.0000 0.64520  0.23700  0.96000  Biso   1.000  C
  C611     1.0000 0.85480  0.73700  0.54000  Biso   1.000  C
  C612     1.0000 0.35480  0.23700  0.54000  Biso   1.000  C
  C613     1.0000 0.85480  0.26300  0.04000  Biso   1.000  C
  C614     1.0000 0.35480  0.76300  0.04000  Biso   1.000  C
  C615     1.0000 0.14520  0.26300  0.46000  Biso   1.000  C
  C616     1.0000 0.64520  0.76300  0.46000  Biso   1.000  C
  H649     1.0000 0.12160  0.74730  0.94880  Biso   1.000  H
  H650     1.0000 0.62160  0.24730  0.94880  Biso   1.000  H
  H651     1.0000 0.87840  0.74730  0.55120  Biso   1.000  H
  H652     1.0000 0.37840  0.24730  0.55120  Biso   1.000  H
  H653     1.0000 0.87840  0.25270  0.05120  Biso   1.000  H
  H654     1.0000 0.37840  0.75270  0.05120  Biso   1.000  H
  H655     1.0000 0.12160  0.25270  0.44880  Biso   1.000  H
  H656     1.0000 0.62160  0.75270  0.44880  Biso   1.000  H
  H657     1.0000 0.15540  0.70630  0.99800  Biso   1.000  H
  H658     1.0000 0.65540  0.20630  0.99800  Biso   1.000  H
  H659     1.0000 0.84460  0.70630  0.50200  Biso   1.000  H
  H660     1.0000 0.34460  0.20630  0.50200  Biso   1.000  H
  H661     1.0000 0.84460  0.29370  0.00200  Biso   1.000  H
  H662     1.0000 0.34460  0.79370  0.00200  Biso   1.000  H
  H663     1.0000 0.15540  0.29370  0.49800  Biso   1.000  H
  H664     1.0000 0.65540  0.79370  0.49800  Biso   1.000  H
  C617     1.0000 0.16130  0.82200  0.95900  Biso   1.000  C
  C618     1.0000 0.66130  0.32200  0.95900  Biso   1.000  C
  C619     1.0000 0.83870  0.82200  0.54100  Biso   1.000  C
  C620     1.0000 0.33870  0.32200  0.54100  Biso   1.000  C
  C621     1.0000 0.83870  0.17800  0.04100  Biso   1.000  C
  C622     1.0000 0.33870  0.67800  0.04100  Biso   1.000  C
  C623     1.0000 0.16130  0.17800  0.45900  Biso   1.000  C
  C624     1.0000 0.66130  0.67800  0.45900  Biso   1.000  C
  H665     1.0000 0.17340  0.84610  0.99920  Biso   1.000  H
  H666     1.0000 0.67340  0.34610  0.99920  Biso   1.000  H
  H667     1.0000 0.82660  0.84610  0.50080  Biso   1.000  H
  H668     1.0000 0.32660  0.34610  0.50080  Biso   1.000  H
  H669     1.0000 0.82660  0.15390  0.00080  Biso   1.000  H
  H670     1.0000 0.32660  0.65390  0.00080  Biso   1.000  H
  H671     1.0000 0.17340  0.15390  0.49920  Biso   1.000  H
  H672     1.0000 0.67340  0.65390  0.49920  Biso   1.000  H
  H673     1.0000 0.14520  0.86920  0.93560  Biso   1.000  H
  H674     1.0000 0.64520  0.36920  0.93560  Biso   1.000  H
  H675     1.0000 0.85480  0.86920  0.56440  Biso   1.000  H
  H676     1.0000 0.35480  0.36920  0.56440  Biso   1.000  H
  H677     1.0000 0.85480  0.13080  0.06440  Biso   1.000  H
  H678     1.0000 0.35480  0.63080  0.06440  Biso   1.000  H
  H679     1.0000 0.14520  0.13080  0.43560  Biso   1.000  H
  H680     1.0000 0.64520  0.63080  0.43560  Biso   1.000  H
  H681     1.0000 0.18070  0.83820  0.89970  Biso   1.000  H
  H682     1.0000 0.68070  0.33820  0.89970  Biso   1.000  H
  H683     1.0000 0.81930  0.83820  0.60030  Biso   1.000  H
  H684     1.0000 0.31930  0.33820  0.60030  Biso   1.000  H
  H685     1.0000 0.81930  0.16180  0.10030  Biso   1.000  H
  H686     1.0000 0.31930  0.66180  0.10030  Biso   1.000  H
  H687     1.0000 0.18070  0.16180  0.39970  Biso   1.000  H
  H688     1.0000 0.68070  0.66180  0.39970  Biso   1.000  H
  H689     1.0000 0.20780  0.80640  0.96260  Biso   1.000  H
  H690     1.0000 0.70780  0.30640  0.96260  Biso   1.000  H
  H691     1.0000 0.79220  0.80640  0.53740  Biso   1.000  H
  H692     1.0000 0.29220  0.30640  0.53740  Biso   1.000  H
  H693     1.0000 0.79220  0.19360  0.03740  Biso   1.000  H
  H694     1.0000 0.29220  0.69360  0.03740  Biso   1.000  H
  H695     1.0000 0.20780  0.19360  0.46260  Biso   1.000  H
  H696     1.0000 0.70780  0.69360  0.46260  Biso   1.000  H
  C625     1.0000 0.18990  0.79300  0.95000  Biso   1.000  C
  C626     1.0000 0.68990  0.29300  0.95000  Biso   1.000  C
  C627     1.0000 0.81010  0.79300  0.55000  Biso   1.000  C
  C628     1.0000 0.31010  0.29300  0.55000  Biso   1.000  C
  C629     1.0000 0.81010  0.20700  0.05000  Biso   1.000  C
  C630     1.0000 0.31010  0.70700  0.05000  Biso   1.000  C
  C631     1.0000 0.18990  0.20700  0.45000  Biso   1.000  C
  C632     1.0000 0.68990  0.70700  0.45000  Biso   1.000  C
  H697     1.0000 0.01240  0.83310  0.85610  Biso   1.000  H
  H698     1.0000 0.51240  0.33310  0.85610  Biso   1.000  H
  H699     1.0000 0.98760  0.83310  0.64390  Biso   1.000  H
  H700     1.0000 0.48760  0.33310  0.64390  Biso   1.000  H
  H701     1.0000 0.98760  0.16690  0.14390  Biso   1.000  H
  H702     1.0000 0.48760  0.66690  0.14390  Biso   1.000  H
  H703     1.0000 0.01240  0.16690  0.35610  Biso   1.000  H
  H704     1.0000 0.51240  0.66690  0.35610  Biso   1.000  H
  H705     1.0000 0.07190  0.92740  0.80940  Biso   1.000  H
  H706     1.0000 0.57190  0.42740  0.80940  Biso   1.000  H
  H707     1.0000 0.92810  0.92740  0.69060  Biso   1.000  H
  H708     1.0000 0.42810  0.42740  0.69060  Biso   1.000  H
  H709     1.0000 0.92810  0.07260  0.19060  Biso   1.000  H
  H710     1.0000 0.42810  0.57260  0.19060  Biso   1.000  H
  H711     1.0000 0.07190  0.07260  0.30940  Biso   1.000  H
  H712     1.0000 0.57190  0.57260  0.30940  Biso   1.000  H
  H713     1.0000 0.01570  0.02210  0.87860  Biso   1.000  H
  H714     1.0000 0.51570  0.52210  0.87860  Biso   1.000  H
  H715     1.0000 0.98430  0.02210  0.62140  Biso   1.000  H
  H716     1.0000 0.48430  0.52210  0.62140  Biso   1.000  H
  H717     1.0000 0.98430  0.97790  0.12140  Biso   1.000  H
  H718     1.0000 0.48430  0.47790  0.12140  Biso   1.000  H
  H719     1.0000 0.01570  0.97790  0.37860  Biso   1.000  H
  H720     1.0000 0.51570  0.47790  0.37860  Biso   1.000  H
  H721     1.0000 0.02020  0.96260  0.82970  Biso   1.000  H
  H722     1.0000 0.52020  0.46260  0.82970  Biso   1.000  H
  H723     1.0000 0.97980  0.96260  0.67030  Biso   1.000  H
  H724     1.0000 0.47980  0.46260  0.67030  Biso   1.000  H
  H725     1.0000 0.97980  0.03740  0.17030  Biso   1.000  H
  H726     1.0000 0.47980  0.53740  0.17030  Biso   1.000  H
  H727     1.0000 0.02020  0.03740  0.32970  Biso   1.000  H
  H728     1.0000 0.52020  0.53740  0.32970  Biso   1.000  H
  H729     1.0000 0.05170  0.99620  0.88600  Biso   1.000  H
  H730     1.0000 0.55170  0.49620  0.88600  Biso   1.000  H
  H731     1.0000 0.94830  0.99620  0.61400  Biso   1.000  H
  H732     1.0000 0.44830  0.49620  0.61400  Biso   1.000  H
  H733     1.0000 0.94830  0.00380  0.11400  Biso   1.000  H
  H734     1.0000 0.44830  0.50380  0.11400  Biso   1.000  H
  H735     1.0000 0.05170  0.00380  0.38600  Biso   1.000  H
  H736     1.0000 0.55170  0.50380  0.38600  Biso   1.000  H
  C633     1.0000 0.02830  0.91300  0.89240  Biso   1.000  C
  C634     1.0000 0.52830  0.41300  0.89240  Biso   1.000  C
  C635     1.0000 0.97170  0.91300  0.60760  Biso   1.000  C
  C636     1.0000 0.47170  0.41300  0.60760  Biso   1.000  C
  C637     1.0000 0.97170  0.08700  0.10760  Biso   1.000  C
  C638     1.0000 0.47170  0.58700  0.10760  Biso   1.000  C
  C639     1.0000 0.02830  0.08700  0.39240  Biso   1.000  C
  C640     1.0000 0.52830  0.58700  0.39240  Biso   1.000  C
  H737     1.0000 0.00570  0.88940  0.88030  Biso   1.000  H
  H738     1.0000 0.50570  0.38940  0.88030  Biso   1.000  H
  H739     1.0000 0.99430  0.88940  0.61970  Biso   1.000  H
  H740     1.0000 0.49430  0.38940  0.61970  Biso   1.000  H
  H741     1.0000 0.99430  0.11060  0.11970  Biso   1.000  H
  H742     1.0000 0.49430  0.61060  0.11970  Biso   1.000  H
  H743     1.0000 0.00570  0.11060  0.38030  Biso   1.000  H
  H744     1.0000 0.50570  0.61060  0.38030  Biso   1.000  H
  H745     1.0000 0.03970  0.91900  0.93500  Biso   1.000  H
  H746     1.0000 0.53970  0.41900  0.93500  Biso   1.000  H
  H747     1.0000 0.96030  0.91900  0.56500  Biso   1.000  H
  H748     1.0000 0.46030  0.41900  0.56500  Biso   1.000  H
  H749     1.0000 0.96030  0.08100  0.06500  Biso   1.000  H
  H750     1.0000 0.46030  0.58100  0.06500  Biso   1.000  H
  H751     1.0000 0.03970  0.08100  0.43500  Biso   1.000  H
  H752     1.0000 0.53970  0.58100  0.43500  Biso   1.000  H
  C641     1.0000 0.05310  0.84100  0.86080  Biso   1.000  C
  C642     1.0000 0.55310  0.34100  0.86080  Biso   1.000  C
  C643     1.0000 0.94690  0.84100  0.63920  Biso   1.000  C
  C644     1.0000 0.44690  0.34100  0.63920  Biso   1.000  C
  C645     1.0000 0.94690  0.15900  0.13920  Biso   1.000  C
  C646     1.0000 0.44690  0.65900  0.13920  Biso   1.000  C
  C647     1.0000 0.05310  0.15900  0.36080  Biso   1.000  C
  C648     1.0000 0.55310  0.65900  0.36080  Biso   1.000  C
  H753     1.0000 0.07500  0.82220  0.89050  Biso   1.000  H
  H754     1.0000 0.57500  0.32220  0.89050  Biso   1.000  H
  H755     1.0000 0.92500  0.82220  0.60950  Biso   1.000  H
  H756     1.0000 0.42500  0.32220  0.60950  Biso   1.000  H
  H757     1.0000 0.92500  0.17780  0.10950  Biso   1.000  H
  H758     1.0000 0.42500  0.67780  0.10950  Biso   1.000  H
  H759     1.0000 0.07500  0.17780  0.39050  Biso   1.000  H
  H760     1.0000 0.57500  0.67780  0.39050  Biso   1.000  H
  H761     1.0000 0.04090  0.78670  0.83810  Biso   1.000  H
  H762     1.0000 0.54090  0.28670  0.83810  Biso   1.000  H
  H763     1.0000 0.95910  0.78670  0.66190  Biso   1.000  H
  H764     1.0000 0.45910  0.28670  0.66190  Biso   1.000  H
  H765     1.0000 0.95910  0.21330  0.16190  Biso   1.000  H
  H766     1.0000 0.45910  0.71330  0.16190  Biso   1.000  H
  H767     1.0000 0.04090  0.21330  0.33810  Biso   1.000  H
  H768     1.0000 0.54090  0.71330  0.33810  Biso   1.000  H
  H769     1.0000 0.06240  0.98070  0.84510  Biso   1.000  H
  H770     1.0000 0.56240  0.48070  0.84510  Biso   1.000  H
  H771     1.0000 0.93760  0.98070  0.65490  Biso   1.000  H
  H772     1.0000 0.43760  0.48070  0.65490  Biso   1.000  H
  H773     1.0000 0.93760  0.01930  0.15490  Biso   1.000  H
  H774     1.0000 0.43760  0.51930  0.15490  Biso   1.000  H
  H775     1.0000 0.06240  0.01930  0.34510  Biso   1.000  H
  H776     1.0000 0.56240  0.51930  0.34510  Biso   1.000  H
  H777     1.0000 0.03300  0.93480  0.79020  Biso   1.000  H
  H778     1.0000 0.53300  0.43480  0.79020  Biso   1.000  H
  H779     1.0000 0.96700  0.93480  0.70980  Biso   1.000  H
  H780     1.0000 0.46700  0.43480  0.70980  Biso   1.000  H
  H781     1.0000 0.96700  0.06520  0.20980  Biso   1.000  H
  H782     1.0000 0.46700  0.56520  0.20980  Biso   1.000  H
  H783     1.0000 0.03300  0.06520  0.29020  Biso   1.000  H
  H784     1.0000 0.53300  0.56520  0.29020  Biso   1.000  H
  O73      1.0000 0.03290  0.74570  0.25110  Biso   1.000  O
  O74      1.0000 0.53290  0.24570  0.25110  Biso   1.000  O
  O75      1.0000 0.96710  0.74570  0.24890  Biso   1.000  O
  O76      1.0000 0.46710  0.24570  0.24890  Biso   1.000  O
  O77      1.0000 0.96710  0.25430  0.74890  Biso   1.000  O
  O78      1.0000 0.46710  0.75430  0.74890  Biso   1.000  O
  O79      1.0000 0.03290  0.25430  0.75110  Biso   1.000  O
  O80      1.0000 0.53290  0.75430  0.75110  Biso   1.000  O
  C649     1.0000 0.00980  0.80750  0.23600  Biso   1.000  C
  C650     1.0000 0.50980  0.30750  0.23600  Biso   1.000  C
  C651     1.0000 0.99020  0.80750  0.26400  Biso   1.000  C
  C652     1.0000 0.49020  0.30750  0.26400  Biso   1.000  C
  C653     1.0000 0.99020  0.19250  0.76400  Biso   1.000  C
  C654     1.0000 0.49020  0.69250  0.76400  Biso   1.000  C
  C655     1.0000 0.00980  0.19250  0.73600  Biso   1.000  C
  C656     1.0000 0.50980  0.69250  0.73600  Biso   1.000  C
  H785     1.0000 0.99560  0.79950  0.19410  Biso   1.000  H
  H786     1.0000 0.49560  0.29950  0.19410  Biso   1.000  H
  H787     1.0000 0.00440  0.79950  0.30590  Biso   1.000  H
  H788     1.0000 0.50440  0.29950  0.30590  Biso   1.000  H
  H789     1.0000 0.00440  0.20050  0.80590  Biso   1.000  H
  H790     1.0000 0.50440  0.70050  0.80590  Biso   1.000  H
  H791     1.0000 0.99560  0.20050  0.69410  Biso   1.000  H
  H792     1.0000 0.49560  0.70050  0.69410  Biso   1.000  H
  H793     1.0000 0.02010  0.86990  0.24100  Biso   1.000  H
  H794     1.0000 0.52010  0.36990  0.24100  Biso   1.000  H
  H795     1.0000 0.97990  0.86990  0.25900  Biso   1.000  H
  H796     1.0000 0.47990  0.36990  0.25900  Biso   1.000  H
  H797     1.0000 0.97990  0.13010  0.75900  Biso   1.000  H
  H798     1.0000 0.47990  0.63010  0.75900  Biso   1.000  H
  H799     1.0000 0.02010  0.13010  0.74100  Biso   1.000  H
  H800     1.0000 0.52010  0.63010  0.74100  Biso   1.000  H
  C657     1.0000 0.01650  0.67080  0.24950  Biso   1.000  C
  C658     1.0000 0.51650  0.17080  0.24950  Biso   1.000  C
  C659     1.0000 0.98350  0.67080  0.25050  Biso   1.000  C
  C660     1.0000 0.48350  0.17080  0.25050  Biso   1.000  C
  C661     1.0000 0.98350  0.32920  0.75050  Biso   1.000  C
  C662     1.0000 0.48350  0.82920  0.75050  Biso   1.000  C
  C663     1.0000 0.01650  0.32920  0.74950  Biso   1.000  C
  C664     1.0000 0.51650  0.82920  0.74950  Biso   1.000  C
  H801     1.0000 0.03110  0.63200  0.28270  Biso   1.000  H
  H802     1.0000 0.53110  0.13200  0.28270  Biso   1.000  H
  H803     1.0000 0.96890  0.63200  0.21730  Biso   1.000  H
  H804     1.0000 0.46890  0.13200  0.21730  Biso   1.000  H
  H805     1.0000 0.96890  0.36800  0.71730  Biso   1.000  H
  H806     1.0000 0.46890  0.86800  0.71730  Biso   1.000  H
  H807     1.0000 0.03110  0.36800  0.78270  Biso   1.000  H
  H808     1.0000 0.53110  0.86800  0.78270  Biso   1.000  H
  H809     1.0000 0.01380  0.63670  0.21410  Biso   1.000  H
  H810     1.0000 0.51380  0.13670  0.21410  Biso   1.000  H
  H811     1.0000 0.98620  0.63670  0.28590  Biso   1.000  H
  H812     1.0000 0.48620  0.13670  0.28590  Biso   1.000  H
  H813     1.0000 0.98620  0.36330  0.78590  Biso   1.000  H
  H814     1.0000 0.48620  0.86330  0.78590  Biso   1.000  H
  H815     1.0000 0.01380  0.36330  0.71410  Biso   1.000  H
  H816     1.0000 0.51380  0.86330  0.71410  Biso   1.000  H
